MODEL 1
REMARK VINA RESULT:      -7.5      0.000      0.000
REMARK  Name = 
REMARK  3 active torsions:
REMARK  status: ('A' for Active; 'I' for Inactive)
REMARK    1  A    between atoms: N_3  and  C_4
REMARK    2  A    between atoms: C_7  and  C_8
REMARK    3  A    between atoms: C_21  and  O_22
REMARK                            x       y       z     vdW  Elec       q    Type
REMARK                         _______ _______ _______ _____ _____    ______ ____
ROOT
ATOM      1  O   UNL     1      -1.409   9.858  18.922  0.00  0.00    +0.000 OA
ATOM      2  C   UNL     1      -0.660  10.784  19.274  0.00  0.00    +0.000 C 
ATOM      3  N   UNL     1       0.693  10.607  19.466  0.00  0.00    +0.000 N 
ATOM      4  N   UNL     1      -1.212  12.047  19.538  0.00  0.00    +0.000 N 
ATOM      5  C   UNL     1      -0.480  13.216  20.096  0.00  0.00    +0.000 C 
ATOM      6  C   UNL     1      -1.348  14.486  20.370  0.00  0.00    +0.000 C 
ATOM      7  C   UNL     1      -2.689  14.065  21.029  0.00  0.00    +0.000 C 
ATOM      8  C   UNL     1      -3.394  13.311  19.892  0.00  0.00    +0.000 C 
ATOM      9  C   UNL     1      -2.687  11.997  19.613  0.00  0.00    +0.000 C 
ATOM     10  C   UNL     1      -2.315  13.118  22.216  0.00  0.00    +0.000 C 
ATOM     11  C   UNL     1      -3.549  12.962  23.012  0.00  0.00    +0.000 C 
ATOM     12  C   UNL     1      -3.543  14.305  23.605  0.00  0.00    +0.000 A 
ATOM     13  C   UNL     1      -3.050  14.665  24.860  0.00  0.00    +0.000 A 
ATOM     14  C   UNL     1      -3.455  15.860  25.411  0.00  0.00    +0.000 A 
ATOM     15  C   UNL     1      -4.453  16.566  24.748  0.00  0.00    +0.000 A 
ATOM     16  C   UNL     1      -4.715  16.266  23.387  0.00  0.00    +0.000 A 
ATOM     17 BR   UNL     1      -6.493  16.602  22.775  0.00  0.00    +0.000 Br
ATOM     18  C   UNL     1      -3.963  15.285  22.756  0.00  0.00    +0.000 A 
ATOM     19  O   UNL     1      -3.618  15.189  21.413  0.00  0.00    +0.000 OA
ATOM     20  H   UNL     1       1.160  11.241  20.092  0.00  0.00    +0.000 HD
ENDROOT
BRANCH   3  21
ATOM     21  C   UNL     1       1.378   9.391  19.146  0.00  0.00    +0.000 A 
ATOM     22  C   UNL     1       1.520   8.337  20.061  0.00  0.00    +0.000 A 
ATOM     23  C   UNL     1       2.225   7.169  19.747  0.00  0.00    +0.000 A 
ATOM     24  C   UNL     1       2.797   7.007  18.482  0.00  0.00    +0.000 A 
ATOM     25  C   UNL     1       2.632   8.038  17.545  0.00  0.00    +0.000 A 
ATOM     26  C   UNL     1       1.927   9.217  17.869  0.00  0.00    +0.000 A 
BRANCH  24  27
ATOM     27  C   UNL     1       3.563   5.746  18.147  0.00  0.00    +0.000 C 
ATOM     28  F   UNL     1       4.136   5.766  16.910  0.00  0.00    +0.000 F 
ATOM     29  F   UNL     1       4.580   5.505  19.020  0.00  0.00    +0.000 F 
ATOM     30  F   UNL     1       2.779   4.633  18.171  0.00  0.00    +0.000 F 
ENDBRANCH  24  27
ENDBRANCH   3  21
BRANCH  11  31
ATOM     31  O   UNL     1      -3.545  11.932  23.963  0.00  0.00    +0.000 OA
ATOM     32  H   UNL     1      -2.771  12.120  24.524  0.00  0.00    +0.000 HD
ENDBRANCH  11  31
TORSDOF 3
ENDMDL
MODEL 2
REMARK VINA RESULT:      -7.5      0.073      1.116
REMARK  Name = 
REMARK  3 active torsions:
REMARK  status: ('A' for Active; 'I' for Inactive)
REMARK    1  A    between atoms: N_3  and  C_4
REMARK    2  A    between atoms: C_7  and  C_8
REMARK    3  A    between atoms: C_21  and  O_22
REMARK                            x       y       z     vdW  Elec       q    Type
REMARK                         _______ _______ _______ _____ _____    ______ ____
ROOT
ATOM      1  O   UNL     1      -1.372   9.832  18.906  0.00  0.00    +0.000 OA
ATOM      2  C   UNL     1      -0.640  10.777  19.244  0.00  0.00    +0.000 C 
ATOM      3  N   UNL     1       0.718  10.630  19.422  0.00  0.00    +0.000 N 
ATOM      4  N   UNL     1      -1.217  12.029  19.506  0.00  0.00    +0.000 N 
ATOM      5  C   UNL     1      -0.504  13.217  20.048  0.00  0.00    +0.000 C 
ATOM      6  C   UNL     1      -1.397  14.469  20.325  0.00  0.00    +0.000 C 
ATOM      7  C   UNL     1      -2.720  14.024  21.001  0.00  0.00    +0.000 C 
ATOM      8  C   UNL     1      -3.422  13.247  19.876  0.00  0.00    +0.000 C 
ATOM      9  C   UNL     1      -2.689  11.947  19.597  0.00  0.00    +0.000 C 
ATOM     10  C   UNL     1      -2.313  13.093  22.189  0.00  0.00    +0.000 C 
ATOM     11  C   UNL     1      -3.534  12.915  23.000  0.00  0.00    +0.000 C 
ATOM     12  C   UNL     1      -3.551  14.262  23.585  0.00  0.00    +0.000 A 
ATOM     13  C   UNL     1      -3.052  14.641  24.832  0.00  0.00    +0.000 A 
ATOM     14  C   UNL     1      -3.477  15.830  25.380  0.00  0.00    +0.000 A 
ATOM     15  C   UNL     1      -4.498  16.510  24.723  0.00  0.00    +0.000 A 
ATOM     16  C   UNL     1      -4.767  16.196  23.368  0.00  0.00    +0.000 A 
ATOM     17 BR   UNL     1      -6.559  16.489  22.774  0.00  0.00    +0.000 Br
ATOM     18  C   UNL     1      -4.002  15.227  22.734  0.00  0.00    +0.000 A 
ATOM     19  O   UNL     1      -3.669  15.130  21.388  0.00  0.00    +0.000 OA
ATOM     20  H   UNL     1       1.179  11.278  20.038  0.00  0.00    +0.000 HD
ENDROOT
BRANCH   3  21
ATOM     21  C   UNL     1       1.426   9.427  19.101  0.00  0.00    +0.000 A 
ATOM     22  C   UNL     1       2.030   9.212  17.854  0.00  0.00    +0.000 A 
ATOM     23  C   UNL     1       2.685   8.015  17.541  0.00  0.00    +0.000 A 
ATOM     24  C   UNL     1       2.780   6.992  18.488  0.00  0.00    +0.000 A 
ATOM     25  C   UNL     1       2.212   7.208  19.753  0.00  0.00    +0.000 A 
ATOM     26  C   UNL     1       1.545   8.413  20.060  0.00  0.00    +0.000 A 
BRANCH  24  27
ATOM     27  C   UNL     1       3.484   5.698  18.146  0.00  0.00    +0.000 C 
ATOM     28  F   UNL     1       2.670   4.605  18.180  0.00  0.00    +0.000 F 
ATOM     29  F   UNL     1       4.028   5.713  16.897  0.00  0.00    +0.000 F 
ATOM     30  F   UNL     1       4.512   5.418  18.997  0.00  0.00    +0.000 F 
ENDBRANCH  24  27
ENDBRANCH   3  21
BRANCH  11  31
ATOM     31  O   UNL     1      -3.498  11.892  23.957  0.00  0.00    +0.000 OA
ATOM     32  H   UNL     1      -2.685  12.063  24.468  0.00  0.00    +0.000 HD
ENDBRANCH  11  31
TORSDOF 3
ENDMDL
MODEL 3
REMARK VINA RESULT:      -7.5     10.222     12.160
REMARK  Name = 
REMARK  3 active torsions:
REMARK  status: ('A' for Active; 'I' for Inactive)
REMARK    1  A    between atoms: N_3  and  C_4
REMARK    2  A    between atoms: C_7  and  C_8
REMARK    3  A    between atoms: C_21  and  O_22
REMARK                            x       y       z     vdW  Elec       q    Type
REMARK                         _______ _______ _______ _____ _____    ______ ____
ROOT
ATOM      1  O   UNL     1       8.918   8.717  19.402  0.00  0.00    +0.000 OA
ATOM      2  C   UNL     1       8.399   8.665  18.275  0.00  0.00    +0.000 C 
ATOM      3  N   UNL     1       8.256   9.779  17.477  0.00  0.00    +0.000 N 
ATOM      4  N   UNL     1       7.892   7.442  17.811  0.00  0.00    +0.000 N 
ATOM      5  C   UNL     1       7.124   7.241  16.553  0.00  0.00    +0.000 C 
ATOM      6  C   UNL     1       6.602   5.788  16.307  0.00  0.00    +0.000 C 
ATOM      7  C   UNL     1       6.027   5.214  17.629  0.00  0.00    +0.000 C 
ATOM      8  C   UNL     1       7.283   5.068  18.502  0.00  0.00    +0.000 C 
ATOM      9  C   UNL     1       7.816   6.435  18.890  0.00  0.00    +0.000 C 
ATOM     10  C   UNL     1       5.049   6.298  18.188  0.00  0.00    +0.000 C 
ATOM     11  C   UNL     1       4.288   5.638  19.268  0.00  0.00    +0.000 C 
ATOM     12  C   UNL     1       3.446   4.804  18.400  0.00  0.00    +0.000 A 
ATOM     13  C   UNL     1       2.149   5.085  17.969  0.00  0.00    +0.000 A 
ATOM     14  C   UNL     1       1.374   4.055  17.488  0.00  0.00    +0.000 A 
ATOM     15  C   UNL     1       1.880   2.764  17.605  0.00  0.00    +0.000 A 
ATOM     16  C   UNL     1       3.270   2.591  17.818  0.00  0.00    +0.000 A 
ATOM     17 BR   UNL     1       3.792   1.006  18.747  0.00  0.00    +0.000 Br
ATOM     18  C   UNL     1       4.086   3.711  17.896  0.00  0.00    +0.000 A 
ATOM     19  O   UNL     1       5.425   3.834  17.543  0.00  0.00    +0.000 OA
ATOM     20  H   UNL     1       7.524   9.766  16.787  0.00  0.00    +0.000 HD
ENDROOT
BRANCH   3  21
ATOM     21  C   UNL     1       8.811  11.057  17.807  0.00  0.00    +0.000 A 
ATOM     22  C   UNL     1      10.093  11.208  18.357  0.00  0.00    +0.000 A 
ATOM     23  C   UNL     1      10.608  12.461  18.711  0.00  0.00    +0.000 A 
ATOM     24  C   UNL     1       9.856  13.620  18.499  0.00  0.00    +0.000 A 
ATOM     25  C   UNL     1       8.587  13.487  17.916  0.00  0.00    +0.000 A 
ATOM     26  C   UNL     1       8.069  12.221  17.568  0.00  0.00    +0.000 A 
BRANCH  24  27
ATOM     27  C   UNL     1      10.413  14.972  18.887  0.00  0.00    +0.000 C 
ATOM     28  F   UNL     1      11.522  14.902  19.676  0.00  0.00    +0.000 F 
ATOM     29  F   UNL     1      10.776  15.717  17.806  0.00  0.00    +0.000 F 
ATOM     30  F   UNL     1       9.517  15.730  19.578  0.00  0.00    +0.000 F 
ENDBRANCH  24  27
ENDBRANCH   3  21
BRANCH  11  31
ATOM     31  O   UNL     1       3.554   6.481  20.113  0.00  0.00    +0.000 OA
ATOM     32  H   UNL     1       2.997   7.008  19.510  0.00  0.00    +0.000 HD
ENDBRANCH  11  31
TORSDOF 3
ENDMDL
MODEL 4
REMARK VINA RESULT:      -7.4     10.236     12.182
REMARK  Name = 
REMARK  3 active torsions:
REMARK  status: ('A' for Active; 'I' for Inactive)
REMARK    1  A    between atoms: N_3  and  C_4
REMARK    2  A    between atoms: C_7  and  C_8
REMARK    3  A    between atoms: C_21  and  O_22
REMARK                            x       y       z     vdW  Elec       q    Type
REMARK                         _______ _______ _______ _____ _____    ______ ____
ROOT
ATOM      1  O   UNL     1       8.920   8.732  19.411  0.00  0.00    +0.000 OA
ATOM      2  C   UNL     1       8.403   8.683  18.283  0.00  0.00    +0.000 C 
ATOM      3  N   UNL     1       8.262   9.798  17.487  0.00  0.00    +0.000 N 
ATOM      4  N   UNL     1       7.897   7.460  17.815  0.00  0.00    +0.000 N 
ATOM      5  C   UNL     1       7.132   7.262  16.555  0.00  0.00    +0.000 C 
ATOM      6  C   UNL     1       6.610   5.810  16.305  0.00  0.00    +0.000 C 
ATOM      7  C   UNL     1       6.033   5.233  17.624  0.00  0.00    +0.000 C 
ATOM      8  C   UNL     1       7.287   5.084  18.498  0.00  0.00    +0.000 C 
ATOM      9  C   UNL     1       7.820   6.450  18.891  0.00  0.00    +0.000 C 
ATOM     10  C   UNL     1       5.053   6.315  18.184  0.00  0.00    +0.000 C 
ATOM     11  C   UNL     1       4.291   5.652  19.260  0.00  0.00    +0.000 C 
ATOM     12  C   UNL     1       3.451   4.820  18.389  0.00  0.00    +0.000 A 
ATOM     13  C   UNL     1       2.154   5.102  17.956  0.00  0.00    +0.000 A 
ATOM     14  C   UNL     1       1.380   4.073  17.471  0.00  0.00    +0.000 A 
ATOM     15  C   UNL     1       1.886   2.781  17.586  0.00  0.00    +0.000 A 
ATOM     16  C   UNL     1       3.276   2.609  17.801  0.00  0.00    +0.000 A 
ATOM     17 BR   UNL     1       3.796   1.021  18.727  0.00  0.00    +0.000 Br
ATOM     18  C   UNL     1       4.091   3.729  17.883  0.00  0.00    +0.000 A 
ATOM     19  O   UNL     1       5.431   3.853  17.533  0.00  0.00    +0.000 OA
ATOM     20  H   UNL     1       7.530   9.786  16.796  0.00  0.00    +0.000 HD
ENDROOT
BRANCH   3  21
ATOM     21  C   UNL     1       8.816  11.076  17.821  0.00  0.00    +0.000 A 
ATOM     22  C   UNL     1       8.125  12.279  17.618  0.00  0.00    +0.000 A 
ATOM     23  C   UNL     1       8.694  13.524  17.913  0.00  0.00    +0.000 A 
ATOM     24  C   UNL     1       9.981  13.602  18.453  0.00  0.00    +0.000 A 
ATOM     25  C   UNL     1      10.670  12.404  18.695  0.00  0.00    +0.000 A 
ATOM     26  C   UNL     1      10.095  11.153  18.388  0.00  0.00    +0.000 A 
BRANCH  24  27
ATOM     27  C   UNL     1      10.596  14.948  18.767  0.00  0.00    +0.000 C 
ATOM     28  F   UNL     1       9.800  15.749  19.530  0.00  0.00    +0.000 F 
ATOM     29  F   UNL     1      11.770  14.840  19.447  0.00  0.00    +0.000 F 
ATOM     30  F   UNL     1      10.879  15.670  17.647  0.00  0.00    +0.000 F 
ENDBRANCH  24  27
ENDBRANCH   3  21
BRANCH  11  31
ATOM     31  O   UNL     1       3.555   6.493  20.107  0.00  0.00    +0.000 OA
ATOM     32  H   UNL     1       3.936   6.345  20.992  0.00  0.00    +0.000 HD
ENDBRANCH  11  31
TORSDOF 3
ENDMDL
MODEL 5
REMARK VINA RESULT:      -7.4      1.841      2.484
REMARK  Name = 
REMARK  3 active torsions:
REMARK  status: ('A' for Active; 'I' for Inactive)
REMARK    1  A    between atoms: N_3  and  C_4
REMARK    2  A    between atoms: C_7  and  C_8
REMARK    3  A    between atoms: C_21  and  O_22
REMARK                            x       y       z     vdW  Elec       q    Type
REMARK                         _______ _______ _______ _____ _____    ______ ____
ROOT
ATOM      1  O   UNL     1      -0.269  11.677  19.087  0.00  0.00    +0.000 OA
ATOM      2  C   UNL     1      -0.321  11.495  20.315  0.00  0.00    +0.000 C 
ATOM      3  N   UNL     1       0.192  10.366  20.915  0.00  0.00    +0.000 N 
ATOM      4  N   UNL     1      -0.968  12.445  21.121  0.00  0.00    +0.000 N 
ATOM      5  C   UNL     1      -1.234  12.309  22.578  0.00  0.00    +0.000 C 
ATOM      6  C   UNL     1      -2.045  13.478  23.225  0.00  0.00    +0.000 C 
ATOM      7  C   UNL     1      -3.217  13.876  22.289  0.00  0.00    +0.000 C 
ATOM      8  C   UNL     1      -2.486  14.489  21.085  0.00  0.00    +0.000 C 
ATOM      9  C   UNL     1      -1.743  13.411  20.316  0.00  0.00    +0.000 C 
ATOM     10  C   UNL     1      -3.950  12.547  21.915  0.00  0.00    +0.000 C 
ATOM     11  C   UNL     1      -5.220  12.950  21.280  0.00  0.00    +0.000 C 
ATOM     12  C   UNL     1      -5.891  13.401  22.506  0.00  0.00    +0.000 A 
ATOM     13  C   UNL     1      -6.781  12.668  23.293  0.00  0.00    +0.000 A 
ATOM     14  C   UNL     1      -7.597  13.342  24.172  0.00  0.00    +0.000 A 
ATOM     15  C   UNL     1      -7.592  14.733  24.112  0.00  0.00    +0.000 A 
ATOM     16  C   UNL     1      -6.506  15.386  23.478  0.00  0.00    +0.000 A 
ATOM     17 BR   UNL     1      -6.881  17.095  22.710  0.00  0.00    +0.000 Br
ATOM     18  C   UNL     1      -5.477  14.623  22.945  0.00  0.00    +0.000 A 
ATOM     19  O   UNL     1      -4.135  14.957  22.803  0.00  0.00    +0.000 OA
ATOM     20  H   UNL     1      -0.198  10.093  21.801  0.00  0.00    +0.000 HD
ENDROOT
BRANCH   3  21
ATOM     21  C   UNL     1       0.948   9.376  20.207  0.00  0.00    +0.000 A 
ATOM     22  C   UNL     1       1.317   9.522  18.862  0.00  0.00    +0.000 A 
ATOM     23  C   UNL     1       2.022   8.529  18.172  0.00  0.00    +0.000 A 
ATOM     24  C   UNL     1       2.407   7.354  18.822  0.00  0.00    +0.000 A 
ATOM     25  C   UNL     1       2.075   7.209  20.178  0.00  0.00    +0.000 A 
ATOM     26  C   UNL     1       1.357   8.211  20.867  0.00  0.00    +0.000 A 
BRANCH  24  27
ATOM     27  C   UNL     1       3.164   6.280  18.073  0.00  0.00    +0.000 C 
ATOM     28  F   UNL     1       4.079   5.619  18.838  0.00  0.00    +0.000 F 
ATOM     29  F   UNL     1       2.344   5.318  17.567  0.00  0.00    +0.000 F 
ATOM     30  F   UNL     1       3.861   6.772  17.011  0.00  0.00    +0.000 F 
ENDBRANCH  24  27
ENDBRANCH   3  21
BRANCH  11  31
ATOM     31  O   UNL     1      -5.919  11.944  20.599  0.00  0.00    +0.000 OA
ATOM     32  H   UNL     1      -6.714  12.390  20.252  0.00  0.00    +0.000 HD
ENDBRANCH  11  31
TORSDOF 3
ENDMDL
MODEL 6
REMARK VINA RESULT:      -7.3      2.828      4.067
REMARK  Name = 
REMARK  3 active torsions:
REMARK  status: ('A' for Active; 'I' for Inactive)
REMARK    1  A    between atoms: N_3  and  C_4
REMARK    2  A    between atoms: C_7  and  C_8
REMARK    3  A    between atoms: C_21  and  O_22
REMARK                            x       y       z     vdW  Elec       q    Type
REMARK                         _______ _______ _______ _____ _____    ______ ____
ROOT
ATOM      1  O   UNL     1       1.831   8.659  20.436  0.00  0.00    +0.000 OA
ATOM      2  C   UNL     1       1.173   8.988  19.435  0.00  0.00    +0.000 C 
ATOM      3  N   UNL     1       1.445   8.492  18.179  0.00  0.00    +0.000 N 
ATOM      4  N   UNL     1       0.148   9.936  19.572  0.00  0.00    +0.000 N 
ATOM      5  C   UNL     1      -0.636  10.534  18.457  0.00  0.00    +0.000 C 
ATOM      6  C   UNL     1      -1.669  11.631  18.874  0.00  0.00    +0.000 C 
ATOM      7  C   UNL     1      -1.026  12.577  19.922  0.00  0.00    +0.000 C 
ATOM      8  C   UNL     1      -0.871  11.660  21.145  0.00  0.00    +0.000 C 
ATOM      9  C   UNL     1       0.196  10.612  20.885  0.00  0.00    +0.000 C 
ATOM     10  C   UNL     1       0.357  13.007  19.334  0.00  0.00    +0.000 C 
ATOM     11  C   UNL     1       0.826  14.123  20.180  0.00  0.00    +0.000 C 
ATOM     12  C   UNL     1      -0.114  15.131  19.671  0.00  0.00    +0.000 A 
ATOM     13  C   UNL     1       0.132  16.081  18.679  0.00  0.00    +0.000 A 
ATOM     14  C   UNL     1      -0.701  17.173  18.587  0.00  0.00    +0.000 A 
ATOM     15  C   UNL     1      -1.650  17.341  19.592  0.00  0.00    +0.000 A 
ATOM     16  C   UNL     1      -1.991  16.231  20.403  0.00  0.00    +0.000 A 
ATOM     17 BR   UNL     1      -2.600  16.631  22.169  0.00  0.00    +0.000 Br
ATOM     18  C   UNL     1      -1.377  15.008  20.167  0.00  0.00    +0.000 A 
ATOM     19  O   UNL     1      -1.881  13.731  20.382  0.00  0.00    +0.000 OA
ATOM     20  H   UNL     1       1.165   9.048  17.390  0.00  0.00    +0.000 HD
ENDROOT
BRANCH   3  21
ATOM     21  C   UNL     1       2.406   7.458  17.935  0.00  0.00    +0.000 A 
ATOM     22  C   UNL     1       3.699   7.722  17.459  0.00  0.00    +0.000 A 
ATOM     23  C   UNL     1       4.615   6.698  17.188  0.00  0.00    +0.000 A 
ATOM     24  C   UNL     1       4.269   5.363  17.411  0.00  0.00    +0.000 A 
ATOM     25  C   UNL     1       2.992   5.087  17.921  0.00  0.00    +0.000 A 
ATOM     26  C   UNL     1       2.069   6.122  18.185  0.00  0.00    +0.000 A 
BRANCH  24  27
ATOM     27  C   UNL     1       5.259   4.259  17.112  0.00  0.00    +0.000 C 
ATOM     28  F   UNL     1       4.691   3.023  17.025  0.00  0.00    +0.000 F 
ATOM     29  F   UNL     1       5.913   4.448  15.932  0.00  0.00    +0.000 F 
ATOM     30  F   UNL     1       6.229   4.151  18.063  0.00  0.00    +0.000 F 
ENDBRANCH  24  27
ENDBRANCH   3  21
BRANCH  11  31
ATOM     31  O   UNL     1       2.170  14.490  20.032  0.00  0.00    +0.000 OA
ATOM     32  H   UNL     1       2.475  13.993  19.251  0.00  0.00    +0.000 HD
ENDBRANCH  11  31
TORSDOF 3
ENDMDL
MODEL 7
REMARK VINA RESULT:      -7.3      2.835      3.948
REMARK  Name = 
REMARK  3 active torsions:
REMARK  status: ('A' for Active; 'I' for Inactive)
REMARK    1  A    between atoms: N_3  and  C_4
REMARK    2  A    between atoms: C_7  and  C_8
REMARK    3  A    between atoms: C_21  and  O_22
REMARK                            x       y       z     vdW  Elec       q    Type
REMARK                         _______ _______ _______ _____ _____    ______ ____
ROOT
ATOM      1  O   UNL     1       1.811   8.683  20.436  0.00  0.00    +0.000 OA
ATOM      2  C   UNL     1       1.157   9.012  19.433  0.00  0.00    +0.000 C 
ATOM      3  N   UNL     1       1.431   8.512  18.178  0.00  0.00    +0.000 N 
ATOM      4  N   UNL     1       0.135   9.964  19.565  0.00  0.00    +0.000 N 
ATOM      5  C   UNL     1      -0.644  10.562  18.446  0.00  0.00    +0.000 C 
ATOM      6  C   UNL     1      -1.674  11.663  18.858  0.00  0.00    +0.000 C 
ATOM      7  C   UNL     1      -1.031  12.609  19.906  0.00  0.00    +0.000 C 
ATOM      8  C   UNL     1      -0.882  11.694  21.131  0.00  0.00    +0.000 C 
ATOM      9  C   UNL     1       0.182  10.642  20.876  0.00  0.00    +0.000 C 
ATOM     10  C   UNL     1       0.355  13.034  19.320  0.00  0.00    +0.000 C 
ATOM     11  C   UNL     1       0.825  14.150  20.164  0.00  0.00    +0.000 C 
ATOM     12  C   UNL     1      -0.110  15.160  19.651  0.00  0.00    +0.000 A 
ATOM     13  C   UNL     1       0.141  16.107  18.657  0.00  0.00    +0.000 A 
ATOM     14  C   UNL     1      -0.688  17.201  18.561  0.00  0.00    +0.000 A 
ATOM     15  C   UNL     1      -1.638  17.375  19.563  0.00  0.00    +0.000 A 
ATOM     16  C   UNL     1      -1.985  16.267  20.376  0.00  0.00    +0.000 A 
ATOM     17 BR   UNL     1      -2.598  16.673  22.139  0.00  0.00    +0.000 Br
ATOM     18  C   UNL     1      -1.375  15.043  20.144  0.00  0.00    +0.000 A 
ATOM     19  O   UNL     1      -1.884  13.767  20.361  0.00  0.00    +0.000 OA
ATOM     20  H   UNL     1       1.154   9.068  17.387  0.00  0.00    +0.000 HD
ENDROOT
BRANCH   3  21
ATOM     21  C   UNL     1       2.389   7.475  17.939  0.00  0.00    +0.000 A 
ATOM     22  C   UNL     1       2.117   6.120  18.183  0.00  0.00    +0.000 A 
ATOM     23  C   UNL     1       3.076   5.121  17.980  0.00  0.00    +0.000 A 
ATOM     24  C   UNL     1       4.346   5.447  17.497  0.00  0.00    +0.000 A 
ATOM     25  C   UNL     1       4.620   6.794  17.215  0.00  0.00    +0.000 A 
ATOM     26  C   UNL     1       3.652   7.799  17.428  0.00  0.00    +0.000 A 
BRANCH  24  27
ATOM     27  C   UNL     1       5.382   4.366  17.284  0.00  0.00    +0.000 C 
ATOM     28  F   UNL     1       6.276   4.651  16.295  0.00  0.00    +0.000 F 
ATOM     29  F   UNL     1       6.129   4.131  18.399  0.00  0.00    +0.000 F 
ATOM     30  F   UNL     1       4.829   3.167  16.946  0.00  0.00    +0.000 F 
ENDBRANCH  24  27
ENDBRANCH   3  21
BRANCH  11  31
ATOM     31  O   UNL     1       2.171  14.512  20.019  0.00  0.00    +0.000 OA
ATOM     32  H   UNL     1       2.628  14.055  20.749  0.00  0.00    +0.000 HD
ENDBRANCH  11  31
TORSDOF 3
ENDMDL
MODEL 8
REMARK VINA RESULT:      -7.3      1.976      3.142
REMARK  Name = 
REMARK  3 active torsions:
REMARK  status: ('A' for Active; 'I' for Inactive)
REMARK    1  A    between atoms: N_3  and  C_4
REMARK    2  A    between atoms: C_7  and  C_8
REMARK    3  A    between atoms: C_21  and  O_22
REMARK                            x       y       z     vdW  Elec       q    Type
REMARK                         _______ _______ _______ _____ _____    ______ ____
ROOT
ATOM      1  O   UNL     1       0.812  12.217  21.626  0.00  0.00    +0.000 OA
ATOM      2  C   UNL     1      -0.238  11.641  21.954  0.00  0.00    +0.000 C 
ATOM      3  N   UNL     1      -0.583  10.400  21.464  0.00  0.00    +0.000 N 
ATOM      4  N   UNL     1      -1.136  12.293  22.813  0.00  0.00    +0.000 N 
ATOM      5  C   UNL     1      -2.490  11.803  23.188  0.00  0.00    +0.000 C 
ATOM      6  C   UNL     1      -3.323  12.761  24.100  0.00  0.00    +0.000 C 
ATOM      7  C   UNL     1      -3.175  14.219  23.592  0.00  0.00    +0.000 C 
ATOM      8  C   UNL     1      -1.701  14.528  23.895  0.00  0.00    +0.000 C 
ATOM      9  C   UNL     1      -0.796  13.721  22.982  0.00  0.00    +0.000 C 
ATOM     10  C   UNL     1      -3.461  14.179  22.055  0.00  0.00    +0.000 C 
ATOM     11  C   UNL     1      -3.612  15.587  21.636  0.00  0.00    +0.000 C 
ATOM     12  C   UNL     1      -4.931  15.807  22.243  0.00  0.00    +0.000 A 
ATOM     13  C   UNL     1      -6.171  15.723  21.609  0.00  0.00    +0.000 A 
ATOM     14  C   UNL     1      -7.260  16.317  22.205  0.00  0.00    +0.000 A 
ATOM     15  C   UNL     1      -7.027  17.099  23.332  0.00  0.00    +0.000 A 
ATOM     16  C   UNL     1      -5.810  16.934  24.039  0.00  0.00    +0.000 A 
ATOM     17 BR   UNL     1      -5.174  18.462  24.993  0.00  0.00    +0.000 Br
ATOM     18  C   UNL     1      -4.892  15.993  23.593  0.00  0.00    +0.000 A 
ATOM     19  O   UNL     1      -3.972  15.262  24.335  0.00  0.00    +0.000 OA
ATOM     20  H   UNL     1      -1.561  10.163  21.446  0.00  0.00    +0.000 HD
ENDROOT
BRANCH   3  21
ATOM     21  C   UNL     1       0.291   9.606  20.653  0.00  0.00    +0.000 A 
ATOM     22  C   UNL     1       0.561   9.907  19.310  0.00  0.00    +0.000 A 
ATOM     23  C   UNL     1       1.387   9.100  18.519  0.00  0.00    +0.000 A 
ATOM     24  C   UNL     1       1.997   7.966  19.061  0.00  0.00    +0.000 A 
ATOM     25  C   UNL     1       1.764   7.673  20.414  0.00  0.00    +0.000 A 
ATOM     26  C   UNL     1       0.924   8.486  21.205  0.00  0.00    +0.000 A 
BRANCH  24  27
ATOM     27  C   UNL     1       2.885   7.092  18.203  0.00  0.00    +0.000 C 
ATOM     28  F   UNL     1       3.445   7.750  17.148  0.00  0.00    +0.000 F 
ATOM     29  F   UNL     1       3.927   6.561  18.901  0.00  0.00    +0.000 F 
ATOM     30  F   UNL     1       2.218   6.033  17.664  0.00  0.00    +0.000 F 
ENDBRANCH  24  27
ENDBRANCH   3  21
BRANCH  11  31
ATOM     31  O   UNL     1      -3.587  15.827  20.255  0.00  0.00    +0.000 OA
ATOM     32  H   UNL     1      -2.687  16.158  20.080  0.00  0.00    +0.000 HD
ENDBRANCH  11  31
TORSDOF 3
ENDMDL
MODEL 9
REMARK VINA RESULT:      -7.3      2.722      3.848
REMARK  Name = 
REMARK  3 active torsions:
REMARK  status: ('A' for Active; 'I' for Inactive)
REMARK    1  A    between atoms: N_3  and  C_4
REMARK    2  A    between atoms: C_7  and  C_8
REMARK    3  A    between atoms: C_21  and  O_22
REMARK                            x       y       z     vdW  Elec       q    Type
REMARK                         _______ _______ _______ _____ _____    ______ ____
ROOT
ATOM      1  O   UNL     1       1.668   9.041  21.205  0.00  0.00    +0.000 OA
ATOM      2  C   UNL     1       1.022   9.258  20.166  0.00  0.00    +0.000 C 
ATOM      3  N   UNL     1       1.315   8.637  18.972  0.00  0.00    +0.000 N 
ATOM      4  N   UNL     1      -0.012  10.207  20.190  0.00  0.00    +0.000 N 
ATOM      5  C   UNL     1      -0.783  10.679  19.009  0.00  0.00    +0.000 C 
ATOM      6  C   UNL     1      -1.830  11.804  19.295  0.00  0.00    +0.000 C 
ATOM      7  C   UNL     1      -1.209  12.859  20.249  0.00  0.00    +0.000 C 
ATOM      8  C   UNL     1      -1.065  12.075  21.562  0.00  0.00    +0.000 C 
ATOM      9  C   UNL     1       0.013  11.015  21.426  0.00  0.00    +0.000 C 
ATOM     10  C   UNL     1       0.179  13.239  19.638  0.00  0.00    +0.000 C 
ATOM     11  C   UNL     1       0.628  14.440  20.369  0.00  0.00    +0.000 C 
ATOM     12  C   UNL     1      -0.311  15.382  19.746  0.00  0.00    +0.000 A 
ATOM     13  C   UNL     1      -0.058  16.226  18.664  0.00  0.00    +0.000 A 
ATOM     14  C   UNL     1      -0.897  17.295  18.449  0.00  0.00    +0.000 A 
ATOM     15  C   UNL     1      -1.861  17.559  19.418  0.00  0.00    +0.000 A 
ATOM     16  C   UNL     1      -2.206  16.535  20.335  0.00  0.00    +0.000 A 
ATOM     17 BR   UNL     1      -2.843  17.111  22.042  0.00  0.00    +0.000 Br
ATOM     18  C   UNL     1      -1.581  15.300  20.236  0.00  0.00    +0.000 A 
ATOM     19  O   UNL     1      -2.079  14.048  20.575  0.00  0.00    +0.000 OA
ATOM     20  H   UNL     1       1.042   9.106  18.125  0.00  0.00    +0.000 HD
ENDROOT
BRANCH   3  21
ATOM     21  C   UNL     1       2.287   7.592  18.849  0.00  0.00    +0.000 A 
ATOM     22  C   UNL     1       2.345   6.503  19.732  0.00  0.00    +0.000 A 
ATOM     23  C   UNL     1       3.324   5.508  19.623  0.00  0.00    +0.000 A 
ATOM     24  C   UNL     1       4.273   5.560  18.598  0.00  0.00    +0.000 A 
ATOM     25  C   UNL     1       4.205   6.624  17.686  0.00  0.00    +0.000 A 
ATOM     26  C   UNL     1       3.220   7.628  17.805  0.00  0.00    +0.000 A 
BRANCH  24  27
ATOM     27  C   UNL     1       5.333   4.487  18.485  0.00  0.00    +0.000 C 
ATOM     28  F   UNL     1       5.076   3.380  19.239  0.00  0.00    +0.000 F 
ATOM     29  F   UNL     1       5.486   4.036  17.209  0.00  0.00    +0.000 F 
ATOM     30  F   UNL     1       6.564   4.921  18.877  0.00  0.00    +0.000 F 
ENDBRANCH  24  27
ENDBRANCH   3  21
BRANCH  11  31
ATOM     31  O   UNL     1       1.972  14.801  20.202  0.00  0.00    +0.000 OA
ATOM     32  H   UNL     1       2.190  14.520  19.295  0.00  0.00    +0.000 HD
ENDBRANCH  11  31
TORSDOF 3
ENDMDL
