MODEL 1
REMARK VINA RESULT:      -6.2      0.000      0.000
REMARK  Name = 
REMARK  13 active torsions:
REMARK  status: ('A' for Active; 'I' for Inactive)
REMARK    1  A    between atoms: C_2  and  C_3
REMARK    2  A    between atoms: C_2  and  C_4
REMARK    3  A    between atoms: C_7  and  C_8
REMARK    4  A    between atoms: C_15  and  C_16
REMARK    5  A    between atoms: C_15  and  C_17
REMARK    6  A    between atoms: C_20  and  C_21
REMARK    7  A    between atoms: C_21  and  O_23
REMARK    8  A    between atoms: O_23  and  C_24
REMARK    9  A    between atoms: C_27  and  C_28
REMARK   10  A    between atoms: C_29  and  C_30
REMARK   11  A    between atoms: C_29  and  C_31
REMARK   12  A    between atoms: C_31  and  C_32
REMARK   13  A    between atoms: C_32  and  C_33
REMARK                            x       y       z     vdW  Elec       q    Type
REMARK                         _______ _______ _______ _____ _____    ______ ____
ROOT
ATOM      1  C   UNL     1      -0.291  11.084  19.386  0.00  0.00    +0.000 C 
ATOM      2  C   UNL     1       0.204  12.482  19.038  0.00  0.00    +0.000 C 
ATOM      3  C   UNL     1      -0.908  13.454  19.508  0.00  0.00    +0.000 C 
ATOM      4  C   UNL     1      -1.205  13.354  21.072  0.00  0.00    +0.000 C 
ATOM      5  C   UNL     1      -0.013  14.164  21.655  0.00  0.00    +0.000 C 
ATOM      6  C   UNL     1      -1.297  11.741  21.500  0.00  0.00    +0.000 C 
ATOM      7  C   UNL     1      -1.579  11.521  22.971  0.00  0.00    +0.000 C 
ATOM      8  C   UNL     1      -2.785  12.272  23.366  0.00  0.00    +0.000 C 
ATOM      9  C   UNL     1      -3.244  13.400  22.798  0.00  0.00    +0.000 C 
ATOM     10  C   UNL     1      -4.373  14.067  23.599  0.00  0.00    +0.000 C 
ATOM     11  C   UNL     1      -5.701  13.651  22.996  0.00  0.00    +0.000 C 
ATOM     12  C   UNL     1      -6.920  14.536  23.282  0.00  0.00    +0.000 C 
ATOM     13  C   UNL     1      -7.816  13.728  24.253  0.00  0.00    +0.000 C 
ATOM     14  C   UNL     1      -7.545  14.818  21.894  0.00  0.00    +0.000 C 
ATOM     15  C   UNL     1      -6.703  15.914  23.934  0.00  0.00    +0.000 C 
ATOM     16  C   UNL     1      -5.346  16.226  24.523  0.00  0.00    +0.000 C 
ATOM     17  C   UNL     1      -4.118  15.551  23.885  0.00  0.00    +0.000 C 
ATOM     18  C   UNL     1      -3.644  16.287  22.615  0.00  0.00    +0.000 C 
ATOM     19  C   UNL     1      -2.385  15.602  22.029  0.00  0.00    +0.000 C 
ATOM     20  C   UNL     1      -2.607  14.116  21.567  0.00  0.00    +0.000 C 
ATOM     21  C   UNL     1      -3.553  14.237  20.333  0.00  0.00    +0.000 C 
ATOM     22  C   UNL     1      -0.133  10.782  20.927  0.00  0.00    +0.000 C 
ATOM     23  C   UNL     1       1.144  11.154  21.723  0.00  0.00    +0.000 C 
ENDROOT
BRANCH   1  25
ATOM     24  C   UNL     1       0.502   9.378  17.670  0.00  0.00    +0.000 C 
ATOM     25  C   UNL     1      -0.479  10.070  18.256  0.00  0.00    +0.000 C 
ATOM     26  C   UNL     1      -1.904  10.006  17.692  0.00  0.00    +0.000 C 
ENDBRANCH   1  25
BRANCH  17  27
ATOM     27  C   UNL     1      -3.030  15.641  24.977  0.00  0.00    +0.000 C 
ATOM     28  O   UNL     1      -2.675  14.737  25.710  0.00  0.00    +0.000 OA
BRANCH  27  29
ATOM     29  O   UNL     1      -2.535  16.923  25.062  0.00  0.00    +0.000 OA
ATOM     30  C   UNL     1      -1.499  17.083  26.018  0.00  0.00    +0.000 C 
ENDBRANCH  27  29
ENDBRANCH  17  27
BRANCH  22  31
ATOM     31  C   UNL     1      -0.215   9.221  21.131  0.00  0.00    +0.000 C 
BRANCH  31  32
ATOM     32  C   UNL     1       1.118   8.584  21.718  0.00  0.00    +0.000 C 
BRANCH  32  33
ATOM     33  C   UNL     1       1.745   7.699  20.653  0.00  0.00    +0.000 C 
ATOM     34  N   UNL     1       2.265   6.965  19.770  0.00  0.00    +0.000 NA
ENDBRANCH  32  33
ENDBRANCH  31  32
ENDBRANCH  22  31
TORSDOF 6
ENDMDL
MODEL 2
REMARK VINA RESULT:      -6.1      2.410      3.898
REMARK  Name = 
REMARK  13 active torsions:
REMARK  status: ('A' for Active; 'I' for Inactive)
REMARK    1  A    between atoms: C_2  and  C_3
REMARK    2  A    between atoms: C_2  and  C_4
REMARK    3  A    between atoms: C_7  and  C_8
REMARK    4  A    between atoms: C_15  and  C_16
REMARK    5  A    between atoms: C_15  and  C_17
REMARK    6  A    between atoms: C_20  and  C_21
REMARK    7  A    between atoms: C_21  and  O_23
REMARK    8  A    between atoms: O_23  and  C_24
REMARK    9  A    between atoms: C_27  and  C_28
REMARK   10  A    between atoms: C_29  and  C_30
REMARK   11  A    between atoms: C_29  and  C_31
REMARK   12  A    between atoms: C_31  and  C_32
REMARK   13  A    between atoms: C_32  and  C_33
REMARK                            x       y       z     vdW  Elec       q    Type
REMARK                         _______ _______ _______ _____ _____    ______ ____
ROOT
ATOM      1  C   UNL     1       0.659  12.484  19.608  0.00  0.00    +0.000 C 
ATOM      2  C   UNL     1       1.095  12.412  21.066  0.00  0.00    +0.000 C 
ATOM      3  C   UNL     1       0.088  13.289  21.852  0.00  0.00    +0.000 C 
ATOM      4  C   UNL     1      -1.421  12.789  21.708  0.00  0.00    +0.000 C 
ATOM      5  C   UNL     1      -1.434  11.589  22.695  0.00  0.00    +0.000 C 
ATOM      6  C   UNL     1      -1.722  12.444  20.100  0.00  0.00    +0.000 C 
ATOM      7  C   UNL     1      -3.132  11.960  19.840  0.00  0.00    +0.000 C 
ATOM      8  C   UNL     1      -4.101  12.923  20.394  0.00  0.00    +0.000 C 
ATOM      9  C   UNL     1      -3.900  13.747  21.436  0.00  0.00    +0.000 C 
ATOM     10  C   UNL     1      -5.184  14.440  21.918  0.00  0.00    +0.000 C 
ATOM     11  C   UNL     1      -5.247  15.823  21.299  0.00  0.00    +0.000 C 
ATOM     12  C   UNL     1      -6.136  16.868  21.983  0.00  0.00    +0.000 C 
ATOM     13  C   UNL     1      -7.352  17.074  21.045  0.00  0.00    +0.000 C 
ATOM     14  C   UNL     1      -5.229  18.110  22.163  0.00  0.00    +0.000 C 
ATOM     15  C   UNL     1      -6.709  16.559  23.378  0.00  0.00    +0.000 C 
ATOM     16  C   UNL     1      -6.614  15.143  23.899  0.00  0.00    +0.000 C 
ATOM     17  C   UNL     1      -5.426  14.286  23.425  0.00  0.00    +0.000 C 
ATOM     18  C   UNL     1      -4.140  14.580  24.225  0.00  0.00    +0.000 C 
ATOM     19  C   UNL     1      -2.983  13.670  23.745  0.00  0.00    +0.000 C 
ATOM     20  C   UNL     1      -2.571  13.877  22.241  0.00  0.00    +0.000 C 
ATOM     21  C   UNL     1      -1.938  15.302  22.212  0.00  0.00    +0.000 C 
ATOM     22  C   UNL     1      -0.600  11.573  19.335  0.00  0.00    +0.000 C 
ATOM     23  C   UNL     1      -0.728  10.136  19.902  0.00  0.00    +0.000 C 
ENDROOT
BRANCH   1  25
ATOM     24  C   UNL     1       2.582  12.339  17.944  0.00  0.00    +0.000 C 
ATOM     25  C   UNL     1       1.640  13.045  18.577  0.00  0.00    +0.000 C 
ATOM     26  C   UNL     1       1.591  14.569  18.418  0.00  0.00    +0.000 C 
ENDBRANCH   1  25
BRANCH  17  27
ATOM     27  C   UNL     1      -5.882  12.835  23.684  0.00  0.00    +0.000 C 
ATOM     28  O   UNL     1      -5.595  12.156  24.653  0.00  0.00    +0.000 OA
BRANCH  27  29
ATOM     29  O   UNL     1      -6.629  12.367  22.627  0.00  0.00    +0.000 OA
ATOM     30  C   UNL     1      -7.899  11.853  22.996  0.00  0.00    +0.000 C 
ENDBRANCH  27  29
ENDBRANCH  17  27
BRANCH  22  31
ATOM     31  C   UNL     1      -0.703  11.332  17.781  0.00  0.00    +0.000 C 
BRANCH  31  32
ATOM     32  C   UNL     1      -1.539  10.036  17.390  0.00  0.00    +0.000 C 
BRANCH  32  33
ATOM     33  C   UNL     1      -2.421  10.368  16.198  0.00  0.00    +0.000 C 
ATOM     34  N   UNL     1      -3.153  10.643  15.209  0.00  0.00    +0.000 NA
ENDBRANCH  32  33
ENDBRANCH  31  32
ENDBRANCH  22  31
TORSDOF 6
ENDMDL
MODEL 3
REMARK VINA RESULT:      -5.6      6.707      8.953
REMARK  Name = 
REMARK  13 active torsions:
REMARK  status: ('A' for Active; 'I' for Inactive)
REMARK    1  A    between atoms: C_2  and  C_3
REMARK    2  A    between atoms: C_2  and  C_4
REMARK    3  A    between atoms: C_7  and  C_8
REMARK    4  A    between atoms: C_15  and  C_16
REMARK    5  A    between atoms: C_15  and  C_17
REMARK    6  A    between atoms: C_20  and  C_21
REMARK    7  A    between atoms: C_21  and  O_23
REMARK    8  A    between atoms: O_23  and  C_24
REMARK    9  A    between atoms: C_27  and  C_28
REMARK   10  A    between atoms: C_29  and  C_30
REMARK   11  A    between atoms: C_29  and  C_31
REMARK   12  A    between atoms: C_31  and  C_32
REMARK   13  A    between atoms: C_32  and  C_33
REMARK                            x       y       z     vdW  Elec       q    Type
REMARK                         _______ _______ _______ _____ _____    ______ ____
ROOT
ATOM      1  C   UNL     1       9.549  13.159  20.054  0.00  0.00    +0.000 C 
ATOM      2  C   UNL     1       9.701  14.255  19.007  0.00  0.00    +0.000 C 
ATOM      3  C   UNL     1       8.266  14.574  18.516  0.00  0.00    +0.000 C 
ATOM      4  C   UNL     1       7.302  15.068  19.687  0.00  0.00    +0.000 C 
ATOM      5  C   UNL     1       7.759  16.545  19.848  0.00  0.00    +0.000 C 
ATOM      6  C   UNL     1       7.507  14.068  21.011  0.00  0.00    +0.000 C 
ATOM      7  C   UNL     1       6.636  14.442  22.191  0.00  0.00    +0.000 C 
ATOM      8  C   UNL     1       5.226  14.520  21.765  0.00  0.00    +0.000 C 
ATOM      9  C   UNL     1       4.780  14.817  20.533  0.00  0.00    +0.000 C 
ATOM     10  C   UNL     1       3.264  15.063  20.480  0.00  0.00    +0.000 C 
ATOM     11  C   UNL     1       2.585  13.785  20.026  0.00  0.00    +0.000 C 
ATOM     12  C   UNL     1       1.176  13.901  19.432  0.00  0.00    +0.000 C 
ATOM     13  C   UNL     1       0.216  13.300  20.488  0.00  0.00    +0.000 C 
ATOM     14  C   UNL     1       1.242  13.130  18.090  0.00  0.00    +0.000 C 
ATOM     15  C   UNL     1       0.626  15.297  19.087  0.00  0.00    +0.000 C 
ATOM     16  C   UNL     1       1.367  16.510  19.603  0.00  0.00    +0.000 C 
ATOM     17  C   UNL     1       2.889  16.387  19.803  0.00  0.00    +0.000 C 
ATOM     18  C   UNL     1       3.666  16.575  18.484  0.00  0.00    +0.000 C 
ATOM     19  C   UNL     1       5.191  16.484  18.736  0.00  0.00    +0.000 C 
ATOM     20  C   UNL     1       5.679  15.096  19.290  0.00  0.00    +0.000 C 
ATOM     21  C   UNL     1       5.455  14.111  18.101  0.00  0.00    +0.000 C 
ATOM     22  C   UNL     1       9.031  13.738  21.427  0.00  0.00    +0.000 C 
ATOM     23  C   UNL     1       9.588  15.047  22.043  0.00  0.00    +0.000 C 
ENDROOT
BRANCH   1  25
ATOM     24  C   UNL     1      11.562  11.611  19.861  0.00  0.00    +0.000 C 
ATOM     25  C   UNL     1      10.243  11.816  19.816  0.00  0.00    +0.000 C 
ATOM     26  C   UNL     1       9.310  10.696  19.338  0.00  0.00    +0.000 C 
ENDBRANCH   1  25
BRANCH  17  27
ATOM     27  C   UNL     1       3.234  17.531  20.780  0.00  0.00    +0.000 C 
ATOM     28  O   UNL     1       3.657  18.631  20.475  0.00  0.00    +0.000 OA
BRANCH  27  29
ATOM     29  O   UNL     1       3.055  17.124  22.083  0.00  0.00    +0.000 OA
ATOM     30  C   UNL     1       2.582  18.144  22.950  0.00  0.00    +0.000 C 
ENDBRANCH  27  29
ENDBRANCH  17  27
BRANCH  22  31
ATOM     31  C   UNL     1       9.337  12.679  22.553  0.00  0.00    +0.000 C 
BRANCH  31  32
ATOM     32  C   UNL     1       8.178  11.608  22.752  0.00  0.00    +0.000 C 
BRANCH  32  33
ATOM     33  C   UNL     1       7.673  11.698  24.183  0.00  0.00    +0.000 C 
ATOM     34  N   UNL     1       7.254  11.773  25.369  0.00  0.00    +0.000 NA
ENDBRANCH  32  33
ENDBRANCH  31  32
ENDBRANCH  22  31
TORSDOF 6
ENDMDL
MODEL 4
REMARK VINA RESULT:      -5.5      1.988      3.558
REMARK  Name = 
REMARK  13 active torsions:
REMARK  status: ('A' for Active; 'I' for Inactive)
REMARK    1  A    between atoms: C_2  and  C_3
REMARK    2  A    between atoms: C_2  and  C_4
REMARK    3  A    between atoms: C_7  and  C_8
REMARK    4  A    between atoms: C_15  and  C_16
REMARK    5  A    between atoms: C_15  and  C_17
REMARK    6  A    between atoms: C_20  and  C_21
REMARK    7  A    between atoms: C_21  and  O_23
REMARK    8  A    between atoms: O_23  and  C_24
REMARK    9  A    between atoms: C_27  and  C_28
REMARK   10  A    between atoms: C_29  and  C_30
REMARK   11  A    between atoms: C_29  and  C_31
REMARK   12  A    between atoms: C_31  and  C_32
REMARK   13  A    between atoms: C_32  and  C_33
REMARK                            x       y       z     vdW  Elec       q    Type
REMARK                         _______ _______ _______ _____ _____    ______ ____
ROOT
ATOM      1  C   UNL     1       0.520  13.038  19.998  0.00  0.00    +0.000 C 
ATOM      2  C   UNL     1       0.904  13.171  21.466  0.00  0.00    +0.000 C 
ATOM      3  C   UNL     1      -0.206  14.034  22.117  0.00  0.00    +0.000 C 
ATOM      4  C   UNL     1      -1.658  13.383  21.989  0.00  0.00    +0.000 C 
ATOM      5  C   UNL     1      -1.602  12.305  23.108  0.00  0.00    +0.000 C 
ATOM      6  C   UNL     1      -1.865  12.832  20.425  0.00  0.00    +0.000 C 
ATOM      7  C   UNL     1      -3.215  12.193  20.183  0.00  0.00    +0.000 C 
ATOM      8  C   UNL     1      -4.287  13.119  20.594  0.00  0.00    +0.000 C 
ATOM      9  C   UNL     1      -4.200  14.070  21.539  0.00  0.00    +0.000 C 
ATOM     10  C   UNL     1      -5.559  14.690  21.902  0.00  0.00    +0.000 C 
ATOM     11  C   UNL     1      -5.720  15.983  21.126  0.00  0.00    +0.000 C 
ATOM     12  C   UNL     1      -6.725  17.011  21.659  0.00  0.00    +0.000 C 
ATOM     13  C   UNL     1      -7.916  16.996  20.670  0.00  0.00    +0.000 C 
ATOM     14  C   UNL     1      -5.939  18.344  21.720  0.00  0.00    +0.000 C 
ATOM     15  C   UNL     1      -7.321  16.810  23.064  0.00  0.00    +0.000 C 
ATOM     16  C   UNL     1      -7.120  15.476  23.747  0.00  0.00    +0.000 C 
ATOM     17  C   UNL     1      -5.843  14.685  23.409  0.00  0.00    +0.000 C 
ATOM     18  C   UNL     1      -4.620  15.185  24.205  0.00  0.00    +0.000 C 
ATOM     19  C   UNL     1      -3.369  14.339  23.866  0.00  0.00    +0.000 C 
ATOM     20  C   UNL     1      -2.920  14.413  22.361  0.00  0.00    +0.000 C 
ATOM     21  C   UNL     1      -2.416  15.878  22.185  0.00  0.00    +0.000 C 
ATOM     22  C   UNL     1      -0.641  11.988  19.797  0.00  0.00    +0.000 C 
ATOM     23  C   UNL     1      -0.663  10.619  20.523  0.00  0.00    +0.000 C 
ENDROOT
BRANCH   1  25
ATOM     24  C   UNL     1       2.516  12.888  18.422  0.00  0.00    +0.000 C 
ATOM     25  C   UNL     1       1.487  13.567  18.936  0.00  0.00    +0.000 C 
ATOM     26  C   UNL     1       1.301  15.050  18.593  0.00  0.00    +0.000 C 
ENDBRANCH   1  25
BRANCH  17  27
ATOM     27  C   UNL     1      -6.178  13.237  23.821  0.00  0.00    +0.000 C 
ATOM     28  O   UNL     1      -5.374  12.374  24.126  0.00  0.00    +0.000 OA
BRANCH  27  29
ATOM     29  O   UNL     1      -7.534  13.013  23.745  0.00  0.00    +0.000 OA
ATOM     30  C   UNL     1      -7.903  11.981  22.844  0.00  0.00    +0.000 C 
ENDBRANCH  27  29
ENDBRANCH  17  27
BRANCH  22  31
ATOM     31  C   UNL     1      -0.662  11.566  18.279  0.00  0.00    +0.000 C 
BRANCH  31  32
ATOM     32  C   UNL     1      -0.592   9.993  18.054  0.00  0.00    +0.000 C 
BRANCH  32  33
ATOM     33  C   UNL     1       0.852   9.604  17.783  0.00  0.00    +0.000 C 
ATOM     34  N   UNL     1       2.050   9.281  17.558  0.00  0.00    +0.000 NA
ENDBRANCH  32  33
ENDBRANCH  31  32
ENDBRANCH  22  31
TORSDOF 6
ENDMDL
MODEL 5
REMARK VINA RESULT:      -5.5      6.637      8.768
REMARK  Name = 
REMARK  13 active torsions:
REMARK  status: ('A' for Active; 'I' for Inactive)
REMARK    1  A    between atoms: C_2  and  C_3
REMARK    2  A    between atoms: C_2  and  C_4
REMARK    3  A    between atoms: C_7  and  C_8
REMARK    4  A    between atoms: C_15  and  C_16
REMARK    5  A    between atoms: C_15  and  C_17
REMARK    6  A    between atoms: C_20  and  C_21
REMARK    7  A    between atoms: C_21  and  O_23
REMARK    8  A    between atoms: O_23  and  C_24
REMARK    9  A    between atoms: C_27  and  C_28
REMARK   10  A    between atoms: C_29  and  C_30
REMARK   11  A    between atoms: C_29  and  C_31
REMARK   12  A    between atoms: C_31  and  C_32
REMARK   13  A    between atoms: C_32  and  C_33
REMARK                            x       y       z     vdW  Elec       q    Type
REMARK                         _______ _______ _______ _____ _____    ______ ____
ROOT
ATOM      1  C   UNL     1       9.186  13.893  19.270  0.00  0.00    +0.000 C 
ATOM      2  C   UNL     1       9.033  14.893  18.131  0.00  0.00    +0.000 C 
ATOM      3  C   UNL     1       7.512  14.995  17.856  0.00  0.00    +0.000 C 
ATOM      4  C   UNL     1       6.680  15.484  19.127  0.00  0.00    +0.000 C 
ATOM      5  C   UNL     1       6.960  17.012  19.098  0.00  0.00    +0.000 C 
ATOM      6  C   UNL     1       7.212  14.647  20.473  0.00  0.00    +0.000 C 
ATOM      7  C   UNL     1       6.489  15.029  21.747  0.00  0.00    +0.000 C 
ATOM      8  C   UNL     1       5.032  14.901  21.551  0.00  0.00    +0.000 C 
ATOM      9  C   UNL     1       4.370  15.025  20.389  0.00  0.00    +0.000 C 
ATOM     10  C   UNL     1       2.844  15.086  20.564  0.00  0.00    +0.000 C 
ATOM     11  C   UNL     1       2.276  13.700  20.326  0.00  0.00    +0.000 C 
ATOM     12  C   UNL     1       0.791  13.594  19.961  0.00  0.00    +0.000 C 
ATOM     13  C   UNL     1       0.089  12.990  21.202  0.00  0.00    +0.000 C 
ATOM     14  C   UNL     1       0.752  12.710  18.691  0.00  0.00    +0.000 C 
ATOM     15  C   UNL     1       0.018  14.877  19.605  0.00  0.00    +0.000 C 
ATOM     16  C   UNL     1       0.665  16.212  19.898  0.00  0.00    +0.000 C 
ATOM     17  C   UNL     1       2.202  16.286  19.857  0.00  0.00    +0.000 C 
ATOM     18  C   UNL     1       2.740  16.435  18.419  0.00  0.00    +0.000 C 
ATOM     19  C   UNL     1       4.283  16.547  18.426  0.00  0.00    +0.000 C 
ATOM     20  C   UNL     1       5.026  15.284  18.998  0.00  0.00    +0.000 C 
ATOM     21  C   UNL     1       4.755  14.171  17.941  0.00  0.00    +0.000 C 
ATOM     22  C   UNL     1       8.811  14.538  20.660  0.00  0.00    +0.000 C 
ATOM     23  C   UNL     1       9.280  15.956  21.075  0.00  0.00    +0.000 C 
ENDROOT
BRANCH   1  25
ATOM     24  C   UNL     1       9.495  11.407  18.814  0.00  0.00    +0.000 C 
ATOM     25  C   UNL     1      10.004  12.623  19.026  0.00  0.00    +0.000 C 
ATOM     26  C   UNL     1      11.517  12.800  19.207  0.00  0.00    +0.000 C 
ENDBRANCH   1  25
BRANCH  17  27
ATOM     27  C   UNL     1       2.540  17.551  20.674  0.00  0.00    +0.000 C 
ATOM     28  O   UNL     1       2.871  18.631  20.219  0.00  0.00    +0.000 OA
BRANCH  27  29
ATOM     29  O   UNL     1       2.475  17.287  22.024  0.00  0.00    +0.000 OA
ATOM     30  C   UNL     1       3.352  18.075  22.813  0.00  0.00    +0.000 C 
ENDBRANCH  27  29
ENDBRANCH  17  27
BRANCH  22  31
ATOM     31  C   UNL     1       9.419  13.635  21.799  0.00  0.00    +0.000 C 
BRANCH  31  32
ATOM     32  C   UNL     1       8.495  12.404  22.199  0.00  0.00    +0.000 C 
BRANCH  32  33
ATOM     33  C   UNL     1       8.455  12.297  23.715  0.00  0.00    +0.000 C 
ATOM     34  N   UNL     1       8.422  12.208  24.972  0.00  0.00    +0.000 NA
ENDBRANCH  32  33
ENDBRANCH  31  32
ENDBRANCH  22  31
TORSDOF 6
ENDMDL
MODEL 6
REMARK VINA RESULT:      -5.3      8.178     12.051
REMARK  Name = 
REMARK  13 active torsions:
REMARK  status: ('A' for Active; 'I' for Inactive)
REMARK    1  A    between atoms: C_2  and  C_3
REMARK    2  A    between atoms: C_2  and  C_4
REMARK    3  A    between atoms: C_7  and  C_8
REMARK    4  A    between atoms: C_15  and  C_16
REMARK    5  A    between atoms: C_15  and  C_17
REMARK    6  A    between atoms: C_20  and  C_21
REMARK    7  A    between atoms: C_21  and  O_23
REMARK    8  A    between atoms: O_23  and  C_24
REMARK    9  A    between atoms: C_27  and  C_28
REMARK   10  A    between atoms: C_29  and  C_30
REMARK   11  A    between atoms: C_29  and  C_31
REMARK   12  A    between atoms: C_31  and  C_32
REMARK   13  A    between atoms: C_32  and  C_33
REMARK                            x       y       z     vdW  Elec       q    Type
REMARK                         _______ _______ _______ _____ _____    ______ ____
ROOT
ATOM      1  C   UNL     1       2.892  15.277  21.225  0.00  0.00    +0.000 C 
ATOM      2  C   UNL     1       3.483  15.684  22.569  0.00  0.00    +0.000 C 
ATOM      3  C   UNL     1       4.936  15.148  22.574  0.00  0.00    +0.000 C 
ATOM      4  C   UNL     1       5.824  15.739  21.386  0.00  0.00    +0.000 C 
ATOM      5  C   UNL     1       6.162  17.151  21.941  0.00  0.00    +0.000 C 
ATOM      6  C   UNL     1       4.936  15.680  19.971  0.00  0.00    +0.000 C 
ATOM      7  C   UNL     1       5.682  16.216  18.768  0.00  0.00    +0.000 C 
ATOM      8  C   UNL     1       6.982  15.532  18.640  0.00  0.00    +0.000 C 
ATOM      9  C   UNL     1       7.702  14.993  19.639  0.00  0.00    +0.000 C 
ATOM     10  C   UNL     1       9.119  14.581  19.210  0.00  0.00    +0.000 C 
ATOM     11  C   UNL     1       9.115  13.097  18.896  0.00  0.00    +0.000 C 
ATOM     12  C   UNL     1      10.459  12.360  18.927  0.00  0.00    +0.000 C 
ATOM     13  C   UNL     1      10.803  12.038  17.452  0.00  0.00    +0.000 C 
ATOM     14  C   UNL     1      10.218  11.126  19.829  0.00  0.00    +0.000 C 
ATOM     15  C   UNL     1      11.688  13.078  19.515  0.00  0.00    +0.000 C 
ATOM     16  C   UNL     1      11.597  14.564  19.776  0.00  0.00    +0.000 C 
ATOM     17  C   UNL     1      10.215  15.146  20.123  0.00  0.00    +0.000 C 
ATOM     18  C   UNL     1       9.855  14.946  21.610  0.00  0.00    +0.000 C 
ATOM     19  C   UNL     1       8.479  15.580  21.925  0.00  0.00    +0.000 C 
ATOM     20  C   UNL     1       7.274  14.947  21.137  0.00  0.00    +0.000 C 
ATOM     21  C   UNL     1       7.146  13.509  21.726  0.00  0.00    +0.000 C 
ATOM     22  C   UNL     1       3.414  16.206  20.060  0.00  0.00    +0.000 C 
ATOM     23  C   UNL     1       3.512  17.746  20.201  0.00  0.00    +0.000 C 
ENDROOT
BRANCH   1  25
ATOM     24  C   UNL     1       0.509  14.625  21.841  0.00  0.00    +0.000 C 
ATOM     25  C   UNL     1       1.659  14.373  21.210  0.00  0.00    +0.000 C 
ATOM     26  C   UNL     1       1.877  13.015  20.531  0.00  0.00    +0.000 C 
ENDBRANCH   1  25
BRANCH  17  27
ATOM     27  C   UNL     1      10.353  16.652  19.817  0.00  0.00    +0.000 C 
ATOM     28  O   UNL     1      10.486  17.541  20.639  0.00  0.00    +0.000 OA
BRANCH  27  29
ATOM     29  O   UNL     1      10.245  16.883  18.465  0.00  0.00    +0.000 OA
ATOM     30  C   UNL     1       9.668  18.136  18.133  0.00  0.00    +0.000 C 
ENDBRANCH  27  29
ENDBRANCH  17  27
BRANCH  22  31
ATOM     31  C   UNL     1       2.442  16.041  18.830  0.00  0.00    +0.000 C 
BRANCH  31  32
ATOM     32  C   UNL     1       1.220  17.059  18.842  0.00  0.00    +0.000 C 
BRANCH  32  33
ATOM     33  C   UNL     1       1.192  17.801  17.515  0.00  0.00    +0.000 C 
ATOM     34  N   UNL     1       1.168  18.416  16.415  0.00  0.00    +0.000 NA
ENDBRANCH  32  33
ENDBRANCH  31  32
ENDBRANCH  22  31
TORSDOF 6
ENDMDL
MODEL 7
REMARK VINA RESULT:      -5.3      7.085      9.240
REMARK  Name = 
REMARK  13 active torsions:
REMARK  status: ('A' for Active; 'I' for Inactive)
REMARK    1  A    between atoms: C_2  and  C_3
REMARK    2  A    between atoms: C_2  and  C_4
REMARK    3  A    between atoms: C_7  and  C_8
REMARK    4  A    between atoms: C_15  and  C_16
REMARK    5  A    between atoms: C_15  and  C_17
REMARK    6  A    between atoms: C_20  and  C_21
REMARK    7  A    between atoms: C_21  and  O_23
REMARK    8  A    between atoms: O_23  and  C_24
REMARK    9  A    between atoms: C_27  and  C_28
REMARK   10  A    between atoms: C_29  and  C_30
REMARK   11  A    between atoms: C_29  and  C_31
REMARK   12  A    between atoms: C_31  and  C_32
REMARK   13  A    between atoms: C_32  and  C_33
REMARK                            x       y       z     vdW  Elec       q    Type
REMARK                         _______ _______ _______ _____ _____    ______ ____
ROOT
ATOM      1  C   UNL     1       9.789  14.599  19.065  0.00  0.00    +0.000 C 
ATOM      2  C   UNL     1       9.530  15.676  18.019  0.00  0.00    +0.000 C 
ATOM      3  C   UNL     1       8.001  15.665  17.769  0.00  0.00    +0.000 C 
ATOM      4  C   UNL     1       7.151  15.967  19.085  0.00  0.00    +0.000 C 
ATOM      5  C   UNL     1       7.296  17.512  19.187  0.00  0.00    +0.000 C 
ATOM      6  C   UNL     1       7.778  15.069  20.348  0.00  0.00    +0.000 C 
ATOM      7  C   UNL     1       7.046  15.273  21.657  0.00  0.00    +0.000 C 
ATOM      8  C   UNL     1       5.603  15.034  21.465  0.00  0.00    +0.000 C 
ATOM      9  C   UNL     1       4.912  15.198  20.324  0.00  0.00    +0.000 C 
ATOM     10  C   UNL     1       3.391  15.108  20.518  0.00  0.00    +0.000 C 
ATOM     11  C   UNL     1       2.942  13.703  20.165  0.00  0.00    +0.000 C 
ATOM     12  C   UNL     1       1.466  13.497  19.807  0.00  0.00    +0.000 C 
ATOM     13  C   UNL     1       0.841  12.728  20.997  0.00  0.00    +0.000 C 
ATOM     14  C   UNL     1       1.483  12.726  18.465  0.00  0.00    +0.000 C 
ATOM     15  C   UNL     1       0.578  14.732  19.571  0.00  0.00    +0.000 C 
ATOM     16  C   UNL     1       1.109  16.089  19.974  0.00  0.00    +0.000 C 
ATOM     17  C   UNL     1       2.633  16.303  19.925  0.00  0.00    +0.000 C 
ATOM     18  C   UNL     1       3.131  16.622  18.500  0.00  0.00    +0.000 C 
ATOM     19  C   UNL     1       4.659  16.869  18.502  0.00  0.00    +0.000 C 
ATOM     20  C   UNL     1       5.519  15.633  18.955  0.00  0.00    +0.000 C 
ATOM     21  C   UNL     1       5.329  14.595  17.808  0.00  0.00    +0.000 C 
ATOM     22  C   UNL     1       9.383  15.087  20.510  0.00  0.00    +0.000 C 
ATOM     23  C   UNL     1       9.733  16.500  21.042  0.00  0.00    +0.000 C 
ENDROOT
BRANCH   1  25
ATOM     24  C   UNL     1      12.002  13.339  19.034  0.00  0.00    +0.000 C 
ATOM     25  C   UNL     1      10.711  13.433  18.704  0.00  0.00    +0.000 C 
ATOM     26  C   UNL     1      10.087  12.401  17.757  0.00  0.00    +0.000 C 
ENDBRANCH   1  25
BRANCH  17  27
ATOM     27  C   UNL     1       2.873  17.518  20.846  0.00  0.00    +0.000 C 
ATOM     28  O   UNL     1       3.228  18.627  20.491  0.00  0.00    +0.000 OA
BRANCH  27  29
ATOM     29  O   UNL     1       2.686  17.169  22.165  0.00  0.00    +0.000 OA
ATOM     30  C   UNL     1       3.614  17.763  23.059  0.00  0.00    +0.000 C 
ENDBRANCH  27  29
ENDBRANCH  17  27
BRANCH  22  31
ATOM     31  C   UNL     1      10.088  14.146  21.560  0.00  0.00    +0.000 C 
BRANCH  31  32
ATOM     32  C   UNL     1       9.106  13.088  22.227  0.00  0.00    +0.000 C 
BRANCH  32  33
ATOM     33  C   UNL     1       9.191  11.786  21.447  0.00  0.00    +0.000 C 
ATOM     34  N   UNL     1       9.261  10.706  20.801  0.00  0.00    +0.000 NA
ENDBRANCH  32  33
ENDBRANCH  31  32
ENDBRANCH  22  31
TORSDOF 6
ENDMDL
MODEL 8
REMARK VINA RESULT:      -5.2      7.782     11.596
REMARK  Name = 
REMARK  13 active torsions:
REMARK  status: ('A' for Active; 'I' for Inactive)
REMARK    1  A    between atoms: C_2  and  C_3
REMARK    2  A    between atoms: C_2  and  C_4
REMARK    3  A    between atoms: C_7  and  C_8
REMARK    4  A    between atoms: C_15  and  C_16
REMARK    5  A    between atoms: C_15  and  C_17
REMARK    6  A    between atoms: C_20  and  C_21
REMARK    7  A    between atoms: C_21  and  O_23
REMARK    8  A    between atoms: O_23  and  C_24
REMARK    9  A    between atoms: C_27  and  C_28
REMARK   10  A    between atoms: C_29  and  C_30
REMARK   11  A    between atoms: C_29  and  C_31
REMARK   12  A    between atoms: C_31  and  C_32
REMARK   13  A    between atoms: C_32  and  C_33
REMARK                            x       y       z     vdW  Elec       q    Type
REMARK                         _______ _______ _______ _____ _____    ______ ____
ROOT
ATOM      1  C   UNL     1       2.471  14.719  20.729  0.00  0.00    +0.000 C 
ATOM      2  C   UNL     1       2.947  15.818  21.670  0.00  0.00    +0.000 C 
ATOM      3  C   UNL     1       4.485  15.653  21.771  0.00  0.00    +0.000 C 
ATOM      4  C   UNL     1       5.220  15.786  20.361  0.00  0.00    +0.000 C 
ATOM      5  C   UNL     1       5.226  17.329  20.172  0.00  0.00    +0.000 C 
ATOM      6  C   UNL     1       4.376  14.893  19.228  0.00  0.00    +0.000 C 
ATOM      7  C   UNL     1       4.986  14.943  17.843  0.00  0.00    +0.000 C 
ATOM      8  C   UNL     1       6.408  14.558  17.910  0.00  0.00    +0.000 C 
ATOM      9  C   UNL     1       7.226  14.708  18.965  0.00  0.00    +0.000 C 
ATOM     10  C   UNL     1       8.702  14.441  18.630  0.00  0.00    +0.000 C 
ATOM     11  C   UNL     1       9.037  13.017  19.030  0.00  0.00    +0.000 C 
ATOM     12  C   UNL     1      10.513  12.670  19.256  0.00  0.00    +0.000 C 
ATOM     13  C   UNL     1      10.928  11.772  18.065  0.00  0.00    +0.000 C 
ATOM     14  C   UNL     1      10.555  11.982  20.643  0.00  0.00    +0.000 C 
ATOM     15  C   UNL     1      11.544  13.812  19.322  0.00  0.00    +0.000 C 
ATOM     16  C   UNL     1      11.117  15.194  18.884  0.00  0.00    +0.000 C 
ATOM     17  C   UNL     1       9.637  15.576  19.066  0.00  0.00    +0.000 C 
ATOM     18  C   UNL     1       9.325  16.027  20.508  0.00  0.00    +0.000 C 
ATOM     19  C   UNL     1       7.839  16.440  20.638  0.00  0.00    +0.000 C 
ATOM     20  C   UNL     1       6.813  15.283  20.354  0.00  0.00    +0.000 C 
ATOM     21  C   UNL     1       7.013  14.296  21.544  0.00  0.00    +0.000 C 
ATOM     22  C   UNL     1       2.773  15.078  19.222  0.00  0.00    +0.000 C 
ATOM     23  C   UNL     1       2.518  16.489  18.633  0.00  0.00    +0.000 C 
ENDROOT
BRANCH   1  25
ATOM     24  C   UNL     1       1.525  12.371  21.009  0.00  0.00    +0.000 C 
ATOM     25  C   UNL     1       1.475  13.683  21.255  0.00  0.00    +0.000 C 
ATOM     26  C   UNL     1       0.264  14.280  21.982  0.00  0.00    +0.000 C 
ENDBRANCH   1  25
BRANCH  17  27
ATOM     27  C   UNL     1       9.430  16.757  18.094  0.00  0.00    +0.000 C 
ATOM     28  O   UNL     1       8.359  17.221  17.748  0.00  0.00    +0.000 OA
BRANCH  27  29
ATOM     29  O   UNL     1      10.639  17.198  17.606  0.00  0.00    +0.000 OA
ATOM     30  C   UNL     1      10.802  18.607  17.644  0.00  0.00    +0.000 C 
ENDBRANCH  27  29
ENDBRANCH  17  27
BRANCH  22  31
ATOM     31  C   UNL     1       1.870  14.163  18.310  0.00  0.00    +0.000 C 
BRANCH  31  32
ATOM     32  C   UNL     1       0.351  14.631  18.243  0.00  0.00    +0.000 C 
BRANCH  32  33
ATOM     33  C   UNL     1      -0.536  13.398  18.201  0.00  0.00    +0.000 C 
ATOM     34  N   UNL     1      -1.272  12.375  18.166  0.00  0.00    +0.000 NA
ENDBRANCH  32  33
ENDBRANCH  31  32
ENDBRANCH  22  31
TORSDOF 6
ENDMDL
MODEL 9
REMARK VINA RESULT:      -5.2      4.597      8.060
REMARK  Name = 
REMARK  13 active torsions:
REMARK  status: ('A' for Active; 'I' for Inactive)
REMARK    1  A    between atoms: C_2  and  C_3
REMARK    2  A    between atoms: C_2  and  C_4
REMARK    3  A    between atoms: C_7  and  C_8
REMARK    4  A    between atoms: C_15  and  C_16
REMARK    5  A    between atoms: C_15  and  C_17
REMARK    6  A    between atoms: C_20  and  C_21
REMARK    7  A    between atoms: C_21  and  O_23
REMARK    8  A    between atoms: O_23  and  C_24
REMARK    9  A    between atoms: C_27  and  C_28
REMARK   10  A    between atoms: C_29  and  C_30
REMARK   11  A    between atoms: C_29  and  C_31
REMARK   12  A    between atoms: C_31  and  C_32
REMARK   13  A    between atoms: C_32  and  C_33
REMARK                            x       y       z     vdW  Elec       q    Type
REMARK                         _______ _______ _______ _____ _____    ______ ____
ROOT
ATOM      1  C   UNL     1       0.075  10.554  20.724  0.00  0.00    +0.000 C 
ATOM      2  C   UNL     1      -0.632  11.705  21.429  0.00  0.00    +0.000 C 
ATOM      3  C   UNL     1       0.417  12.839  21.546  0.00  0.00    +0.000 C 
ATOM      4  C   UNL     1       0.972  13.324  20.131  0.00  0.00    +0.000 C 
ATOM      5  C   UNL     1      -0.198  14.224  19.643  0.00  0.00    +0.000 C 
ATOM      6  C   UNL     1       1.324  11.980  19.201  0.00  0.00    +0.000 C 
ATOM      7  C   UNL     1       1.864  12.319  17.828  0.00  0.00    +0.000 C 
ATOM      8  C   UNL     1       3.019  13.227  17.956  0.00  0.00    +0.000 C 
ATOM      9  C   UNL     1       3.242  14.098  18.955  0.00  0.00    +0.000 C 
ATOM     10  C   UNL     1       4.399  15.068  18.665  0.00  0.00    +0.000 C 
ATOM     11  C   UNL     1       5.652  14.536  19.333  0.00  0.00    +0.000 C 
ATOM     12  C   UNL     1       6.787  15.529  19.609  0.00  0.00    +0.000 C 
ATOM     13  C   UNL     1       7.918  15.174  18.613  0.00  0.00    +0.000 C 
ATOM     14  C   UNL     1       7.141  15.327  21.103  0.00  0.00    +0.000 C 
ATOM     15  C   UNL     1       6.515  17.035  19.442  0.00  0.00    +0.000 C 
ATOM     16  C   UNL     1       5.243  17.464  18.745  0.00  0.00    +0.000 C 
ATOM     17  C   UNL     1       4.018  16.540  18.863  0.00  0.00    +0.000 C 
ATOM     18  C   UNL     1       3.261  16.743  20.192  0.00  0.00    +0.000 C 
ATOM     19  C   UNL     1       2.015  15.827  20.251  0.00  0.00    +0.000 C 
ATOM     20  C   UNL     1       2.335  14.288  20.208  0.00  0.00    +0.000 C 
ATOM     21  C   UNL     1       3.048  14.008  21.566  0.00  0.00    +0.000 C 
ATOM     22  C   UNL     1       0.205  10.818  19.173  0.00  0.00    +0.000 C 
ATOM     23  C   UNL     1      -0.962  11.382  18.323  0.00  0.00    +0.000 C 
ENDROOT
BRANCH   1  25
ATOM     24  C   UNL     1      -0.769   8.297  21.547  0.00  0.00    +0.000 C 
ATOM     25  C   UNL     1       0.197   9.213  21.451  0.00  0.00    +0.000 C 
ATOM     26  C   UNL     1       1.500   9.037  22.241  0.00  0.00    +0.000 C 
ENDBRANCH   1  25
BRANCH  17  27
ATOM     27  C   UNL     1       3.118  16.958  17.681  0.00  0.00    +0.000 C 
ATOM     28  O   UNL     1       3.159  16.501  16.553  0.00  0.00    +0.000 OA
BRANCH  27  29
ATOM     29  O   UNL     1       2.275  17.981  18.052  0.00  0.00    +0.000 OA
ATOM     30  C   UNL     1       1.255  18.265  17.107  0.00  0.00    +0.000 C 
ENDBRANCH  27  29
ENDBRANCH  17  27
BRANCH  22  31
ATOM     31  C   UNL     1       0.504   9.442  18.466  0.00  0.00    +0.000 C 
BRANCH  31  32
ATOM     32  C   UNL     1       2.056   9.143  18.283  0.00  0.00    +0.000 C 
BRANCH  32  33
ATOM     33  C   UNL     1       2.349   7.751  18.817  0.00  0.00    +0.000 C 
ATOM     34  N   UNL     1       2.593   6.596  19.260  0.00  0.00    +0.000 NA
ENDBRANCH  32  33
ENDBRANCH  31  32
ENDBRANCH  22  31
TORSDOF 6
ENDMDL
