MODEL 1
REMARK VINA RESULT:      -8.5      0.000      0.000
REMARK  Name = 
REMARK  7 active torsions:
REMARK  status: ('A' for Active; 'I' for Inactive)
REMARK    1  A    between atoms: C_1  and  C_2
REMARK    2  A    between atoms: C_5  and  C_6
REMARK    3  A    between atoms: C_6  and  C_8
REMARK    4  A    between atoms: C_12  and  N_13
REMARK    5  A    between atoms: N_20  and  C_21
REMARK    6  A    between atoms: C_21  and  C_22
REMARK    7  A    between atoms: C_22  and  C_23
REMARK                            x       y       z     vdW  Elec       q    Type
REMARK                         _______ _______ _______ _____ _____    ______ ____
ROOT
ATOM      1  C   UNL     1       2.932   5.374  18.707  0.00  0.00    +0.000 A 
ATOM      2  C   UNL     1       3.911   5.460  17.697  0.00  0.00    +0.000 A 
ATOM      3  C   UNL     1       4.798   6.524  17.503  0.00  0.00    +0.000 A 
ATOM      4  C   UNL     1       5.743   6.262  16.488  0.00  0.00    +0.000 A 
ATOM      5  C   UNL     1       5.759   5.059  15.697  0.00  0.00    +0.000 A 
ATOM      6  C   UNL     1       4.820   4.003  15.832  0.00  0.00    +0.000 A 
ATOM      7  C   UNL     1       3.912   4.261  16.861  0.00  0.00    +0.000 A 
ATOM      8  N   UNL     1       2.869   3.526  17.296  0.00  0.00    +0.000 N 
ATOM      9  O   UNL     1       2.429   2.425  16.884  0.00  0.00    +0.000 OA
ATOM     10  N   UNL     1       2.278   4.167  18.393  0.00  0.00    +0.000 N 
ENDROOT
BRANCH   5  11
ATOM     11  N   UNL     1       6.821   4.921  14.685  0.00  0.00    +0.000 N 
ATOM     12  O   UNL     1       7.832   5.629  14.804  0.00  0.00    +0.000 OA
ATOM     13  O   UNL     1       6.648   4.098  13.774  0.00  0.00    +0.000 OA
ENDBRANCH   5  11
BRANCH   1  14
ATOM     14  C   UNL     1       2.617   6.283  19.807  0.00  0.00    +0.000 C 
ATOM     15  O   UNL     1       2.775   5.990  20.988  0.00  0.00    +0.000 OA
BRANCH  14  20
ATOM     16  C   UNL     1      -0.228  11.157  18.518  0.00  0.00    +0.000 C 
ATOM     17  C   UNL     1       0.607   9.957  18.860  0.00  0.00    +0.000 A 
ATOM     18  C   UNL     1       1.295   9.261  17.863  0.00  0.00    +0.000 A 
ATOM     19  C   UNL     1       2.030   8.116  18.179  0.00  0.00    +0.000 A 
ATOM     20  C   UNL     1       2.038   7.625  19.493  0.00  0.00    +0.000 A 
ATOM     21  C   UNL     1       1.407   8.354  20.506  0.00  0.00    +0.000 A 
ATOM     22  C   UNL     1       0.695   9.516  20.189  0.00  0.00    +0.000 A 
ENDBRANCH  14  20
ENDBRANCH   1  14
BRANCH  10  23
ATOM     23  C   UNL     1       1.104   3.600  19.048  0.00  0.00    +0.000 C 
BRANCH  23  24
ATOM     24  C   UNL     1       1.400   2.368  19.903  0.00  0.00    +0.000 C 
BRANCH  24  25
ATOM     25  C   UNL     1       2.510   2.639  20.892  0.00  0.00    +0.000 C 
ATOM     26  N   UNL     1       2.090   3.185  22.071  0.00  0.00    +0.000 N 
ATOM     27  O   UNL     1       3.694   2.404  20.693  0.00  0.00    +0.000 OA
ATOM     28  H   UNL     1       1.141   3.499  22.226  0.00  0.00    +0.000 HD
ATOM     29  H   UNL     1       2.797   3.438  22.750  0.00  0.00    +0.000 HD
ENDBRANCH  24  25
ENDBRANCH  23  24
ENDBRANCH  10  23
TORSDOF 6
ENDMDL
MODEL 2
REMARK VINA RESULT:      -8.3      0.284      1.140
REMARK  Name = 
REMARK  7 active torsions:
REMARK  status: ('A' for Active; 'I' for Inactive)
REMARK    1  A    between atoms: C_1  and  C_2
REMARK    2  A    between atoms: C_5  and  C_6
REMARK    3  A    between atoms: C_6  and  C_8
REMARK    4  A    between atoms: C_12  and  N_13
REMARK    5  A    between atoms: N_20  and  C_21
REMARK    6  A    between atoms: C_21  and  C_22
REMARK    7  A    between atoms: C_22  and  C_23
REMARK                            x       y       z     vdW  Elec       q    Type
REMARK                         _______ _______ _______ _____ _____    ______ ____
ROOT
ATOM      1  C   UNL     1       2.858   5.401  18.727  0.00  0.00    +0.000 A 
ATOM      2  C   UNL     1       3.846   5.481  17.726  0.00  0.00    +0.000 A 
ATOM      3  C   UNL     1       4.724   6.551  17.525  0.00  0.00    +0.000 A 
ATOM      4  C   UNL     1       5.682   6.283  16.523  0.00  0.00    +0.000 A 
ATOM      5  C   UNL     1       5.717   5.068  15.750  0.00  0.00    +0.000 A 
ATOM      6  C   UNL     1       4.787   4.006  15.892  0.00  0.00    +0.000 A 
ATOM      7  C   UNL     1       3.867   4.271  16.908  0.00  0.00    +0.000 A 
ATOM      8  N   UNL     1       2.826   3.532  17.344  0.00  0.00    +0.000 N 
ATOM      9  O   UNL     1       2.401   2.421  16.943  0.00  0.00    +0.000 OA
ATOM     10  N   UNL     1       2.218   4.184  18.424  0.00  0.00    +0.000 N 
ENDROOT
BRANCH   5  11
ATOM     11  N   UNL     1       6.791   4.925  14.751  0.00  0.00    +0.000 N 
ATOM     12  O   UNL     1       6.619   4.118  13.825  0.00  0.00    +0.000 OA
ATOM     13  O   UNL     1       7.804   5.626  14.888  0.00  0.00    +0.000 OA
ENDBRANCH   5  11
BRANCH   1  14
ATOM     14  C   UNL     1       2.523   6.323  19.810  0.00  0.00    +0.000 C 
ATOM     15  O   UNL     1       2.688   6.056  20.996  0.00  0.00    +0.000 OA
BRANCH  14  20
ATOM     16  C   UNL     1       0.782  11.716  18.628  0.00  0.00    +0.000 C 
ATOM     17  C   UNL     1       1.125  10.283  18.912  0.00  0.00    +0.000 A 
ATOM     18  C   UNL     1       0.914   9.739  20.183  0.00  0.00    +0.000 A 
ATOM     19  C   UNL     1       1.281   8.420  20.457  0.00  0.00    +0.000 A 
ATOM     20  C   UNL     1       1.914   7.647  19.472  0.00  0.00    +0.000 A 
ATOM     21  C   UNL     1       2.066   8.162  18.182  0.00  0.00    +0.000 A 
ATOM     22  C   UNL     1       1.672   9.475  17.905  0.00  0.00    +0.000 A 
ENDBRANCH  14  20
ENDBRANCH   1  14
BRANCH  10  23
ATOM     23  C   UNL     1       1.043   3.615  19.077  0.00  0.00    +0.000 C 
BRANCH  23  24
ATOM     24  C   UNL     1       1.344   2.406  19.963  0.00  0.00    +0.000 C 
BRANCH  24  25
ATOM     25  C   UNL     1       2.510   2.676  20.884  0.00  0.00    +0.000 C 
ATOM     26  N   UNL     1       2.162   3.244  22.077  0.00  0.00    +0.000 N 
ATOM     27  O   UNL     1       3.679   2.423  20.623  0.00  0.00    +0.000 OA
ATOM     28  H   UNL     1       1.228   3.573  22.279  0.00  0.00    +0.000 HD
ATOM     29  H   UNL     1       2.909   3.498  22.711  0.00  0.00    +0.000 HD
ENDBRANCH  24  25
ENDBRANCH  23  24
ENDBRANCH  10  23
TORSDOF 6
ENDMDL
MODEL 3
REMARK VINA RESULT:      -7.9      2.549      6.005
REMARK  Name = 
REMARK  7 active torsions:
REMARK  status: ('A' for Active; 'I' for Inactive)
REMARK    1  A    between atoms: C_1  and  C_2
REMARK    2  A    between atoms: C_5  and  C_6
REMARK    3  A    between atoms: C_6  and  C_8
REMARK    4  A    between atoms: C_12  and  N_13
REMARK    5  A    between atoms: N_20  and  C_21
REMARK    6  A    between atoms: C_21  and  C_22
REMARK    7  A    between atoms: C_22  and  C_23
REMARK                            x       y       z     vdW  Elec       q    Type
REMARK                         _______ _______ _______ _____ _____    ______ ____
ROOT
ATOM      1  C   UNL     1       4.650   5.068  18.470  0.00  0.00    +0.000 A 
ATOM      2  C   UNL     1       3.951   6.285  18.350  0.00  0.00    +0.000 A 
ATOM      3  C   UNL     1       4.371   7.404  17.623  0.00  0.00    +0.000 A 
ATOM      4  C   UNL     1       3.396   8.425  17.590  0.00  0.00    +0.000 A 
ATOM      5  C   UNL     1       2.132   8.351  18.276  0.00  0.00    +0.000 A 
ATOM      6  C   UNL     1       1.724   7.253  19.078  0.00  0.00    +0.000 A 
ATOM      7  C   UNL     1       2.683   6.239  19.074  0.00  0.00    +0.000 A 
ATOM      8  N   UNL     1       2.685   5.052  19.714  0.00  0.00    +0.000 N 
ATOM      9  O   UNL     1       1.835   4.550  20.490  0.00  0.00    +0.000 OA
ATOM     10  N   UNL     1       3.841   4.342  19.364  0.00  0.00    +0.000 N 
ENDROOT
BRANCH   5  11
ATOM     11  N   UNL     1       1.208   9.489  18.131  0.00  0.00    +0.000 N 
ATOM     12  O   UNL     1       0.131   9.293  17.548  0.00  0.00    +0.000 OA
ATOM     13  O   UNL     1       1.557  10.580  18.606  0.00  0.00    +0.000 OA
ENDBRANCH   5  11
BRANCH   1  14
ATOM     14  C   UNL     1       5.905   4.628  17.865  0.00  0.00    +0.000 C 
ATOM     15  O   UNL     1       6.901   4.337  18.519  0.00  0.00    +0.000 OA
BRANCH  14  20
ATOM     16  C   UNL     1       6.569   3.746  12.182  0.00  0.00    +0.000 C 
ATOM     17  C   UNL     1       6.354   4.080  13.630  0.00  0.00    +0.000 A 
ATOM     18  C   UNL     1       7.320   4.789  14.349  0.00  0.00    +0.000 A 
ATOM     19  C   UNL     1       7.138   5.054  15.707  0.00  0.00    +0.000 A 
ATOM     20  C   UNL     1       6.006   4.561  16.375  0.00  0.00    +0.000 A 
ATOM     21  C   UNL     1       5.006   3.910  15.648  0.00  0.00    +0.000 A 
ATOM     22  C   UNL     1       5.180   3.671  14.281  0.00  0.00    +0.000 A 
ENDBRANCH  14  20
ENDBRANCH   1  14
BRANCH  10  23
ATOM     23  C   UNL     1       4.114   3.026  19.936  0.00  0.00    +0.000 C 
BRANCH  23  24
ATOM     24  C   UNL     1       3.834   1.862  18.985  0.00  0.00    +0.000 C 
BRANCH  24  25
ATOM     25  C   UNL     1       2.489   2.012  18.313  0.00  0.00    +0.000 C 
ATOM     26  N   UNL     1       1.427   1.685  19.107  0.00  0.00    +0.000 N 
ATOM     27  O   UNL     1       2.323   2.391  17.162  0.00  0.00    +0.000 OA
ATOM     28  H   UNL     1       1.530   1.260  20.018  0.00  0.00    +0.000 HD
ATOM     29  H   UNL     1       0.504   1.715  18.691  0.00  0.00    +0.000 HD
ENDBRANCH  24  25
ENDBRANCH  23  24
ENDBRANCH  10  23
TORSDOF 6
ENDMDL
MODEL 4
REMARK VINA RESULT:      -7.8      3.514      7.504
REMARK  Name = 
REMARK  7 active torsions:
REMARK  status: ('A' for Active; 'I' for Inactive)
REMARK    1  A    between atoms: C_1  and  C_2
REMARK    2  A    between atoms: C_5  and  C_6
REMARK    3  A    between atoms: C_6  and  C_8
REMARK    4  A    between atoms: C_12  and  N_13
REMARK    5  A    between atoms: N_20  and  C_21
REMARK    6  A    between atoms: C_21  and  C_22
REMARK    7  A    between atoms: C_22  and  C_23
REMARK                            x       y       z     vdW  Elec       q    Type
REMARK                         _______ _______ _______ _____ _____    ______ ____
ROOT
ATOM      1  C   UNL     1       5.470   5.636  17.004  0.00  0.00    +0.000 A 
ATOM      2  C   UNL     1       4.547   4.951  17.817  0.00  0.00    +0.000 A 
ATOM      3  C   UNL     1       3.278   4.511  17.427  0.00  0.00    +0.000 A 
ATOM      4  C   UNL     1       2.640   3.745  18.426  0.00  0.00    +0.000 A 
ATOM      5  C   UNL     1       3.204   3.492  19.727  0.00  0.00    +0.000 A 
ATOM      6  C   UNL     1       4.458   3.994  20.163  0.00  0.00    +0.000 A 
ATOM      7  C   UNL     1       5.091   4.721  19.154  0.00  0.00    +0.000 A 
ATOM      8  N   UNL     1       6.275   5.366  19.169  0.00  0.00    +0.000 N 
ATOM      9  O   UNL     1       7.113   5.496  20.095  0.00  0.00    +0.000 OA
ATOM     10  N   UNL     1       6.519   5.911  17.902  0.00  0.00    +0.000 N 
ENDROOT
BRANCH   5  11
ATOM     11  N   UNL     1       2.425   2.657  20.658  0.00  0.00    +0.000 N 
ATOM     12  O   UNL     1       2.803   2.597  21.838  0.00  0.00    +0.000 OA
ATOM     13  O   UNL     1       1.431   2.066  20.212  0.00  0.00    +0.000 OA
ENDBRANCH   5  11
BRANCH   1  14
ATOM     14  C   UNL     1       5.400   6.012  15.593  0.00  0.00    +0.000 C 
ATOM     15  O   UNL     1       4.929   7.075  15.203  0.00  0.00    +0.000 OA
BRANCH  14  20
ATOM     16  C   UNL     1       7.107   2.740  11.132  0.00  0.00    +0.000 C 
ATOM     17  C   UNL     1       6.697   3.502  12.359  0.00  0.00    +0.000 A 
ATOM     18  C   UNL     1       5.428   3.322  12.918  0.00  0.00    +0.000 A 
ATOM     19  C   UNL     1       5.033   4.069  14.029  0.00  0.00    +0.000 A 
ATOM     20  C   UNL     1       5.888   5.046  14.561  0.00  0.00    +0.000 A 
ATOM     21  C   UNL     1       7.181   5.183  14.049  0.00  0.00    +0.000 A 
ATOM     22  C   UNL     1       7.583   4.413  12.953  0.00  0.00    +0.000 A 
ENDBRANCH  14  20
ENDBRANCH   1  14
BRANCH  10  23
ATOM     23  C   UNL     1       7.726   6.690  17.641  0.00  0.00    +0.000 C 
BRANCH  23  24
ATOM     24  C   UNL     1       7.466   8.172  17.368  0.00  0.00    +0.000 C 
BRANCH  24  25
ATOM     25  C   UNL     1       8.358   9.051  18.214  0.00  0.00    +0.000 C 
ATOM     26  N   UNL     1       8.395  10.358  17.819  0.00  0.00    +0.000 N 
ATOM     27  O   UNL     1       9.007   8.665  19.177  0.00  0.00    +0.000 OA
ATOM     28  H   UNL     1       7.967  10.687  16.964  0.00  0.00    +0.000 HD
ATOM     29  H   UNL     1       9.018  10.981  18.316  0.00  0.00    +0.000 HD
ENDBRANCH  24  25
ENDBRANCH  23  24
ENDBRANCH  10  23
TORSDOF 6
ENDMDL
MODEL 5
REMARK VINA RESULT:      -7.7      6.127     10.161
REMARK  Name = 
REMARK  7 active torsions:
REMARK  status: ('A' for Active; 'I' for Inactive)
REMARK    1  A    between atoms: C_1  and  C_2
REMARK    2  A    between atoms: C_5  and  C_6
REMARK    3  A    between atoms: C_6  and  C_8
REMARK    4  A    between atoms: C_12  and  N_13
REMARK    5  A    between atoms: N_20  and  C_21
REMARK    6  A    between atoms: C_21  and  C_22
REMARK    7  A    between atoms: C_22  and  C_23
REMARK                            x       y       z     vdW  Elec       q    Type
REMARK                         _______ _______ _______ _____ _____    ______ ____
ROOT
ATOM      1  C   UNL     1      -0.850  11.749  19.738  0.00  0.00    +0.000 A 
ATOM      2  C   UNL     1      -1.568  11.926  20.938  0.00  0.00    +0.000 A 
ATOM      3  C   UNL     1      -1.040  11.835  22.230  0.00  0.00    +0.000 A 
ATOM      4  C   UNL     1      -1.979  12.188  23.223  0.00  0.00    +0.000 A 
ATOM      5  C   UNL     1      -3.346  12.545  22.945  0.00  0.00    +0.000 A 
ATOM      6  C   UNL     1      -3.915  12.570  21.645  0.00  0.00    +0.000 A 
ATOM      7  C   UNL     1      -2.967  12.251  20.671  0.00  0.00    +0.000 A 
ATOM      8  N   UNL     1      -3.105  12.151  19.334  0.00  0.00    +0.000 N 
ATOM      9  O   UNL     1      -4.121  12.303  18.612  0.00  0.00    +0.000 OA
ATOM     10  N   UNL     1      -1.859  11.858  18.763  0.00  0.00    +0.000 N 
ENDROOT
BRANCH   5  11
ATOM     11  N   UNL     1      -4.203  12.909  24.088  0.00  0.00    +0.000 N 
ATOM     12  O   UNL     1      -4.388  14.114  24.315  0.00  0.00    +0.000 OA
ATOM     13  O   UNL     1      -4.698  11.988  24.755  0.00  0.00    +0.000 OA
ENDBRANCH   5  11
BRANCH   1  14
ATOM     14  C   UNL     1       0.570  11.492  19.508  0.00  0.00    +0.000 C 
ATOM     15  O   UNL     1       1.412  12.382  19.439  0.00  0.00    +0.000 OA
BRANCH  14  20
ATOM     16  C   UNL     1       2.960   6.251  18.932  0.00  0.00    +0.000 C 
ATOM     17  C   UNL     1       2.241   7.564  19.043  0.00  0.00    +0.000 A 
ATOM     18  C   UNL     1       2.130   8.411  17.937  0.00  0.00    +0.000 A 
ATOM     19  C   UNL     1       1.504   9.653  18.058  0.00  0.00    +0.000 A 
ATOM     20  C   UNL     1       1.028  10.083  19.306  0.00  0.00    +0.000 A 
ATOM     21  C   UNL     1       1.075   9.214  20.399  0.00  0.00    +0.000 A 
ATOM     22  C   UNL     1       1.679   7.959  20.267  0.00  0.00    +0.000 A 
ENDBRANCH  14  20
ENDBRANCH   1  14
BRANCH  10  23
ATOM     23  C   UNL     1      -1.722  11.668  17.322  0.00  0.00    +0.000 C 
BRANCH  23  24
ATOM     24  C   UNL     1      -2.172  10.292  16.828  0.00  0.00    +0.000 C 
BRANCH  24  25
ATOM     25  C   UNL     1      -3.049  10.408  15.603  0.00  0.00    +0.000 C 
ATOM     26  N   UNL     1      -4.332  10.793  15.867  0.00  0.00    +0.000 N 
ATOM     27  O   UNL     1      -2.680  10.186  14.458  0.00  0.00    +0.000 OA
ATOM     28  H   UNL     1      -4.702  10.871  16.804  0.00  0.00    +0.000 HD
ATOM     29  H   UNL     1      -4.979  10.835  15.090  0.00  0.00    +0.000 HD
ENDBRANCH  24  25
ENDBRANCH  23  24
ENDBRANCH  10  23
TORSDOF 6
ENDMDL
MODEL 6
REMARK VINA RESULT:      -7.6      3.364      7.347
REMARK  Name = 
REMARK  7 active torsions:
REMARK  status: ('A' for Active; 'I' for Inactive)
REMARK    1  A    between atoms: C_1  and  C_2
REMARK    2  A    between atoms: C_5  and  C_6
REMARK    3  A    between atoms: C_6  and  C_8
REMARK    4  A    between atoms: C_12  and  N_13
REMARK    5  A    between atoms: N_20  and  C_21
REMARK    6  A    between atoms: C_21  and  C_22
REMARK    7  A    between atoms: C_22  and  C_23
REMARK                            x       y       z     vdW  Elec       q    Type
REMARK                         _______ _______ _______ _____ _____    ______ ____
ROOT
ATOM      1  C   UNL     1       5.157   5.277  16.964  0.00  0.00    +0.000 A 
ATOM      2  C   UNL     1       4.004   4.804  17.621  0.00  0.00    +0.000 A 
ATOM      3  C   UNL     1       2.707   4.796  17.098  0.00  0.00    +0.000 A 
ATOM      4  C   UNL     1       1.786   4.142  17.946  0.00  0.00    +0.000 A 
ATOM      5  C   UNL     1       2.128   3.596  19.234  0.00  0.00    +0.000 A 
ATOM      6  C   UNL     1       3.424   3.663  19.809  0.00  0.00    +0.000 A 
ATOM      7  C   UNL     1       4.330   4.282  18.946  0.00  0.00    +0.000 A 
ATOM      8  N   UNL     1       5.640   4.551  19.119  0.00  0.00    +0.000 N 
ATOM      9  O   UNL     1       6.387   4.330  20.104  0.00  0.00    +0.000 OA
ATOM     10  N   UNL     1       6.148   5.137  17.953  0.00  0.00    +0.000 N 
ENDROOT
BRANCH   5  11
ATOM     11  N   UNL     1       1.061   2.926  19.997  0.00  0.00    +0.000 N 
ATOM     12  O   UNL     1       1.099   2.998  21.235  0.00  0.00    +0.000 OA
ATOM     13  O   UNL     1       0.179   2.333  19.359  0.00  0.00    +0.000 OA
ENDBRANCH   5  11
BRANCH   1  14
ATOM     14  C   UNL     1       5.331   5.809  15.613  0.00  0.00    +0.000 C 
ATOM     15  O   UNL     1       5.040   6.959  15.301  0.00  0.00    +0.000 OA
BRANCH  14  20
ATOM     16  C   UNL     1       7.170   2.804  11.020  0.00  0.00    +0.000 C 
ATOM     17  C   UNL     1       6.726   3.493  12.277  0.00  0.00    +0.000 A 
ATOM     18  C   UNL     1       5.452   3.262  12.804  0.00  0.00    +0.000 A 
ATOM     19  C   UNL     1       5.025   3.943  13.946  0.00  0.00    +0.000 A 
ATOM     20  C   UNL     1       5.854   4.906  14.542  0.00  0.00    +0.000 A 
ATOM     21  C   UNL     1       7.152   5.093  14.060  0.00  0.00    +0.000 A 
ATOM     22  C   UNL     1       7.585   4.388  12.932  0.00  0.00    +0.000 A 
ENDBRANCH  14  20
ENDBRANCH   1  14
BRANCH  10  23
ATOM     23  C   UNL     1       7.544   5.556  17.873  0.00  0.00    +0.000 C 
BRANCH  23  24
ATOM     24  C   UNL     1       7.924   6.656  18.865  0.00  0.00    +0.000 C 
BRANCH  24  25
ATOM     25  C   UNL     1       8.107   7.985  18.169  0.00  0.00    +0.000 C 
ATOM     26  N   UNL     1       7.518   8.059  16.939  0.00  0.00    +0.000 N 
ATOM     27  O   UNL     1       8.722   8.936  18.632  0.00  0.00    +0.000 OA
ATOM     28  H   UNL     1       7.104   7.261  16.477  0.00  0.00    +0.000 HD
ATOM     29  H   UNL     1       7.654   8.907  16.404  0.00  0.00    +0.000 HD
ENDBRANCH  24  25
ENDBRANCH  23  24
ENDBRANCH  10  23
TORSDOF 6
ENDMDL
MODEL 7
REMARK VINA RESULT:      -7.5      2.608      5.920
REMARK  Name = 
REMARK  7 active torsions:
REMARK  status: ('A' for Active; 'I' for Inactive)
REMARK    1  A    between atoms: C_1  and  C_2
REMARK    2  A    between atoms: C_5  and  C_6
REMARK    3  A    between atoms: C_6  and  C_8
REMARK    4  A    between atoms: C_12  and  N_13
REMARK    5  A    between atoms: N_20  and  C_21
REMARK    6  A    between atoms: C_21  and  C_22
REMARK    7  A    between atoms: C_22  and  C_23
REMARK                            x       y       z     vdW  Elec       q    Type
REMARK                         _______ _______ _______ _____ _____    ______ ____
ROOT
ATOM      1  C   UNL     1       4.745   5.027  18.450  0.00  0.00    +0.000 A 
ATOM      2  C   UNL     1       4.112   6.272  18.267  0.00  0.00    +0.000 A 
ATOM      3  C   UNL     1       4.651   7.376  17.599  0.00  0.00    +0.000 A 
ATOM      4  C   UNL     1       3.726   8.435  17.471  0.00  0.00    +0.000 A 
ATOM      5  C   UNL     1       2.394   8.408  18.018  0.00  0.00    +0.000 A 
ATOM      6  C   UNL     1       1.859   7.324  18.762  0.00  0.00    +0.000 A 
ATOM      7  C   UNL     1       2.772   6.272  18.851  0.00  0.00    +0.000 A 
ATOM      8  N   UNL     1       2.659   5.083  19.476  0.00  0.00    +0.000 N 
ATOM      9  O   UNL     1       1.712   4.613  20.153  0.00  0.00    +0.000 OA
ATOM     10  N   UNL     1       3.817   4.329  19.246  0.00  0.00    +0.000 N 
ENDROOT
BRANCH   5  11
ATOM     11  N   UNL     1       1.537   9.584  17.785  0.00  0.00    +0.000 N 
ATOM     12  O   UNL     1       2.090  10.675  17.580  0.00  0.00    +0.000 OA
ATOM     13  O   UNL     1       0.309   9.416  17.801  0.00  0.00    +0.000 OA
ENDBRANCH   5  11
BRANCH   1  14
ATOM     14  C   UNL     1       6.040   4.539  17.978  0.00  0.00    +0.000 C 
ATOM     15  O   UNL     1       7.002   4.362  18.718  0.00  0.00    +0.000 OA
BRANCH  14  20
ATOM     16  C   UNL     1       6.446   4.123  12.219  0.00  0.00    +0.000 C 
ATOM     17  C   UNL     1       6.393   4.128  13.719  0.00  0.00    +0.000 A 
ATOM     18  C   UNL     1       5.339   3.507  14.396  0.00  0.00    +0.000 A 
ATOM     19  C   UNL     1       5.267   3.556  15.789  0.00  0.00    +0.000 A 
ATOM     20  C   UNL     1       6.226   4.276  16.518  0.00  0.00    +0.000 A 
ATOM     21  C   UNL     1       7.317   4.841  15.853  0.00  0.00    +0.000 A 
ATOM     22  C   UNL     1       7.399   4.766  14.458  0.00  0.00    +0.000 A 
ENDBRANCH  14  20
ENDBRANCH   1  14
BRANCH  10  23
ATOM     23  C   UNL     1       3.975   3.001  19.832  0.00  0.00    +0.000 C 
BRANCH  23  24
ATOM     24  C   UNL     1       3.708   1.853  18.858  0.00  0.00    +0.000 C 
BRANCH  24  25
ATOM     25  C   UNL     1       2.386   2.030  18.149  0.00  0.00    +0.000 C 
ATOM     26  N   UNL     1       1.297   1.694  18.903  0.00  0.00    +0.000 N 
ATOM     27  O   UNL     1       2.258   2.436  17.002  0.00  0.00    +0.000 OA
ATOM     28  H   UNL     1       1.369   1.248  19.806  0.00  0.00    +0.000 HD
ATOM     29  H   UNL     1       0.387   1.741  18.460  0.00  0.00    +0.000 HD
ENDBRANCH  24  25
ENDBRANCH  23  24
ENDBRANCH  10  23
TORSDOF 6
ENDMDL
MODEL 8
REMARK VINA RESULT:      -7.5      2.571      5.912
REMARK  Name = 
REMARK  7 active torsions:
REMARK  status: ('A' for Active; 'I' for Inactive)
REMARK    1  A    between atoms: C_1  and  C_2
REMARK    2  A    between atoms: C_5  and  C_6
REMARK    3  A    between atoms: C_6  and  C_8
REMARK    4  A    between atoms: C_12  and  N_13
REMARK    5  A    between atoms: N_20  and  C_21
REMARK    6  A    between atoms: C_21  and  C_22
REMARK    7  A    between atoms: C_22  and  C_23
REMARK                            x       y       z     vdW  Elec       q    Type
REMARK                         _______ _______ _______ _____ _____    ______ ____
ROOT
ATOM      1  C   UNL     1       3.918   4.935  18.827  0.00  0.00    +0.000 A 
ATOM      2  C   UNL     1       3.107   5.971  19.332  0.00  0.00    +0.000 A 
ATOM      3  C   UNL     1       3.104   7.299  18.892  0.00  0.00    +0.000 A 
ATOM      4  C   UNL     1       2.092   8.069  19.506  0.00  0.00    +0.000 A 
ATOM      5  C   UNL     1       1.199   7.564  20.516  0.00  0.00    +0.000 A 
ATOM      6  C   UNL     1       1.240   6.239  21.025  0.00  0.00    +0.000 A 
ATOM      7  C   UNL     1       2.222   5.481  20.386  0.00  0.00    +0.000 A 
ATOM      8  N   UNL     1       2.587   4.198  20.586  0.00  0.00    +0.000 N 
ATOM      9  O   UNL     1       2.152   3.352  21.405  0.00  0.00    +0.000 OA
ATOM     10  N   UNL     1       3.588   3.855  19.668  0.00  0.00    +0.000 N 
ENDROOT
BRANCH   5  11
ATOM     11  N   UNL     1       0.180   8.485  21.050  0.00  0.00    +0.000 N 
ATOM     12  O   UNL     1       0.246   9.678  20.718  0.00  0.00    +0.000 OA
ATOM     13  O   UNL     1      -0.690   8.013  21.795  0.00  0.00    +0.000 OA
ENDBRANCH   5  11
BRANCH   1  14
ATOM     14  C   UNL     1       4.886   4.933  17.732  0.00  0.00    +0.000 C 
ATOM     15  O   UNL     1       4.833   4.149  16.790  0.00  0.00    +0.000 OA
BRANCH  14  20
ATOM     16  C   UNL     1       8.959   8.994  18.393  0.00  0.00    +0.000 C 
ATOM     17  C   UNL     1       7.966   7.898  18.134  0.00  0.00    +0.000 A 
ATOM     18  C   UNL     1       6.962   8.058  17.173  0.00  0.00    +0.000 A 
ATOM     19  C   UNL     1       6.011   7.057  16.971  0.00  0.00    +0.000 A 
ATOM     20  C   UNL     1       6.024   5.903  17.769  0.00  0.00    +0.000 A 
ATOM     21  C   UNL     1       7.062   5.707  18.683  0.00  0.00    +0.000 A 
ATOM     22  C   UNL     1       8.029   6.702  18.864  0.00  0.00    +0.000 A 
ENDBRANCH  14  20
ENDBRANCH   1  14
BRANCH  10  23
ATOM     23  C   UNL     1       4.189   2.525  19.677  0.00  0.00    +0.000 C 
BRANCH  23  24
ATOM     24  C   UNL     1       3.673   1.599  18.574  0.00  0.00    +0.000 C 
BRANCH  24  25
ATOM     25  C   UNL     1       2.285   1.995  18.129  0.00  0.00    +0.000 C 
ATOM     26  N   UNL     1       1.284   1.530  18.935  0.00  0.00    +0.000 N 
ATOM     27  O   UNL     1       2.035   2.673  17.142  0.00  0.00    +0.000 OA
ATOM     28  H   UNL     1       1.443   0.874  19.688  0.00  0.00    +0.000 HD
ATOM     29  H   UNL     1       0.330   1.719  18.655  0.00  0.00    +0.000 HD
ENDBRANCH  24  25
ENDBRANCH  23  24
ENDBRANCH  10  23
TORSDOF 6
ENDMDL
MODEL 9
REMARK VINA RESULT:      -7.5      2.279      3.309
REMARK  Name = 
REMARK  7 active torsions:
REMARK  status: ('A' for Active; 'I' for Inactive)
REMARK    1  A    between atoms: C_1  and  C_2
REMARK    2  A    between atoms: C_5  and  C_6
REMARK    3  A    between atoms: C_6  and  C_8
REMARK    4  A    between atoms: C_12  and  N_13
REMARK    5  A    between atoms: N_20  and  C_21
REMARK    6  A    between atoms: C_21  and  C_22
REMARK    7  A    between atoms: C_22  and  C_23
REMARK                            x       y       z     vdW  Elec       q    Type
REMARK                         _______ _______ _______ _____ _____    ______ ____
ROOT
ATOM      1  C   UNL     1       4.405   4.406  17.389  0.00  0.00    +0.000 A 
ATOM      2  C   UNL     1       5.127   4.514  16.184  0.00  0.00    +0.000 A 
ATOM      3  C   UNL     1       4.575   4.578  14.901  0.00  0.00    +0.000 A 
ATOM      4  C   UNL     1       5.548   4.810  13.904  0.00  0.00    +0.000 A 
ATOM      5  C   UNL     1       6.960   4.910  14.169  0.00  0.00    +0.000 A 
ATOM      6  C   UNL     1       7.541   4.772  15.456  0.00  0.00    +0.000 A 
ATOM      7  C   UNL     1       6.565   4.576  16.435  0.00  0.00    +0.000 A 
ATOM      8  N   UNL     1       6.700   4.389  17.763  0.00  0.00    +0.000 N 
ATOM      9  O   UNL     1       7.737   4.327  18.469  0.00  0.00    +0.000 OA
ATOM     10  N   UNL     1       5.431   4.291  18.347  0.00  0.00    +0.000 N 
ENDROOT
BRANCH   5  11
ATOM     11  N   UNL     1       7.852   5.173  13.026  0.00  0.00    +0.000 N 
ATOM     12  O   UNL     1       7.590   4.622  11.946  0.00  0.00    +0.000 OA
ATOM     13  O   UNL     1       8.811   5.937  13.206  0.00  0.00    +0.000 OA
ENDBRANCH   5  11
BRANCH   1  14
ATOM     14  C   UNL     1       2.965   4.390  17.638  0.00  0.00    +0.000 C 
ATOM     15  O   UNL     1       2.205   3.570  17.134  0.00  0.00    +0.000 OA
BRANCH  14  20
ATOM     16  C   UNL     1       1.284   8.511  21.340  0.00  0.00    +0.000 C 
ATOM     17  C   UNL     1       1.611   7.442  20.339  0.00  0.00    +0.000 A 
ATOM     18  C   UNL     1       1.385   6.094  20.637  0.00  0.00    +0.000 A 
ATOM     19  C   UNL     1       1.737   5.100  19.723  0.00  0.00    +0.000 A 
ATOM     20  C   UNL     1       2.371   5.443  18.519  0.00  0.00    +0.000 A 
ATOM     21  C   UNL     1       2.539   6.790  18.186  0.00  0.00    +0.000 A 
ATOM     22  C   UNL     1       2.159   7.784  19.094  0.00  0.00    +0.000 A 
ENDBRANCH  14  20
ENDBRANCH   1  14
BRANCH  10  23
ATOM     23  C   UNL     1       5.281   4.058  19.780  0.00  0.00    +0.000 C 
BRANCH  23  24
ATOM     24  C   UNL     1       4.229   3.007  20.136  0.00  0.00    +0.000 C 
BRANCH  24  25
ATOM     25  C   UNL     1       4.778   1.608  19.991  0.00  0.00    +0.000 C 
ATOM     26  N   UNL     1       4.360   0.955  18.865  0.00  0.00    +0.000 N 
ATOM     27  O   UNL     1       5.534   1.069  20.787  0.00  0.00    +0.000 OA
ATOM     28  H   UNL     1       3.649   1.322  18.248  0.00  0.00    +0.000 HD
ATOM     29  H   UNL     1       4.654  -0.006  18.744  0.00  0.00    +0.000 HD
ENDBRANCH  24  25
ENDBRANCH  23  24
ENDBRANCH  10  23
TORSDOF 6
ENDMDL
