MODEL 1
REMARK VINA RESULT:      -7.3      0.000      0.000
REMARK  Name = 
REMARK  3 active torsions:
REMARK  status: ('A' for Active; 'I' for Inactive)
REMARK    1  A    between atoms: N_5  and  C_6
REMARK    2  A    between atoms: N_15  and  C_16
REMARK    3  A    between atoms: C_16  and  C_17
REMARK                            x       y       z     vdW  Elec       q    Type
REMARK                         _______ _______ _______ _____ _____    ______ ____
ROOT
ATOM      1  O   UNL     1       1.325   7.324  21.502  0.00  0.00    +0.000 OA
ATOM      2  C   UNL     1       1.585   7.930  20.469  0.00  0.00    +0.000 C 
ATOM      3  C   UNL     1       1.071   9.387  20.288  0.00  0.00    +0.000 C 
ATOM      4  O   UNL     1       0.685   9.999  21.279  0.00  0.00    +0.000 OA
ATOM      5  N   UNL     1       1.079   9.904  18.985  0.00  0.00    +0.000 N 
ATOM      6  C   UNL     1       1.530   9.081  17.868  0.00  0.00    +0.000 C 
ATOM      7  C   UNL     1       2.711   8.211  18.293  0.00  0.00    +0.000 C 
ATOM      8  N   UNL     1       2.346   7.384  19.433  0.00  0.00    +0.000 N 
ENDROOT
BRANCH   5   9
ATOM      9  C   UNL     1       0.638  11.240  18.747  0.00  0.00    +0.000 A 
ATOM     10  C   UNL     1       1.563  12.280  18.944  0.00  0.00    +0.000 A 
ATOM     11  C   UNL     1       1.205  13.615  18.739  0.00  0.00    +0.000 A 
ATOM     12  C   UNL     1      -0.091  13.935  18.353  0.00  0.00    +0.000 A 
ATOM     13  C   UNL     1      -1.027  12.918  18.163  0.00  0.00    +0.000 A 
ATOM     14  C   UNL     1      -0.668  11.575  18.348  0.00  0.00    +0.000 A 
ATOM     15 BR   UNL     1      -2.072  10.304  18.185  0.00  0.00    +0.000 Br
ENDBRANCH   5   9
BRANCH   8  16
ATOM     16  C   UNL     1       3.069   6.138  19.664  0.00  0.00    +0.000 C 
BRANCH  16  17
ATOM     17  C   UNL     1       2.302   4.896  19.258  0.00  0.00    +0.000 A 
ATOM     18  C   UNL     1       1.312   4.392  20.126  0.00  0.00    +0.000 A 
ATOM     19  C   UNL     1       0.672   3.178  19.863  0.00  0.00    +0.000 A 
ATOM     20  C   UNL     1       1.015   2.457  18.728  0.00  0.00    +0.000 A 
ATOM     21  F   UNL     1       0.428   1.277  18.493  0.00  0.00    +0.000 F 
ATOM     22  C   UNL     1       1.973   2.935  17.844  0.00  0.00    +0.000 A 
ATOM     23  C   UNL     1       2.610   4.150  18.107  0.00  0.00    +0.000 A 
ATOM     24 CL   UNL     1       3.792   4.676  16.958  0.00  0.00    +0.000 Cl
ENDBRANCH  16  17
ENDBRANCH   8  16
TORSDOF 3
ENDMDL
MODEL 2
REMARK VINA RESULT:      -7.2      3.846      7.482
REMARK  Name = 
REMARK  3 active torsions:
REMARK  status: ('A' for Active; 'I' for Inactive)
REMARK    1  A    between atoms: N_5  and  C_6
REMARK    2  A    between atoms: N_15  and  C_16
REMARK    3  A    between atoms: C_16  and  C_17
REMARK                            x       y       z     vdW  Elec       q    Type
REMARK                         _______ _______ _______ _____ _____    ______ ____
ROOT
ATOM      1  O   UNL     1       1.378   8.675  21.321  0.00  0.00    +0.000 OA
ATOM      2  C   UNL     1       1.648   8.292  20.188  0.00  0.00    +0.000 C 
ATOM      3  C   UNL     1       1.924   6.782  19.939  0.00  0.00    +0.000 C 
ATOM      4  O   UNL     1       1.577   5.974  20.795  0.00  0.00    +0.000 OA
ATOM      5  N   UNL     1       2.566   6.445  18.738  0.00  0.00    +0.000 N 
ATOM      6  C   UNL     1       2.966   7.487  17.800  0.00  0.00    +0.000 C 
ATOM      7  C   UNL     1       1.915   8.595  17.756  0.00  0.00    +0.000 C 
ATOM      8  N   UNL     1       1.707   9.147  19.085  0.00  0.00    +0.000 N 
ENDROOT
BRANCH   5   9
ATOM      9  C   UNL     1       2.834   5.077  18.434  0.00  0.00    +0.000 A 
ATOM     10  C   UNL     1       1.754   4.271  18.035  0.00  0.00    +0.000 A 
ATOM     11  C   UNL     1       1.935   2.920  17.728  0.00  0.00    +0.000 A 
ATOM     12  C   UNL     1       3.197   2.346  17.835  0.00  0.00    +0.000 A 
ATOM     13  C   UNL     1       4.280   3.127  18.240  0.00  0.00    +0.000 A 
ATOM     14  C   UNL     1       4.107   4.489  18.531  0.00  0.00    +0.000 A 
ATOM     15 BR   UNL     1       5.636   5.401  19.198  0.00  0.00    +0.000 Br
ENDBRANCH   5   9
BRANCH   8  16
ATOM     16  C   UNL     1       1.199  10.508  19.215  0.00  0.00    +0.000 C 
BRANCH  16  17
ATOM     17  C   UNL     1      -0.277  10.649  18.903  0.00  0.00    +0.000 A 
ATOM     18  C   UNL     1      -0.816   9.931  17.816  0.00  0.00    +0.000 A 
ATOM     19  C   UNL     1      -2.137  10.128  17.405  0.00  0.00    +0.000 A 
ATOM     20  C   UNL     1      -2.932  11.044  18.078  0.00  0.00    +0.000 A 
ATOM     21  F   UNL     1      -4.186  11.260  17.663  0.00  0.00    +0.000 F 
ATOM     22  C   UNL     1      -2.436  11.755  19.163  0.00  0.00    +0.000 A 
ATOM     23  C   UNL     1      -1.116  11.555  19.575  0.00  0.00    +0.000 A 
ATOM     24 CL   UNL     1      -0.575  12.479  20.934  0.00  0.00    +0.000 Cl
ENDBRANCH  16  17
ENDBRANCH   8  16
TORSDOF 3
ENDMDL
MODEL 3
REMARK VINA RESULT:      -7.2      5.940      7.928
REMARK  Name = 
REMARK  3 active torsions:
REMARK  status: ('A' for Active; 'I' for Inactive)
REMARK    1  A    between atoms: N_5  and  C_6
REMARK    2  A    between atoms: N_15  and  C_16
REMARK    3  A    between atoms: C_16  and  C_17
REMARK                            x       y       z     vdW  Elec       q    Type
REMARK                         _______ _______ _______ _____ _____    ______ ____
ROOT
ATOM      1  O   UNL     1       7.962   5.012  17.652  0.00  0.00    +0.000 OA
ATOM      2  C   UNL     1       6.748   4.918  17.510  0.00  0.00    +0.000 C 
ATOM      3  C   UNL     1       5.853   4.667  18.757  0.00  0.00    +0.000 C 
ATOM      4  O   UNL     1       6.329   4.866  19.871  0.00  0.00    +0.000 OA
ATOM      5  N   UNL     1       4.546   4.217  18.518  0.00  0.00    +0.000 N 
ATOM      6  C   UNL     1       4.086   3.982  17.154  0.00  0.00    +0.000 C 
ATOM      7  C   UNL     1       4.656   5.039  16.211  0.00  0.00    +0.000 C 
ATOM      8  N   UNL     1       6.109   5.044  16.275  0.00  0.00    +0.000 N 
ENDROOT
BRANCH   5   9
ATOM      9  C   UNL     1       3.662   3.984  19.614  0.00  0.00    +0.000 A 
ATOM     10  C   UNL     1       3.646   2.697  20.179  0.00  0.00    +0.000 A 
ATOM     11  C   UNL     1       2.803   2.388  21.250  0.00  0.00    +0.000 A 
ATOM     12  C   UNL     1       1.946   3.356  21.760  0.00  0.00    +0.000 A 
ATOM     13  C   UNL     1       1.939   4.636  21.206  0.00  0.00    +0.000 A 
ATOM     14  C   UNL     1       2.797   4.957  20.143  0.00  0.00    +0.000 A 
ATOM     15 BR   UNL     1       2.591   6.694  19.398  0.00  0.00    +0.000 Br
ENDBRANCH   5   9
BRANCH   8  16
ATOM     16  C   UNL     1       6.867   5.541  15.132  0.00  0.00    +0.000 C 
BRANCH  16  17
ATOM     17  C   UNL     1       6.693   4.718  13.871  0.00  0.00    +0.000 A 
ATOM     18  C   UNL     1       5.682   3.737  13.831  0.00  0.00    +0.000 A 
ATOM     19  C   UNL     1       5.567   2.864  12.746  0.00  0.00    +0.000 A 
ATOM     20  C   UNL     1       6.461   2.965  11.690  0.00  0.00    +0.000 A 
ATOM     21  F   UNL     1       6.375   2.107  10.666  0.00  0.00    +0.000 F 
ATOM     22  C   UNL     1       7.457   3.933  11.692  0.00  0.00    +0.000 A 
ATOM     23  C   UNL     1       7.570   4.807  12.775  0.00  0.00    +0.000 A 
ATOM     24 CL   UNL     1       8.837   5.983  12.701  0.00  0.00    +0.000 Cl
ENDBRANCH  16  17
ENDBRANCH   8  16
TORSDOF 3
ENDMDL
MODEL 4
REMARK VINA RESULT:      -7.0      1.110      1.410
REMARK  Name = 
REMARK  3 active torsions:
REMARK  status: ('A' for Active; 'I' for Inactive)
REMARK    1  A    between atoms: N_5  and  C_6
REMARK    2  A    between atoms: N_15  and  C_16
REMARK    3  A    between atoms: C_16  and  C_17
REMARK                            x       y       z     vdW  Elec       q    Type
REMARK                         _______ _______ _______ _____ _____    ______ ____
ROOT
ATOM      1  O   UNL     1       1.407   7.138  21.320  0.00  0.00    +0.000 OA
ATOM      2  C   UNL     1       1.666   7.796  20.318  0.00  0.00    +0.000 C 
ATOM      3  C   UNL     1       1.082   9.230  20.175  0.00  0.00    +0.000 C 
ATOM      4  O   UNL     1       0.635   9.783  21.175  0.00  0.00    +0.000 OA
ATOM      5  N   UNL     1       1.101   9.796  18.892  0.00  0.00    +0.000 N 
ATOM      6  C   UNL     1       1.627   9.041  17.761  0.00  0.00    +0.000 C 
ATOM      7  C   UNL     1       2.840   8.216  18.191  0.00  0.00    +0.000 C 
ATOM      8  N   UNL     1       2.485   7.329  19.287  0.00  0.00    +0.000 N 
ENDROOT
BRANCH   5   9
ATOM      9  C   UNL     1       0.598  11.116  18.689  0.00  0.00    +0.000 A 
ATOM     10  C   UNL     1       1.469  12.193  18.928  0.00  0.00    +0.000 A 
ATOM     11  C   UNL     1       1.049  13.514  18.759  0.00  0.00    +0.000 A 
ATOM     12  C   UNL     1      -0.258  13.783  18.369  0.00  0.00    +0.000 A 
ATOM     13  C   UNL     1      -1.141  12.728  18.137  0.00  0.00    +0.000 A 
ATOM     14  C   UNL     1      -0.719  11.399  18.286  0.00  0.00    +0.000 A 
ATOM     15 BR   UNL     1      -2.058  10.067  18.069  0.00  0.00    +0.000 Br
ENDBRANCH   5   9
BRANCH   8  16
ATOM     16  C   UNL     1       3.265   6.114  19.495  0.00  0.00    +0.000 C 
BRANCH  16  17
ATOM     17  C   UNL     1       2.507   4.836  19.198  0.00  0.00    +0.000 A 
ATOM     18  C   UNL     1       2.092   4.582  17.875  0.00  0.00    +0.000 A 
ATOM     19  C   UNL     1       1.278   3.486  17.572  0.00  0.00    +0.000 A 
ATOM     20  C   UNL     1       0.874   2.635  18.590  0.00  0.00    +0.000 A 
ATOM     21  F   UNL     1       0.065   1.606  18.308  0.00  0.00    +0.000 F 
ATOM     22  C   UNL     1       1.280   2.848  19.900  0.00  0.00    +0.000 A 
ATOM     23  C   UNL     1       2.097   3.941  20.202  0.00  0.00    +0.000 A 
ATOM     24 CL   UNL     1       2.559   4.137  21.857  0.00  0.00    +0.000 Cl
ENDBRANCH  16  17
ENDBRANCH   8  16
TORSDOF 3
ENDMDL
MODEL 5
REMARK VINA RESULT:      -6.9      1.813      2.323
REMARK  Name = 
REMARK  3 active torsions:
REMARK  status: ('A' for Active; 'I' for Inactive)
REMARK    1  A    between atoms: N_5  and  C_6
REMARK    2  A    between atoms: N_15  and  C_16
REMARK    3  A    between atoms: C_16  and  C_17
REMARK                            x       y       z     vdW  Elec       q    Type
REMARK                         _______ _______ _______ _____ _____    ______ ____
ROOT
ATOM      1  O   UNL     1       3.348   7.809  17.762  0.00  0.00    +0.000 OA
ATOM      2  C   UNL     1       2.521   8.042  18.637  0.00  0.00    +0.000 C 
ATOM      3  C   UNL     1       1.526   9.222  18.450  0.00  0.00    +0.000 C 
ATOM      4  O   UNL     1       1.383   9.697  17.327  0.00  0.00    +0.000 OA
ATOM      5  N   UNL     1       0.855   9.673  19.597  0.00  0.00    +0.000 N 
ATOM      6  C   UNL     1       1.119   9.060  20.893  0.00  0.00    +0.000 C 
ATOM      7  C   UNL     1       1.325   7.554  20.737  0.00  0.00    +0.000 C 
ATOM      8  N   UNL     1       2.409   7.286  19.805  0.00  0.00    +0.000 N 
ENDROOT
BRANCH   5   9
ATOM      9  C   UNL     1      -0.087  10.740  19.496  0.00  0.00    +0.000 A 
ATOM     10  C   UNL     1      -1.374  10.435  19.019  0.00  0.00    +0.000 A 
ATOM     11  C   UNL     1      -2.349  11.426  18.886  0.00  0.00    +0.000 A 
ATOM     12  C   UNL     1      -2.048  12.744  19.208  0.00  0.00    +0.000 A 
ATOM     13  C   UNL     1      -0.774  13.069  19.673  0.00  0.00    +0.000 A 
ATOM     14  C   UNL     1       0.204  12.075  19.828  0.00  0.00    +0.000 A 
ATOM     15 BR   UNL     1       1.933  12.674  20.342  0.00  0.00    +0.000 Br
ENDBRANCH   5   9
BRANCH   8  16
ATOM     16  C   UNL     1       3.130   6.022  19.904  0.00  0.00    +0.000 C 
BRANCH  16  17
ATOM     17  C   UNL     1       2.337   4.819  19.435  0.00  0.00    +0.000 A 
ATOM     18  C   UNL     1       1.312   4.314  20.260  0.00  0.00    +0.000 A 
ATOM     19  C   UNL     1       0.642   3.131  19.937  0.00  0.00    +0.000 A 
ATOM     20  C   UNL     1       0.989   2.444  18.783  0.00  0.00    +0.000 A 
ATOM     21  F   UNL     1       0.373   1.292  18.490  0.00  0.00    +0.000 F 
ATOM     22  C   UNL     1       1.981   2.925  17.940  0.00  0.00    +0.000 A 
ATOM     23  C   UNL     1       2.649   4.109  18.262  0.00  0.00    +0.000 A 
ATOM     24 CL   UNL     1       3.872   4.640  17.160  0.00  0.00    +0.000 Cl
ENDBRANCH  16  17
ENDBRANCH   8  16
TORSDOF 3
ENDMDL
MODEL 6
REMARK VINA RESULT:      -6.8      2.377      2.978
REMARK  Name = 
REMARK  3 active torsions:
REMARK  status: ('A' for Active; 'I' for Inactive)
REMARK    1  A    between atoms: N_5  and  C_6
REMARK    2  A    between atoms: N_15  and  C_16
REMARK    3  A    between atoms: C_16  and  C_17
REMARK                            x       y       z     vdW  Elec       q    Type
REMARK                         _______ _______ _______ _____ _____    ______ ____
ROOT
ATOM      1  O   UNL     1       1.492   6.820  21.100  0.00  0.00    +0.000 OA
ATOM      2  C   UNL     1       1.762   7.527  20.134  0.00  0.00    +0.000 C 
ATOM      3  C   UNL     1       1.215   8.981  20.077  0.00  0.00    +0.000 C 
ATOM      4  O   UNL     1       0.788   9.488  21.111  0.00  0.00    +0.000 OA
ATOM      5  N   UNL     1       1.241   9.619  18.828  0.00  0.00    +0.000 N 
ATOM      6  C   UNL     1       1.741   8.916  17.653  0.00  0.00    +0.000 C 
ATOM      7  C   UNL     1       2.934   8.037  18.026  0.00  0.00    +0.000 C 
ATOM      8  N   UNL     1       2.562   7.099  19.073  0.00  0.00    +0.000 N 
ENDROOT
BRANCH   5   9
ATOM      9  C   UNL     1       0.772  10.961  18.705  0.00  0.00    +0.000 A 
ATOM     10  C   UNL     1       1.682  12.000  18.969  0.00  0.00    +0.000 A 
ATOM     11  C   UNL     1       1.296  13.339  18.876  0.00  0.00    +0.000 A 
ATOM     12  C   UNL     1      -0.013  13.664  18.539  0.00  0.00    +0.000 A 
ATOM     13  C   UNL     1      -0.934  12.647  18.283  0.00  0.00    +0.000 A 
ATOM     14  C   UNL     1      -0.547  11.300  18.356  0.00  0.00    +0.000 A 
ATOM     15 BR   UNL     1      -1.930  10.019  18.116  0.00  0.00    +0.000 Br
ENDBRANCH   5   9
BRANCH   8  16
ATOM     16  C   UNL     1       3.311   5.854  19.206  0.00  0.00    +0.000 C 
BRANCH  16  17
ATOM     17  C   UNL     1       4.247   5.570  18.049  0.00  0.00    +0.000 A 
ATOM     18  C   UNL     1       5.379   6.390  17.871  0.00  0.00    +0.000 A 
ATOM     19  C   UNL     1       6.199   6.255  16.748  0.00  0.00    +0.000 A 
ATOM     20  C   UNL     1       5.895   5.296  15.792  0.00  0.00    +0.000 A 
ATOM     21  F   UNL     1       6.658   5.189  14.697  0.00  0.00    +0.000 F 
ATOM     22  C   UNL     1       4.796   4.461  15.947  0.00  0.00    +0.000 A 
ATOM     23  C   UNL     1       3.979   4.595  17.072  0.00  0.00    +0.000 A 
ATOM     24 CL   UNL     1       2.631   3.517  17.191  0.00  0.00    +0.000 Cl
ENDBRANCH  16  17
ENDBRANCH   8  16
TORSDOF 3
ENDMDL
MODEL 7
REMARK VINA RESULT:      -6.8      4.006      7.670
REMARK  Name = 
REMARK  3 active torsions:
REMARK  status: ('A' for Active; 'I' for Inactive)
REMARK    1  A    between atoms: N_5  and  C_6
REMARK    2  A    between atoms: N_15  and  C_16
REMARK    3  A    between atoms: C_16  and  C_17
REMARK                            x       y       z     vdW  Elec       q    Type
REMARK                         _______ _______ _______ _____ _____    ______ ____
ROOT
ATOM      1  O   UNL     1       1.422   8.096  21.524  0.00  0.00    +0.000 OA
ATOM      2  C   UNL     1       1.632   8.066  20.317  0.00  0.00    +0.000 C 
ATOM      3  C   UNL     1       2.511   6.928  19.724  0.00  0.00    +0.000 C 
ATOM      4  O   UNL     1       2.722   5.932  20.410  0.00  0.00    +0.000 OA
ATOM      5  N   UNL     1       3.015   7.126  18.430  0.00  0.00    +0.000 N 
ATOM      6  C   UNL     1       2.731   8.361  17.710  0.00  0.00    +0.000 C 
ATOM      7  C   UNL     1       1.304   8.827  17.995  0.00  0.00    +0.000 C 
ATOM      8  N   UNL     1       1.105   9.002  19.424  0.00  0.00    +0.000 N 
ENDROOT
BRANCH   5   9
ATOM      9  C   UNL     1       3.813   6.115  17.816  0.00  0.00    +0.000 A 
ATOM     10  C   UNL     1       5.148   6.432  17.507  0.00  0.00    +0.000 A 
ATOM     11  C   UNL     1       5.990   5.499  16.899  0.00  0.00    +0.000 A 
ATOM     12  C   UNL     1       5.507   4.238  16.569  0.00  0.00    +0.000 A 
ATOM     13  C   UNL     1       4.183   3.908  16.857  0.00  0.00    +0.000 A 
ATOM     14  C   UNL     1       3.337   4.834  17.486  0.00  0.00    +0.000 A 
ATOM     15 BR   UNL     1       1.525   4.302  17.699  0.00  0.00    +0.000 Br
ENDBRANCH   5   9
BRANCH   8  16
ATOM     16  C   UNL     1       0.070   9.919  19.887  0.00  0.00    +0.000 C 
BRANCH  16  17
ATOM     17  C   UNL     1       0.275  11.355  19.449  0.00  0.00    +0.000 A 
ATOM     18  C   UNL     1       1.292  12.116  20.058  0.00  0.00    +0.000 A 
ATOM     19  C   UNL     1       1.436  13.479  19.786  0.00  0.00    +0.000 A 
ATOM     20  C   UNL     1       0.563  14.094  18.900  0.00  0.00    +0.000 A 
ATOM     21  F   UNL     1       0.677  15.407  18.665  0.00  0.00    +0.000 F 
ATOM     22  C   UNL     1      -0.439  13.368  18.270  0.00  0.00    +0.000 A 
ATOM     23  C   UNL     1      -0.580  12.005  18.540  0.00  0.00    +0.000 A 
ATOM     24 CL   UNL     1      -1.852  11.173  17.715  0.00  0.00    +0.000 Cl
ENDBRANCH  16  17
ENDBRANCH   8  16
TORSDOF 3
ENDMDL
MODEL 8
REMARK VINA RESULT:      -6.8      2.161      2.758
REMARK  Name = 
REMARK  3 active torsions:
REMARK  status: ('A' for Active; 'I' for Inactive)
REMARK    1  A    between atoms: N_5  and  C_6
REMARK    2  A    between atoms: N_15  and  C_16
REMARK    3  A    between atoms: C_16  and  C_17
REMARK                            x       y       z     vdW  Elec       q    Type
REMARK                         _______ _______ _______ _____ _____    ______ ____
ROOT
ATOM      1  O   UNL     1       3.531   7.785  17.692  0.00  0.00    +0.000 OA
ATOM      2  C   UNL     1       2.661   7.955  18.539  0.00  0.00    +0.000 C 
ATOM      3  C   UNL     1       1.612   9.085  18.337  0.00  0.00    +0.000 C 
ATOM      4  O   UNL     1       1.487   9.576  17.219  0.00  0.00    +0.000 OA
ATOM      5  N   UNL     1       0.876   9.474  19.465  0.00  0.00    +0.000 N 
ATOM      6  C   UNL     1       1.123   8.848  20.758  0.00  0.00    +0.000 C 
ATOM      7  C   UNL     1       1.415   7.358  20.580  0.00  0.00    +0.000 C 
ATOM      8  N   UNL     1       2.546   7.168  19.686  0.00  0.00    +0.000 N 
ENDROOT
BRANCH   5   9
ATOM      9  C   UNL     1      -0.118  10.493  19.350  0.00  0.00    +0.000 A 
ATOM     10  C   UNL     1      -1.358  10.138  18.792  0.00  0.00    +0.000 A 
ATOM     11  C   UNL     1      -2.378  11.080  18.640  0.00  0.00    +0.000 A 
ATOM     12  C   UNL     1      -2.168  12.399  19.023  0.00  0.00    +0.000 A 
ATOM     13  C   UNL     1      -0.940  12.774  19.569  0.00  0.00    +0.000 A 
ATOM     14  C   UNL     1       0.081  11.828  19.743  0.00  0.00    +0.000 A 
ATOM     15 BR   UNL     1       1.744  12.499  20.372  0.00  0.00    +0.000 Br
ENDBRANCH   5   9
BRANCH   8  16
ATOM     16  C   UNL     1       3.329   5.942  19.787  0.00  0.00    +0.000 C 
BRANCH  16  17
ATOM     17  C   UNL     1       2.567   4.689  19.405  0.00  0.00    +0.000 A 
ATOM     18  C   UNL     1       2.241   4.476  18.050  0.00  0.00    +0.000 A 
ATOM     19  C   UNL     1       1.428   3.408  17.662  0.00  0.00    +0.000 A 
ATOM     20  C   UNL     1       0.933   2.542  18.627  0.00  0.00    +0.000 A 
ATOM     21  F   UNL     1       0.125   1.539  18.262  0.00  0.00    +0.000 F 
ATOM     22  C   UNL     1       1.250   2.714  19.968  0.00  0.00    +0.000 A 
ATOM     23  C   UNL     1       2.066   3.780  20.354  0.00  0.00    +0.000 A 
ATOM     24 CL   UNL     1       2.414   3.926  22.042  0.00  0.00    +0.000 Cl
ENDBRANCH  16  17
ENDBRANCH   8  16
TORSDOF 3
ENDMDL
MODEL 9
REMARK VINA RESULT:      -6.7      5.810      7.774
REMARK  Name = 
REMARK  3 active torsions:
REMARK  status: ('A' for Active; 'I' for Inactive)
REMARK    1  A    between atoms: N_5  and  C_6
REMARK    2  A    between atoms: N_15  and  C_16
REMARK    3  A    between atoms: C_16  and  C_17
REMARK                            x       y       z     vdW  Elec       q    Type
REMARK                         _______ _______ _______ _____ _____    ______ ____
ROOT
ATOM      1  O   UNL     1       4.674   7.093  15.944  0.00  0.00    +0.000 OA
ATOM      2  C   UNL     1       4.907   6.097  16.621  0.00  0.00    +0.000 C 
ATOM      3  C   UNL     1       3.824   5.578  17.610  0.00  0.00    +0.000 C 
ATOM      4  O   UNL     1       2.671   5.978  17.480  0.00  0.00    +0.000 OA
ATOM      5  N   UNL     1       4.250   4.680  18.600  0.00  0.00    +0.000 N 
ATOM      6  C   UNL     1       5.653   4.291  18.687  0.00  0.00    +0.000 C 
ATOM      7  C   UNL     1       6.251   4.142  17.289  0.00  0.00    +0.000 C 
ATOM      8  N   UNL     1       6.102   5.380  16.541  0.00  0.00    +0.000 N 
ENDROOT
BRANCH   5   9
ATOM      9  C   UNL     1       3.308   4.148  19.530  0.00  0.00    +0.000 A 
ATOM     10  C   UNL     1       2.896   4.974  20.590  0.00  0.00    +0.000 A 
ATOM     11  C   UNL     1       1.982   4.522  21.545  0.00  0.00    +0.000 A 
ATOM     12  C   UNL     1       1.480   3.228  21.469  0.00  0.00    +0.000 A 
ATOM     13  C   UNL     1       1.885   2.389  20.431  0.00  0.00    +0.000 A 
ATOM     14  C   UNL     1       2.788   2.843  19.458  0.00  0.00    +0.000 A 
ATOM     15 BR   UNL     1       3.356   1.557  18.179  0.00  0.00    +0.000 Br
ENDBRANCH   5   9
BRANCH   8  16
ATOM     16  C   UNL     1       7.028   5.664  15.450  0.00  0.00    +0.000 C 
BRANCH  16  17
ATOM     17  C   UNL     1       6.732   4.902  14.175  0.00  0.00    +0.000 A 
ATOM     18  C   UNL     1       5.625   4.030  14.142  0.00  0.00    +0.000 A 
ATOM     19  C   UNL     1       5.387   3.206  13.039  0.00  0.00    +0.000 A 
ATOM     20  C   UNL     1       6.254   3.248  11.956  0.00  0.00    +0.000 A 
ATOM     21  F   UNL     1       6.048   2.435  10.913  0.00  0.00    +0.000 F 
ATOM     22  C   UNL     1       7.343   4.109  11.950  0.00  0.00    +0.000 A 
ATOM     23  C   UNL     1       7.579   4.935  13.052  0.00  0.00    +0.000 A 
ATOM     24 CL   UNL     1       8.956   5.978  12.967  0.00  0.00    +0.000 Cl
ENDBRANCH  16  17
ENDBRANCH   8  16
TORSDOF 3
ENDMDL
