MODEL 1
REMARK VINA RESULT:      -7.8      0.000      0.000
REMARK  Name = 
REMARK  7 active torsions:
REMARK  status: ('A' for Active; 'I' for Inactive)
REMARK    1  A    between atoms: C_1  and  C_2
REMARK    2  A    between atoms: C_2  and  N_3
REMARK    3  A    between atoms: N_3  and  C_4
REMARK    4  A    between atoms: C_4  and  C_5
REMARK    5  A    between atoms: C_6  and  C_8
REMARK    6  A    between atoms: C_11  and  C_12
REMARK    7  A    between atoms: C_22  and  O_23
REMARK                            x       y       z     vdW  Elec       q    Type
REMARK                         _______ _______ _______ _____ _____    ______ ____
ROOT
ATOM      1  C   UNL     1       3.798   6.035  17.785  0.00  0.00    +0.000 A 
ATOM      2  C   UNL     1       3.611   7.292  17.209  0.00  0.00    +0.000 A 
ATOM      3  C   UNL     1       2.881   8.279  17.870  0.00  0.00    +0.000 A 
ATOM      4  C   UNL     1       2.191   8.000  19.056  0.00  0.00    +0.000 A 
ATOM      5  C   UNL     1       2.392   6.738  19.643  0.00  0.00    +0.000 A 
ATOM      6  C   UNL     1       3.190   5.767  19.017  0.00  0.00    +0.000 A 
ENDROOT
BRANCH   4   7
ATOM      7  C   UNL     1       1.139   8.914  19.575  0.00  0.00    +0.000 A 
ATOM      8  O   UNL     1       0.366   9.538  18.593  0.00  0.00    +0.000 OA
ATOM      9  C   UNL     1      -0.600  10.432  18.997  0.00  0.00    +0.000 A 
ATOM     10  C   UNL     1      -1.556  10.843  18.070  0.00  0.00    +0.000 A 
ATOM     11  C   UNL     1      -2.549  11.764  18.457  0.00  0.00    +0.000 A 
ATOM     12  C   UNL     1      -2.556  12.305  19.743  0.00  0.00    +0.000 A 
ATOM     13  C   UNL     1      -1.597  11.900  20.665  0.00  0.00    +0.000 A 
ATOM     14  C   UNL     1      -0.655  10.938  20.293  0.00  0.00    +0.000 A 
ATOM     15  C   UNL     1       0.236  10.375  21.300  0.00  0.00    +0.000 A 
ATOM     16  O   UNL     1       0.312  10.797  22.450  0.00  0.00    +0.000 OA
ATOM     17  C   UNL     1       1.047   9.214  20.893  0.00  0.00    +0.000 A 
BRANCH  17  18
ATOM     18  O   UNL     1       1.702   8.554  21.913  0.00  0.00    +0.000 OA
ATOM     19  H   UNL     1       1.768   7.623  21.607  0.00  0.00    +0.000 HD
ENDBRANCH  17  18
ENDBRANCH   4   7
BRANCH   1  21
ATOM     20  N   UNL     1       5.857   5.088  16.687  0.00  0.00    +0.000 N 
ATOM     21  C   UNL     1       4.511   4.941  17.075  0.00  0.00    +0.000 C 
ATOM     22  O   UNL     1       3.870   3.916  16.844  0.00  0.00    +0.000 OA
BRANCH  20  24
ATOM     23  C   UNL     1       6.617   4.486  14.400  0.00  0.00    +0.000 C 
ATOM     24  C   UNL     1       6.408   4.028  15.837  0.00  0.00    +0.000 C 
ENDBRANCH  20  24
BRANCH  20  25
ATOM     25  C   UNL     1       6.684   6.258  17.021  0.00  0.00    +0.000 C 
ATOM     26  C   UNL     1       7.497   6.244  18.305  0.00  0.00    +0.000 C 
ENDBRANCH  20  25
ENDBRANCH   1  21
TORSDOF 5
ENDMDL
MODEL 2
REMARK VINA RESULT:      -7.7      2.901      4.041
REMARK  Name = 
REMARK  7 active torsions:
REMARK  status: ('A' for Active; 'I' for Inactive)
REMARK    1  A    between atoms: C_1  and  C_2
REMARK    2  A    between atoms: C_2  and  N_3
REMARK    3  A    between atoms: N_3  and  C_4
REMARK    4  A    between atoms: C_4  and  C_5
REMARK    5  A    between atoms: C_6  and  C_8
REMARK    6  A    between atoms: C_11  and  C_12
REMARK    7  A    between atoms: C_22  and  O_23
REMARK                            x       y       z     vdW  Elec       q    Type
REMARK                         _______ _______ _______ _____ _____    ______ ____
ROOT
ATOM      1  C   UNL     1       2.716   6.726  19.154  0.00  0.00    +0.000 A 
ATOM      2  C   UNL     1       2.069   7.330  20.232  0.00  0.00    +0.000 A 
ATOM      3  C   UNL     1       1.349   8.512  20.063  0.00  0.00    +0.000 A 
ATOM      4  C   UNL     1       1.371   9.208  18.848  0.00  0.00    +0.000 A 
ATOM      5  C   UNL     1       2.011   8.592  17.758  0.00  0.00    +0.000 A 
ATOM      6  C   UNL     1       2.673   7.362  17.907  0.00  0.00    +0.000 A 
ENDROOT
BRANCH   4   7
ATOM      7  C   UNL     1       0.916  10.621  18.755  0.00  0.00    +0.000 A 
ATOM      8  O   UNL     1       1.938  11.572  18.804  0.00  0.00    +0.000 OA
ATOM      9  C   UNL     1       1.589  12.904  18.767  0.00  0.00    +0.000 A 
ATOM     10  C   UNL     1       2.588  13.846  18.531  0.00  0.00    +0.000 A 
ATOM     11  C   UNL     1       2.257  15.215  18.498  0.00  0.00    +0.000 A 
ATOM     12  C   UNL     1       0.951  15.639  18.746  0.00  0.00    +0.000 A 
ATOM     13  C   UNL     1      -0.043  14.697  18.988  0.00  0.00    +0.000 A 
ATOM     14  C   UNL     1       0.280  13.338  18.956  0.00  0.00    +0.000 A 
ATOM     15  C   UNL     1      -0.782  12.342  19.028  0.00  0.00    +0.000 A 
ATOM     16  O   UNL     1      -1.956  12.619  19.260  0.00  0.00    +0.000 OA
ATOM     17  C   UNL     1      -0.399  10.944  18.766  0.00  0.00    +0.000 A 
BRANCH  17  18
ATOM     18  O   UNL     1      -1.444  10.057  18.606  0.00  0.00    +0.000 OA
ATOM     19  H   UNL     1      -2.079  10.287  19.320  0.00  0.00    +0.000 HD
ENDBRANCH  17  18
ENDBRANCH   4   7
BRANCH   1  21
ATOM     20  N   UNL     1       2.959   4.225  19.330  0.00  0.00    +0.000 N 
ATOM     21  C   UNL     1       3.547   5.505  19.317  0.00  0.00    +0.000 C 
ATOM     22  O   UNL     1       4.761   5.671  19.442  0.00  0.00    +0.000 OA
BRANCH  20  24
ATOM     23  C   UNL     1       3.721   1.947  18.700  0.00  0.00    +0.000 C 
ATOM     24  C   UNL     1       3.841   3.108  19.678  0.00  0.00    +0.000 C 
ENDBRANCH  20  24
BRANCH  20  25
ATOM     25  C   UNL     1       1.527   3.979  19.095  0.00  0.00    +0.000 C 
ATOM     26  C   UNL     1       0.682   3.411  20.222  0.00  0.00    +0.000 C 
ENDBRANCH  20  25
ENDBRANCH   1  21
TORSDOF 5
ENDMDL
MODEL 3
REMARK VINA RESULT:      -7.7      2.495      8.480
REMARK  Name = 
REMARK  7 active torsions:
REMARK  status: ('A' for Active; 'I' for Inactive)
REMARK    1  A    between atoms: C_1  and  C_2
REMARK    2  A    between atoms: C_2  and  N_3
REMARK    3  A    between atoms: N_3  and  C_4
REMARK    4  A    between atoms: C_4  and  C_5
REMARK    5  A    between atoms: C_6  and  C_8
REMARK    6  A    between atoms: C_11  and  C_12
REMARK    7  A    between atoms: C_22  and  O_23
REMARK                            x       y       z     vdW  Elec       q    Type
REMARK                         _______ _______ _______ _____ _____    ______ ____
ROOT
ATOM      1  C   UNL     1       0.990  10.007  19.805  0.00  0.00    +0.000 A 
ATOM      2  C   UNL     1       1.352   9.965  18.459  0.00  0.00    +0.000 A 
ATOM      3  C   UNL     1       1.862   8.798  17.892  0.00  0.00    +0.000 A 
ATOM      4  C   UNL     1       2.164   7.681  18.681  0.00  0.00    +0.000 A 
ATOM      5  C   UNL     1       1.786   7.718  20.034  0.00  0.00    +0.000 A 
ATOM      6  C   UNL     1       1.200   8.867  20.591  0.00  0.00    +0.000 A 
ENDROOT
BRANCH   4   7
ATOM      7  C   UNL     1       3.024   6.580  18.168  0.00  0.00    +0.000 A 
ATOM      8  O   UNL     1       4.203   6.996  17.545  0.00  0.00    +0.000 OA
ATOM      9  C   UNL     1       5.029   6.034  17.008  0.00  0.00    +0.000 A 
ATOM     10  C   UNL     1       6.323   6.398  16.641  0.00  0.00    +0.000 A 
ATOM     11  C   UNL     1       7.183   5.433  16.080  0.00  0.00    +0.000 A 
ATOM     12  C   UNL     1       6.737   4.132  15.844  0.00  0.00    +0.000 A 
ATOM     13  C   UNL     1       5.443   3.773  16.204  0.00  0.00    +0.000 A 
ATOM     14  C   UNL     1       4.617   4.717  16.818  0.00  0.00    +0.000 A 
ATOM     15  C   UNL     1       3.329   4.304  17.362  0.00  0.00    +0.000 A 
ATOM     16  O   UNL     1       2.848   3.187  17.190  0.00  0.00    +0.000 OA
ATOM     17  C   UNL     1       2.611   5.290  18.187  0.00  0.00    +0.000 A 
BRANCH  17  18
ATOM     18  O   UNL     1       1.518   4.808  18.881  0.00  0.00    +0.000 OA
ATOM     19  H   UNL     1       1.816   4.764  19.816  0.00  0.00    +0.000 HD
ENDBRANCH  17  18
ENDBRANCH   4   7
BRANCH   1  21
ATOM     20  N   UNL     1      -0.755  11.794  20.140  0.00  0.00    +0.000 N 
ATOM     21  C   UNL     1       0.509  11.255  20.453  0.00  0.00    +0.000 C 
ATOM     22  O   UNL     1       1.266  11.789  21.265  0.00  0.00    +0.000 OA
BRANCH  20  24
ATOM     23  C   UNL     1      -2.075  13.057  21.822  0.00  0.00    +0.000 C 
ATOM     24  C   UNL     1      -1.054  13.117  20.694  0.00  0.00    +0.000 C 
ENDBRANCH  20  24
BRANCH  20  25
ATOM     25  C   UNL     1      -1.724  11.141  19.245  0.00  0.00    +0.000 C 
ATOM     26  C   UNL     1      -1.910  11.685  17.838  0.00  0.00    +0.000 C 
ENDBRANCH  20  25
ENDBRANCH   1  21
TORSDOF 5
ENDMDL
MODEL 4
REMARK VINA RESULT:      -7.6      1.271      2.478
REMARK  Name = 
REMARK  7 active torsions:
REMARK  status: ('A' for Active; 'I' for Inactive)
REMARK    1  A    between atoms: C_1  and  C_2
REMARK    2  A    between atoms: C_2  and  N_3
REMARK    3  A    between atoms: N_3  and  C_4
REMARK    4  A    between atoms: C_4  and  C_5
REMARK    5  A    between atoms: C_6  and  C_8
REMARK    6  A    between atoms: C_11  and  C_12
REMARK    7  A    between atoms: C_22  and  O_23
REMARK                            x       y       z     vdW  Elec       q    Type
REMARK                         _______ _______ _______ _____ _____    ______ ____
ROOT
ATOM      1  C   UNL     1       3.937   6.071  18.258  0.00  0.00    +0.000 A 
ATOM      2  C   UNL     1       3.285   5.991  19.488  0.00  0.00    +0.000 A 
ATOM      3  C   UNL     1       2.292   6.907  19.832  0.00  0.00    +0.000 A 
ATOM      4  C   UNL     1       2.019   8.018  19.024  0.00  0.00    +0.000 A 
ATOM      5  C   UNL     1       2.665   8.091  17.778  0.00  0.00    +0.000 A 
ATOM      6  C   UNL     1       3.612   7.125  17.396  0.00  0.00    +0.000 A 
ENDROOT
BRANCH   4   7
ATOM      7  C   UNL     1       1.235   9.174  19.536  0.00  0.00    +0.000 A 
ATOM      8  O   UNL     1       0.654   8.981  20.791  0.00  0.00    +0.000 OA
ATOM      9  C   UNL     1      -0.123   9.993  21.310  0.00  0.00    +0.000 A 
ATOM     10  C   UNL     1      -0.472   9.939  22.658  0.00  0.00    +0.000 A 
ATOM     11  C   UNL     1      -1.273  10.957  23.210  0.00  0.00    +0.000 A 
ATOM     12  C   UNL     1      -1.761  11.992  22.411  0.00  0.00    +0.000 A 
ATOM     13  C   UNL     1      -1.418  12.041  21.063  0.00  0.00    +0.000 A 
ATOM     14  C   UNL     1      -0.571  11.062  20.539  0.00  0.00    +0.000 A 
ATOM     15  C   UNL     1      -0.060  11.204  19.180  0.00  0.00    +0.000 A 
ATOM     16  O   UNL     1      -0.443  12.071  18.399  0.00  0.00    +0.000 OA
ATOM     17  C   UNL     1       0.997  10.264  18.768  0.00  0.00    +0.000 A 
BRANCH  17  18
ATOM     18  O   UNL     1       1.628  10.559  17.575  0.00  0.00    +0.000 OA
ATOM     19  H   UNL     1       1.023  11.184  17.120  0.00  0.00    +0.000 HD
ENDBRANCH  17  18
ENDBRANCH   4   7
BRANCH   1  21
ATOM     20  N   UNL     1       6.267   5.652  17.396  0.00  0.00    +0.000 N 
ATOM     21  C   UNL     1       5.047   5.152  17.892  0.00  0.00    +0.000 C 
ATOM     22  O   UNL     1       4.843   3.946  18.040  0.00  0.00    +0.000 OA
BRANCH  20  24
ATOM     23  C   UNL     1       7.121   4.463  15.390  0.00  0.00    +0.000 C 
ATOM     24  C   UNL     1       7.221   4.659  16.896  0.00  0.00    +0.000 C 
ENDBRANCH  20  24
BRANCH  20  25
ATOM     25  C   UNL     1       6.581   7.085  17.289  0.00  0.00    +0.000 C 
ATOM     26  C   UNL     1       7.861   7.608  17.920  0.00  0.00    +0.000 C 
ENDBRANCH  20  25
ENDBRANCH   1  21
TORSDOF 5
ENDMDL
MODEL 5
REMARK VINA RESULT:      -7.6      2.860      8.341
REMARK  Name = 
REMARK  7 active torsions:
REMARK  status: ('A' for Active; 'I' for Inactive)
REMARK    1  A    between atoms: C_1  and  C_2
REMARK    2  A    between atoms: C_2  and  N_3
REMARK    3  A    between atoms: N_3  and  C_4
REMARK    4  A    between atoms: C_4  and  C_5
REMARK    5  A    between atoms: C_6  and  C_8
REMARK    6  A    between atoms: C_11  and  C_12
REMARK    7  A    between atoms: C_22  and  O_23
REMARK                            x       y       z     vdW  Elec       q    Type
REMARK                         _______ _______ _______ _____ _____    ______ ____
ROOT
ATOM      1  C   UNL     1       0.837  10.146  19.383  0.00  0.00    +0.000 A 
ATOM      2  C   UNL     1       0.997   9.181  20.376  0.00  0.00    +0.000 A 
ATOM      3  C   UNL     1       1.758   8.036  20.146  0.00  0.00    +0.000 A 
ATOM      4  C   UNL     1       2.264   7.746  18.872  0.00  0.00    +0.000 A 
ATOM      5  C   UNL     1       2.115   8.725  17.875  0.00  0.00    +0.000 A 
ATOM      6  C   UNL     1       1.413   9.915  18.127  0.00  0.00    +0.000 A 
ENDROOT
BRANCH   4   7
ATOM      7  C   UNL     1       2.760   6.387  18.526  0.00  0.00    +0.000 A 
ATOM      8  O   UNL     1       1.992   5.334  19.030  0.00  0.00    +0.000 OA
ATOM      9  C   UNL     1       2.414   4.046  18.787  0.00  0.00    +0.000 A 
ATOM     10  C   UNL     1       1.529   2.999  19.030  0.00  0.00    +0.000 A 
ATOM     11  C   UNL     1       1.941   1.672  18.798  0.00  0.00    +0.000 A 
ATOM     12  C   UNL     1       3.241   1.394  18.373  0.00  0.00    +0.000 A 
ATOM     13  C   UNL     1       4.126   2.441  18.138  0.00  0.00    +0.000 A 
ATOM     14  C   UNL     1       3.690   3.756  18.309  0.00  0.00    +0.000 A 
ATOM     15  C   UNL     1       4.547   4.860  17.893  0.00  0.00    +0.000 A 
ATOM     16  O   UNL     1       5.708   4.714  17.523  0.00  0.00    +0.000 OA
ATOM     17  C   UNL     1       3.943   6.204  17.893  0.00  0.00    +0.000 A 
BRANCH  17  18
ATOM     18  O   UNL     1       4.686   7.193  17.279  0.00  0.00    +0.000 OA
ATOM     19  H   UNL     1       4.172   8.018  17.425  0.00  0.00    +0.000 HD
ENDBRANCH  17  18
ENDBRANCH   4   7
BRANCH   1  21
ATOM     20  N   UNL     1      -1.345  11.369  19.086  0.00  0.00    +0.000 N 
ATOM     21  C   UNL     1      -0.025  11.341  19.576  0.00  0.00    +0.000 C 
ATOM     22  O   UNL     1       0.472  12.296  20.175  0.00  0.00    +0.000 OA
BRANCH  20  24
ATOM     23  C   UNL     1      -3.196  12.628  20.161  0.00  0.00    +0.000 C 
ATOM     24  C   UNL     1      -2.043  12.655  19.167  0.00  0.00    +0.000 C 
ENDBRANCH  20  24
BRANCH  20  25
ATOM     25  C   UNL     1      -2.005  10.220  18.445  0.00  0.00    +0.000 C 
ATOM     26  C   UNL     1      -2.128  10.191  16.931  0.00  0.00    +0.000 C 
ENDBRANCH  20  25
ENDBRANCH   1  21
TORSDOF 5
ENDMDL
MODEL 6
REMARK VINA RESULT:      -7.5      2.623      8.295
REMARK  Name = 
REMARK  7 active torsions:
REMARK  status: ('A' for Active; 'I' for Inactive)
REMARK    1  A    between atoms: C_1  and  C_2
REMARK    2  A    between atoms: C_2  and  N_3
REMARK    3  A    between atoms: N_3  and  C_4
REMARK    4  A    between atoms: C_4  and  C_5
REMARK    5  A    between atoms: C_6  and  C_8
REMARK    6  A    between atoms: C_11  and  C_12
REMARK    7  A    between atoms: C_22  and  O_23
REMARK                            x       y       z     vdW  Elec       q    Type
REMARK                         _______ _______ _______ _____ _____    ______ ____
ROOT
ATOM      1  C   UNL     1       0.269  10.252  19.487  0.00  0.00    +0.000 A 
ATOM      2  C   UNL     1       0.506   9.230  20.406  0.00  0.00    +0.000 A 
ATOM      3  C   UNL     1       1.494   8.275  20.173  0.00  0.00    +0.000 A 
ATOM      4  C   UNL     1       2.178   8.221  18.952  0.00  0.00    +0.000 A 
ATOM      5  C   UNL     1       1.950   9.259  18.033  0.00  0.00    +0.000 A 
ATOM      6  C   UNL     1       1.008  10.268  18.298  0.00  0.00    +0.000 A 
ENDROOT
BRANCH   4   7
ATOM      7  C   UNL     1       2.962   7.021  18.555  0.00  0.00    +0.000 A 
ATOM      8  O   UNL     1       3.634   7.135  17.335  0.00  0.00    +0.000 OA
ATOM      9  C   UNL     1       4.346   6.047  16.881  0.00  0.00    +0.000 A 
ATOM     10  C   UNL     1       5.241   6.230  15.829  0.00  0.00    +0.000 A 
ATOM     11  C   UNL     1       5.973   5.130  15.341  0.00  0.00    +0.000 A 
ATOM     12  C   UNL     1       5.777   3.853  15.867  0.00  0.00    +0.000 A 
ATOM     13  C   UNL     1       4.878   3.671  16.913  0.00  0.00    +0.000 A 
ATOM     14  C   UNL     1       4.203   4.777  17.434  0.00  0.00    +0.000 A 
ATOM     15  C   UNL     1       3.400   4.628  18.642  0.00  0.00    +0.000 A 
ATOM     16  O   UNL     1       3.159   3.544  19.166  0.00  0.00    +0.000 OA
ATOM     17  C   UNL     1       2.900   5.868  19.262  0.00  0.00    +0.000 A 
BRANCH  17  18
ATOM     18  O   UNL     1       2.349   5.727  20.520  0.00  0.00    +0.000 OA
ATOM     19  H   UNL     1       1.719   6.476  20.602  0.00  0.00    +0.000 HD
ENDBRANCH  17  18
ENDBRANCH   4   7
BRANCH   1  21
ATOM     20  N   UNL     1      -2.047  11.110  18.988  0.00  0.00    +0.000 N 
ATOM     21  C   UNL     1      -0.823  11.243  19.674  0.00  0.00    +0.000 C 
ATOM     22  O   UNL     1      -0.603  12.176  20.447  0.00  0.00    +0.000 OA
BRANCH  20  24
ATOM     23  C   UNL     1      -4.422  11.818  18.837  0.00  0.00    +0.000 C 
ATOM     24  C   UNL     1      -2.982  12.232  19.101  0.00  0.00    +0.000 C 
ENDBRANCH  20  24
BRANCH  20  25
ATOM     25  C   UNL     1      -2.382   9.964  18.126  0.00  0.00    +0.000 C 
ATOM     26  C   UNL     1      -2.176  10.085  16.626  0.00  0.00    +0.000 C 
ENDBRANCH  20  25
ENDBRANCH   1  21
TORSDOF 5
ENDMDL
MODEL 7
REMARK VINA RESULT:      -7.4      3.132      8.173
REMARK  Name = 
REMARK  7 active torsions:
REMARK  status: ('A' for Active; 'I' for Inactive)
REMARK    1  A    between atoms: C_1  and  C_2
REMARK    2  A    between atoms: C_2  and  N_3
REMARK    3  A    between atoms: N_3  and  C_4
REMARK    4  A    between atoms: C_4  and  C_5
REMARK    5  A    between atoms: C_6  and  C_8
REMARK    6  A    between atoms: C_11  and  C_12
REMARK    7  A    between atoms: C_22  and  O_23
REMARK                            x       y       z     vdW  Elec       q    Type
REMARK                         _______ _______ _______ _____ _____    ______ ____
ROOT
ATOM      1  C   UNL     1       0.697  10.214  19.332  0.00  0.00    +0.000 A 
ATOM      2  C   UNL     1       0.986   9.323  20.365  0.00  0.00    +0.000 A 
ATOM      3  C   UNL     1       1.763   8.188  20.135  0.00  0.00    +0.000 A 
ATOM      4  C   UNL     1       2.154   7.828  18.839  0.00  0.00    +0.000 A 
ATOM      5  C   UNL     1       1.876   8.734  17.800  0.00  0.00    +0.000 A 
ATOM      6  C   UNL     1       1.158   9.917  18.043  0.00  0.00    +0.000 A 
ENDROOT
BRANCH   4   7
ATOM      7  C   UNL     1       2.664   6.465  18.534  0.00  0.00    +0.000 A 
ATOM      8  O   UNL     1       1.879   5.420  19.027  0.00  0.00    +0.000 OA
ATOM      9  C   UNL     1       2.311   4.128  18.820  0.00  0.00    +0.000 A 
ATOM     10  C   UNL     1       1.418   3.084  19.048  0.00  0.00    +0.000 A 
ATOM     11  C   UNL     1       1.840   1.754  18.853  0.00  0.00    +0.000 A 
ATOM     12  C   UNL     1       3.154   1.471  18.481  0.00  0.00    +0.000 A 
ATOM     13  C   UNL     1       4.047   2.515  18.261  0.00  0.00    +0.000 A 
ATOM     14  C   UNL     1       3.603   3.832  18.395  0.00  0.00    +0.000 A 
ATOM     15  C   UNL     1       4.474   4.930  17.992  0.00  0.00    +0.000 A 
ATOM     16  O   UNL     1       5.648   4.780  17.667  0.00  0.00    +0.000 OA
ATOM     17  C   UNL     1       3.870   6.273  17.948  0.00  0.00    +0.000 A 
BRANCH  17  18
ATOM     18  O   UNL     1       4.633   7.253  17.345  0.00  0.00    +0.000 OA
ATOM     19  H   UNL     1       4.339   8.092  17.764  0.00  0.00    +0.000 HD
ENDBRANCH  17  18
ENDBRANCH   4   7
BRANCH   1  21
ATOM     20  N   UNL     1       0.357  12.666  19.798  0.00  0.00    +0.000 N 
ATOM     21  C   UNL     1      -0.185  11.393  19.531  0.00  0.00    +0.000 C 
ATOM     22  O   UNL     1      -1.399  11.200  19.456  0.00  0.00    +0.000 OA
BRANCH  20  24
ATOM     23  C   UNL     1      -0.052  14.659  21.222  0.00  0.00    +0.000 C 
ATOM     24  C   UNL     1      -0.598  13.717  20.158  0.00  0.00    +0.000 C 
ENDBRANCH  20  24
BRANCH  20  25
ATOM     25  C   UNL     1       1.800  12.956  19.808  0.00  0.00    +0.000 C 
ATOM     26  C   UNL     1       2.466  13.424  18.525  0.00  0.00    +0.000 C 
ENDBRANCH  20  25
ENDBRANCH   1  21
TORSDOF 5
ENDMDL
MODEL 8
REMARK VINA RESULT:      -7.4      1.130      2.239
REMARK  Name = 
REMARK  7 active torsions:
REMARK  status: ('A' for Active; 'I' for Inactive)
REMARK    1  A    between atoms: C_1  and  C_2
REMARK    2  A    between atoms: C_2  and  N_3
REMARK    3  A    between atoms: N_3  and  C_4
REMARK    4  A    between atoms: C_4  and  C_5
REMARK    5  A    between atoms: C_6  and  C_8
REMARK    6  A    between atoms: C_11  and  C_12
REMARK    7  A    between atoms: C_22  and  O_23
REMARK                            x       y       z     vdW  Elec       q    Type
REMARK                         _______ _______ _______ _____ _____    ______ ____
ROOT
ATOM      1  C   UNL     1       3.586   5.865  17.819  0.00  0.00    +0.000 A 
ATOM      2  C   UNL     1       3.572   7.117  17.206  0.00  0.00    +0.000 A 
ATOM      3  C   UNL     1       3.005   8.220  17.845  0.00  0.00    +0.000 A 
ATOM      4  C   UNL     1       2.305   8.079  19.051  0.00  0.00    +0.000 A 
ATOM      5  C   UNL     1       2.333   6.820  19.675  0.00  0.00    +0.000 A 
ATOM      6  C   UNL     1       2.970   5.724  19.069  0.00  0.00    +0.000 A 
ENDROOT
BRANCH   4   7
ATOM      7  C   UNL     1       1.406   9.151  19.555  0.00  0.00    +0.000 A 
ATOM      8  O   UNL     1       0.878   8.924  20.829  0.00  0.00    +0.000 OA
ATOM      9  C   UNL     1       0.003   9.854  21.344  0.00  0.00    +0.000 A 
ATOM     10  C   UNL     1      -0.308   9.794  22.701  0.00  0.00    +0.000 A 
ATOM     11  C   UNL     1      -1.208  10.728  23.250  0.00  0.00    +0.000 A 
ATOM     12  C   UNL     1      -1.827  11.681  22.440  0.00  0.00    +0.000 A 
ATOM     13  C   UNL     1      -1.521  11.735  21.084  0.00  0.00    +0.000 A 
ATOM     14  C   UNL     1      -0.580  10.846  20.561  0.00  0.00    +0.000 A 
ATOM     15  C   UNL     1      -0.119  11.012  19.187  0.00  0.00    +0.000 A 
ATOM     16  O   UNL     1      -0.615  11.810  18.398  0.00  0.00    +0.000 OA
ATOM     17  C   UNL     1       1.029  10.188  18.770  0.00  0.00    +0.000 A 
BRANCH  17  18
ATOM     18  O   UNL     1       1.596  10.523  17.556  0.00  0.00    +0.000 OA
ATOM     19  H   UNL     1       2.293   9.846  17.411  0.00  0.00    +0.000 HD
ENDBRANCH  17  18
ENDBRANCH   4   7
BRANCH   1  21
ATOM     20  N   UNL     1       5.406   4.662  16.559  0.00  0.00    +0.000 N 
ATOM     21  C   UNL     1       4.120   4.659  17.134  0.00  0.00    +0.000 C 
ATOM     22  O   UNL     1       3.386   3.670  17.094  0.00  0.00    +0.000 OA
BRANCH  20  24
ATOM     23  C   UNL     1       6.255   3.868  14.365  0.00  0.00    +0.000 C 
ATOM     24  C   UNL     1       5.762   3.491  15.754  0.00  0.00    +0.000 C 
ENDBRANCH  20  24
BRANCH  20  25
ATOM     25  C   UNL     1       6.346   5.789  16.663  0.00  0.00    +0.000 C 
ATOM     26  C   UNL     1       7.312   5.838  17.835  0.00  0.00    +0.000 C 
ENDBRANCH  20  25
ENDBRANCH   1  21
TORSDOF 5
ENDMDL
MODEL 9
REMARK VINA RESULT:      -7.3      2.395      8.422
REMARK  Name = 
REMARK  7 active torsions:
REMARK  status: ('A' for Active; 'I' for Inactive)
REMARK    1  A    between atoms: C_1  and  C_2
REMARK    2  A    between atoms: C_2  and  N_3
REMARK    3  A    between atoms: N_3  and  C_4
REMARK    4  A    between atoms: C_4  and  C_5
REMARK    5  A    between atoms: C_6  and  C_8
REMARK    6  A    between atoms: C_11  and  C_12
REMARK    7  A    between atoms: C_22  and  O_23
REMARK                            x       y       z     vdW  Elec       q    Type
REMARK                         _______ _______ _______ _____ _____    ______ ____
ROOT
ATOM      1  C   UNL     1       0.629   9.603  19.950  0.00  0.00    +0.000 A 
ATOM      2  C   UNL     1       1.016   8.506  20.718  0.00  0.00    +0.000 A 
ATOM      3  C   UNL     1       1.954   7.592  20.239  0.00  0.00    +0.000 A 
ATOM      4  C   UNL     1       2.428   7.662  18.922  0.00  0.00    +0.000 A 
ATOM      5  C   UNL     1       2.049   8.776  18.154  0.00  0.00    +0.000 A 
ATOM      6  C   UNL     1       1.162   9.740  18.662  0.00  0.00    +0.000 A 
ENDROOT
BRANCH   4   7
ATOM      7  C   UNL     1       3.137   6.517  18.291  0.00  0.00    +0.000 A 
ATOM      8  O   UNL     1       4.267   6.863  17.547  0.00  0.00    +0.000 OA
ATOM      9  C   UNL     1       4.951   5.859  16.898  0.00  0.00    +0.000 A 
ATOM     10  C   UNL     1       6.220   6.136  16.395  0.00  0.00    +0.000 A 
ATOM     11  C   UNL     1       6.935   5.128  15.719  0.00  0.00    +0.000 A 
ATOM     12  C   UNL     1       6.366   3.872  15.506  0.00  0.00    +0.000 A 
ATOM     13  C   UNL     1       5.096   3.599  16.002  0.00  0.00    +0.000 A 
ATOM     14  C   UNL     1       4.419   4.583  16.727  0.00  0.00    +0.000 A 
ATOM     15  C   UNL     1       3.172   4.250  17.404  0.00  0.00    +0.000 A 
ATOM     16  O   UNL     1       2.590   3.179  17.264  0.00  0.00    +0.000 OA
ATOM     17  C   UNL     1       2.629   5.262  18.328  0.00  0.00    +0.000 A 
BRANCH  17  18
ATOM     18  O   UNL     1       1.587   4.841  19.130  0.00  0.00    +0.000 OA
ATOM     19  H   UNL     1       1.875   5.052  20.045  0.00  0.00    +0.000 HD
ENDBRANCH  17  18
ENDBRANCH   4   7
BRANCH   1  21
ATOM     20  N   UNL     1      -1.371  11.067  19.504  0.00  0.00    +0.000 N 
ATOM     21  C   UNL     1      -0.418  10.554  20.405  0.00  0.00    +0.000 C 
ATOM     22  O   UNL     1      -0.406  10.868  21.596  0.00  0.00    +0.000 OA
BRANCH  20  24
ATOM     23  C   UNL     1      -1.599  13.507  19.904  0.00  0.00    +0.000 C 
ATOM     24  C   UNL     1      -2.241  12.131  20.012  0.00  0.00    +0.000 C 
ENDBRANCH  20  24
BRANCH  20  25
ATOM     25  C   UNL     1      -1.476  10.649  18.097  0.00  0.00    +0.000 C 
ATOM     26  C   UNL     1      -2.678   9.831  17.658  0.00  0.00    +0.000 C 
ENDBRANCH  20  25
ENDBRANCH   1  21
TORSDOF 5
ENDMDL
