MODEL 1
REMARK VINA RESULT:      -7.6      0.000      0.000
REMARK  Name = 
REMARK  10 active torsions:
REMARK  status: ('A' for Active; 'I' for Inactive)
REMARK    1  A    between atoms: C_1  and  O_2
REMARK    2  A    between atoms: O_2  and  C_3
REMARK    3  A    between atoms: C_3  and  C_5
REMARK    4  A    between atoms: C_7  and  C_8
REMARK    5  A    between atoms: C_8  and  C_9
REMARK    6  A    between atoms: C_8  and  C_10
REMARK    7  A    between atoms: C_8  and  C_11
REMARK    8  A    between atoms: C_13  and  N_14
REMARK    9  A    between atoms: N_17  and  C_18
REMARK   10  A    between atoms: C_21  and  C_22
REMARK                            x       y       z     vdW  Elec       q    Type
REMARK                         _______ _______ _______ _____ _____    ______ ____
ROOT
ATOM      1  C   UNL     1       2.628   4.572  18.630  0.00  0.00    +0.000 A 
ATOM      2  N   UNL     1       3.471   4.248  17.560  0.00  0.00    +0.000 NA
ATOM      3  C   UNL     1       4.435   5.135  17.423  0.00  0.00    +0.000 A 
ATOM      4  S   UNL     1       4.351   6.449  18.549  0.00  0.00    +0.000 S 
ATOM      5  C   UNL     1       3.027   5.705  19.319  0.00  0.00    +0.000 A 
ENDROOT
BRANCH   5   6
ATOM      6  N   UNL     1       2.593   6.305  20.494  0.00  0.00    +0.000 N 
ATOM      7  C   UNL     1       1.872   7.488  20.375  0.00  0.00    +0.000 C 
ATOM      8  O   UNL     1       1.523   7.948  19.288  0.00  0.00    +0.000 OA
ATOM      9  N   UNL     1       1.583   8.054  21.609  0.00  0.00    +0.000 N 
ATOM     10  H   UNL     1       2.287   5.686  21.231  0.00  0.00    +0.000 HD
ATOM     11  H   UNL     1       2.239   7.833  22.343  0.00  0.00    +0.000 HD
BRANCH   9  12
ATOM     12  C   UNL     1       0.800   9.222  21.786  0.00  0.00    +0.000 A 
ATOM     13  C   UNL     1       0.971  10.372  21.011  0.00  0.00    +0.000 A 
ATOM     14  C   UNL     1       0.256  11.542  21.290  0.00  0.00    +0.000 A 
ATOM     15  C   UNL     1      -0.658  11.581  22.343  0.00  0.00    +0.000 A 
ATOM     16  C   UNL     1      -1.352  12.860  22.705  0.00  0.00    +0.000 C 
ATOM     17  C   UNL     1      -0.889  10.409  23.074  0.00  0.00    +0.000 A 
ATOM     18  C   UNL     1      -0.174   9.235  22.790  0.00  0.00    +0.000 A 
ENDBRANCH   9  12
ENDBRANCH   5   6
BRANCH   3  19
ATOM     19  C   UNL     1       5.525   5.029  16.355  0.00  0.00    +0.000 C 
ATOM     20  C   UNL     1       6.915   5.211  17.009  0.00  0.00    +0.000 C 
ATOM     21  C   UNL     1       5.504   3.649  15.676  0.00  0.00    +0.000 C 
ATOM     22  C   UNL     1       5.363   6.133  15.295  0.00  0.00    +0.000 C 
ENDBRANCH   3  19
BRANCH   1  23
ATOM     23  C   UNL     1       1.417   3.793  18.899  0.00  0.00    +0.000 C 
ATOM     24  O   UNL     1       0.911   3.017  18.092  0.00  0.00    +0.000 OA
BRANCH  23  26
ATOM     25  C   UNL     1       1.295   2.903  21.064  0.00  0.00    +0.000 C 
ATOM     26  O   UNL     1       0.965   3.968  20.179  0.00  0.00    +0.000 OA
ENDBRANCH  23  26
ENDBRANCH   1  23
TORSDOF 5
ENDMDL
MODEL 2
REMARK VINA RESULT:      -7.6      5.389      7.616
REMARK  Name = 
REMARK  10 active torsions:
REMARK  status: ('A' for Active; 'I' for Inactive)
REMARK    1  A    between atoms: C_1  and  O_2
REMARK    2  A    between atoms: O_2  and  C_3
REMARK    3  A    between atoms: C_3  and  C_5
REMARK    4  A    between atoms: C_7  and  C_8
REMARK    5  A    between atoms: C_8  and  C_9
REMARK    6  A    between atoms: C_8  and  C_10
REMARK    7  A    between atoms: C_8  and  C_11
REMARK    8  A    between atoms: C_13  and  N_14
REMARK    9  A    between atoms: N_17  and  C_18
REMARK   10  A    between atoms: C_21  and  C_22
REMARK                            x       y       z     vdW  Elec       q    Type
REMARK                         _______ _______ _______ _____ _____    ______ ____
ROOT
ATOM      1  C   UNL     1       6.004   5.033  16.415  0.00  0.00    +0.000 A 
ATOM      2  N   UNL     1       5.265   3.948  16.899  0.00  0.00    +0.000 NA
ATOM      3  C   UNL     1       4.642   4.254  18.019  0.00  0.00    +0.000 A 
ATOM      4  S   UNL     1       4.957   5.860  18.586  0.00  0.00    +0.000 S 
ATOM      5  C   UNL     1       5.872   6.176  17.186  0.00  0.00    +0.000 A 
ENDROOT
BRANCH   5   6
ATOM      6  N   UNL     1       6.294   7.488  17.021  0.00  0.00    +0.000 N 
ATOM      7  C   UNL     1       7.384   7.905  17.777  0.00  0.00    +0.000 C 
ATOM      8  O   UNL     1       8.033   7.139  18.487  0.00  0.00    +0.000 OA
ATOM      9  N   UNL     1       7.650   9.258  17.613  0.00  0.00    +0.000 N 
ATOM     10  H   UNL     1       6.252   7.863  16.083  0.00  0.00    +0.000 HD
ATOM     11  H   UNL     1       6.852   9.823  17.365  0.00  0.00    +0.000 HD
BRANCH   9  12
ATOM     12  C   UNL     1       8.746   9.932  18.208  0.00  0.00    +0.000 A 
ATOM     13  C   UNL     1       8.989   9.912  19.585  0.00  0.00    +0.000 A 
ATOM     14  C   UNL     1      10.014  10.680  20.146  0.00  0.00    +0.000 A 
ATOM     15  C   UNL     1      10.830  11.475  19.339  0.00  0.00    +0.000 A 
ATOM     16  C   UNL     1      11.864  12.373  19.948  0.00  0.00    +0.000 C 
ATOM     17  C   UNL     1      10.639  11.439  17.952  0.00  0.00    +0.000 A 
ATOM     18  C   UNL     1       9.613  10.663  17.390  0.00  0.00    +0.000 A 
ENDBRANCH   9  12
ENDBRANCH   5   6
BRANCH   3  19
ATOM     19  C   UNL     1       3.734   3.275  18.767  0.00  0.00    +0.000 C 
ATOM     20  C   UNL     1       4.554   2.520  19.840  0.00  0.00    +0.000 C 
ATOM     21  C   UNL     1       2.592   4.014  19.483  0.00  0.00    +0.000 C 
ATOM     22  C   UNL     1       3.151   2.224  17.804  0.00  0.00    +0.000 C 
ENDBRANCH   3  19
BRANCH   1  23
ATOM     23  C   UNL     1       6.874   4.891  15.245  0.00  0.00    +0.000 C 
ATOM     24  O   UNL     1       7.787   5.667  14.975  0.00  0.00    +0.000 OA
BRANCH  23  26
ATOM     25  C   UNL     1       6.349   3.972  13.154  0.00  0.00    +0.000 C 
ATOM     26  O   UNL     1       6.604   3.752  14.537  0.00  0.00    +0.000 OA
ENDBRANCH  23  26
ENDBRANCH   1  23
TORSDOF 5
ENDMDL
MODEL 3
REMARK VINA RESULT:      -7.3      5.195      7.705
REMARK  Name = 
REMARK  10 active torsions:
REMARK  status: ('A' for Active; 'I' for Inactive)
REMARK    1  A    between atoms: C_1  and  O_2
REMARK    2  A    between atoms: O_2  and  C_3
REMARK    3  A    between atoms: C_3  and  C_5
REMARK    4  A    between atoms: C_7  and  C_8
REMARK    5  A    between atoms: C_8  and  C_9
REMARK    6  A    between atoms: C_8  and  C_10
REMARK    7  A    between atoms: C_8  and  C_11
REMARK    8  A    between atoms: C_13  and  N_14
REMARK    9  A    between atoms: N_17  and  C_18
REMARK   10  A    between atoms: C_21  and  C_22
REMARK                            x       y       z     vdW  Elec       q    Type
REMARK                         _______ _______ _______ _____ _____    ______ ____
ROOT
ATOM      1  C   UNL     1       6.194   5.227  17.014  0.00  0.00    +0.000 A 
ATOM      2  N   UNL     1       5.245   4.257  17.355  0.00  0.00    +0.000 NA
ATOM      3  C   UNL     1       4.221   4.790  17.989  0.00  0.00    +0.000 A 
ATOM      4  S   UNL     1       4.368   6.495  18.261  0.00  0.00    +0.000 S 
ATOM      5  C   UNL     1       5.820   6.512  17.372  0.00  0.00    +0.000 A 
ENDROOT
BRANCH   5   6
ATOM      6  N   UNL     1       6.361   7.765  17.119  0.00  0.00    +0.000 N 
ATOM      7  C   UNL     1       7.448   8.156  17.894  0.00  0.00    +0.000 C 
ATOM      8  O   UNL     1       7.996   7.404  18.699  0.00  0.00    +0.000 OA
ATOM      9  N   UNL     1       7.838   9.462  17.631  0.00  0.00    +0.000 N 
ATOM     10  H   UNL     1       6.394   8.057  16.153  0.00  0.00    +0.000 HD
ATOM     11  H   UNL     1       7.104  10.067  17.294  0.00  0.00    +0.000 HD
BRANCH   9  12
ATOM     12  C   UNL     1       8.960  10.094  18.224  0.00  0.00    +0.000 A 
ATOM     13  C   UNL     1       9.162  10.133  19.606  0.00  0.00    +0.000 A 
ATOM     14  C   UNL     1      10.221  10.861  20.159  0.00  0.00    +0.000 A 
ATOM     15  C   UNL     1      11.111  11.554  19.336  0.00  0.00    +0.000 A 
ATOM     16  C   UNL     1      12.187  12.414  19.930  0.00  0.00    +0.000 C 
ATOM     17  C   UNL     1      10.957  11.455  17.948  0.00  0.00    +0.000 A 
ATOM     18  C   UNL     1       9.897  10.720  17.395  0.00  0.00    +0.000 A 
ENDBRANCH   9  12
ENDBRANCH   5   6
BRANCH   3  19
ATOM     19  C   UNL     1       3.013   3.978  18.461  0.00  0.00    +0.000 C 
ATOM     20  C   UNL     1       2.595   4.442  19.876  0.00  0.00    +0.000 C 
ATOM     21  C   UNL     1       1.809   4.179  17.526  0.00  0.00    +0.000 C 
ATOM     22  C   UNL     1       3.361   2.480  18.548  0.00  0.00    +0.000 C 
ENDBRANCH   3  19
BRANCH   1  23
ATOM     23  C   UNL     1       7.474   4.851  16.408  0.00  0.00    +0.000 C 
ATOM     24  O   UNL     1       8.287   4.100  16.941  0.00  0.00    +0.000 OA
BRANCH  23  26
ATOM     25  C   UNL     1       6.830   4.714  14.158  0.00  0.00    +0.000 C 
ATOM     26  O   UNL     1       7.619   5.366  15.149  0.00  0.00    +0.000 OA
ENDBRANCH  23  26
ENDBRANCH   1  23
TORSDOF 5
ENDMDL
MODEL 4
REMARK VINA RESULT:      -7.3      0.342      1.347
REMARK  Name = 
REMARK  10 active torsions:
REMARK  status: ('A' for Active; 'I' for Inactive)
REMARK    1  A    between atoms: C_1  and  O_2
REMARK    2  A    between atoms: O_2  and  C_3
REMARK    3  A    between atoms: C_3  and  C_5
REMARK    4  A    between atoms: C_7  and  C_8
REMARK    5  A    between atoms: C_8  and  C_9
REMARK    6  A    between atoms: C_8  and  C_10
REMARK    7  A    between atoms: C_8  and  C_11
REMARK    8  A    between atoms: C_13  and  N_14
REMARK    9  A    between atoms: N_17  and  C_18
REMARK   10  A    between atoms: C_21  and  C_22
REMARK                            x       y       z     vdW  Elec       q    Type
REMARK                         _______ _______ _______ _____ _____    ______ ____
ROOT
ATOM      1  C   UNL     1       2.673   4.481  18.581  0.00  0.00    +0.000 A 
ATOM      2  N   UNL     1       3.513   4.107  17.525  0.00  0.00    +0.000 NA
ATOM      3  C   UNL     1       4.532   4.933  17.407  0.00  0.00    +0.000 A 
ATOM      4  S   UNL     1       4.510   6.248  18.535  0.00  0.00    +0.000 S 
ATOM      5  C   UNL     1       3.129   5.586  19.280  0.00  0.00    +0.000 A 
ENDROOT
BRANCH   5   6
ATOM      6  N   UNL     1       2.713   6.209  20.448  0.00  0.00    +0.000 N 
ATOM      7  C   UNL     1       1.965   7.375  20.316  0.00  0.00    +0.000 C 
ATOM      8  O   UNL     1       1.581   7.798  19.227  0.00  0.00    +0.000 OA
ATOM      9  N   UNL     1       1.696   7.968  21.542  0.00  0.00    +0.000 N 
ATOM     10  H   UNL     1       2.438   5.605  21.210  0.00  0.00    +0.000 HD
ATOM     11  H   UNL     1       2.374   7.780  22.265  0.00  0.00    +0.000 HD
BRANCH   9  12
ATOM     12  C   UNL     1       0.894   9.125  21.708  0.00  0.00    +0.000 A 
ATOM     13  C   UNL     1       0.095   9.337  22.835  0.00  0.00    +0.000 A 
ATOM     14  C   UNL     1      -0.767  10.436  22.911  0.00  0.00    +0.000 A 
ATOM     15  C   UNL     1      -0.836  11.357  21.865  0.00  0.00    +0.000 A 
ATOM     16  C   UNL     1      -1.830  12.480  21.901  0.00  0.00    +0.000 C 
ATOM     17  C   UNL     1       0.018  11.191  20.767  0.00  0.00    +0.000 A 
ATOM     18  C   UNL     1       0.886  10.090  20.695  0.00  0.00    +0.000 A 
ENDBRANCH   9  12
ENDBRANCH   5   6
BRANCH   3  19
ATOM     19  C   UNL     1       5.632   4.762  16.358  0.00  0.00    +0.000 C 
ATOM     20  C   UNL     1       5.491   5.855  15.272  0.00  0.00    +0.000 C 
ATOM     21  C   UNL     1       7.028   4.904  16.988  0.00  0.00    +0.000 C 
ATOM     22  C   UNL     1       5.514   3.395  15.658  0.00  0.00    +0.000 C 
ENDBRANCH   3  19
BRANCH   1  23
ATOM     23  C   UNL     1       1.412   3.778  18.826  0.00  0.00    +0.000 C 
ATOM     24  O   UNL     1       0.845   3.080  17.989  0.00  0.00    +0.000 OA
BRANCH  23  26
ATOM     25  C   UNL     1       1.279   2.812  20.957  0.00  0.00    +0.000 C 
ATOM     26  O   UNL     1       0.984   3.923  20.117  0.00  0.00    +0.000 OA
ENDBRANCH  23  26
ENDBRANCH   1  23
TORSDOF 5
ENDMDL
MODEL 5
REMARK VINA RESULT:      -7.1      5.388      7.106
REMARK  Name = 
REMARK  10 active torsions:
REMARK  status: ('A' for Active; 'I' for Inactive)
REMARK    1  A    between atoms: C_1  and  O_2
REMARK    2  A    between atoms: O_2  and  C_3
REMARK    3  A    between atoms: C_3  and  C_5
REMARK    4  A    between atoms: C_7  and  C_8
REMARK    5  A    between atoms: C_8  and  C_9
REMARK    6  A    between atoms: C_8  and  C_10
REMARK    7  A    between atoms: C_8  and  C_11
REMARK    8  A    between atoms: C_13  and  N_14
REMARK    9  A    between atoms: N_17  and  C_18
REMARK   10  A    between atoms: C_21  and  C_22
REMARK                            x       y       z     vdW  Elec       q    Type
REMARK                         _______ _______ _______ _____ _____    ______ ____
ROOT
ATOM      1  C   UNL     1       5.822   4.860  16.543  0.00  0.00    +0.000 A 
ATOM      2  N   UNL     1       4.567   4.242  16.608  0.00  0.00    +0.000 NA
ATOM      3  C   UNL     1       4.166   4.100  17.855  0.00  0.00    +0.000 A 
ATOM      4  S   UNL     1       5.309   4.658  19.032  0.00  0.00    +0.000 S 
ATOM      5  C   UNL     1       6.321   5.220  17.784  0.00  0.00    +0.000 A 
ENDROOT
BRANCH   5   6
ATOM      6  N   UNL     1       7.426   5.957  18.186  0.00  0.00    +0.000 N 
ATOM      7  C   UNL     1       7.326   7.343  18.118  0.00  0.00    +0.000 C 
ATOM      8  O   UNL     1       6.281   7.920  17.823  0.00  0.00    +0.000 OA
ATOM      9  N   UNL     1       8.521   7.972  18.440  0.00  0.00    +0.000 N 
ATOM     10  H   UNL     1       7.943   5.601  18.978  0.00  0.00    +0.000 HD
ATOM     11  H   UNL     1       9.352   7.430  18.258  0.00  0.00    +0.000 HD
BRANCH   9  12
ATOM     12  C   UNL     1       8.684   9.378  18.521  0.00  0.00    +0.000 A 
ATOM     13  C   UNL     1       8.207  10.252  17.540  0.00  0.00    +0.000 A 
ATOM     14  C   UNL     1       8.486  11.622  17.599  0.00  0.00    +0.000 A 
ATOM     15  C   UNL     1       9.235  12.149  18.652  0.00  0.00    +0.000 A 
ATOM     16  C   UNL     1       9.617  13.599  18.666  0.00  0.00    +0.000 C 
ATOM     17  C   UNL     1       9.649  11.289  19.677  0.00  0.00    +0.000 A 
ATOM     18  C   UNL     1       9.365   9.916  19.618  0.00  0.00    +0.000 A 
ENDBRANCH   9  12
ENDBRANCH   5   6
BRANCH   3  19
ATOM     19  C   UNL     1       2.819   3.483  18.236  0.00  0.00    +0.000 C 
ATOM     20  C   UNL     1       2.689   3.428  19.776  0.00  0.00    +0.000 C 
ATOM     21  C   UNL     1       1.650   4.324  17.696  0.00  0.00    +0.000 C 
ATOM     22  C   UNL     1       2.709   2.040  17.709  0.00  0.00    +0.000 C 
ENDBRANCH   3  19
BRANCH   1  23
ATOM     23  C   UNL     1       6.521   5.015  15.266  0.00  0.00    +0.000 C 
ATOM     24  O   UNL     1       7.705   5.329  15.169  0.00  0.00    +0.000 OA
BRANCH  23  26
ATOM     25  C   UNL     1       6.316   3.760  13.297  0.00  0.00    +0.000 C 
ATOM     26  O   UNL     1       5.727   4.690  14.200  0.00  0.00    +0.000 OA
ENDBRANCH  23  26
ENDBRANCH   1  23
TORSDOF 5
ENDMDL
MODEL 6
REMARK VINA RESULT:      -7.1      0.974      1.218
REMARK  Name = 
REMARK  10 active torsions:
REMARK  status: ('A' for Active; 'I' for Inactive)
REMARK    1  A    between atoms: C_1  and  O_2
REMARK    2  A    between atoms: O_2  and  C_3
REMARK    3  A    between atoms: C_3  and  C_5
REMARK    4  A    between atoms: C_7  and  C_8
REMARK    5  A    between atoms: C_8  and  C_9
REMARK    6  A    between atoms: C_8  and  C_10
REMARK    7  A    between atoms: C_8  and  C_11
REMARK    8  A    between atoms: C_13  and  N_14
REMARK    9  A    between atoms: N_17  and  C_18
REMARK   10  A    between atoms: C_21  and  C_22
REMARK                            x       y       z     vdW  Elec       q    Type
REMARK                         _______ _______ _______ _____ _____    ______ ____
ROOT
ATOM      1  C   UNL     1       3.159   4.524  18.121  0.00  0.00    +0.000 A 
ATOM      2  N   UNL     1       4.231   4.265  17.259  0.00  0.00    +0.000 NA
ATOM      3  C   UNL     1       5.261   5.041  17.528  0.00  0.00    +0.000 A 
ATOM      4  S   UNL     1       4.976   6.174  18.808  0.00  0.00    +0.000 S 
ATOM      5  C   UNL     1       3.441   5.487  19.075  0.00  0.00    +0.000 A 
ENDROOT
BRANCH   5   6
ATOM      6  N   UNL     1       2.754   5.953  20.187  0.00  0.00    +0.000 N 
ATOM      7  C   UNL     1       2.111   7.181  20.069  0.00  0.00    +0.000 C 
ATOM      8  O   UNL     1       2.044   7.797  19.006  0.00  0.00    +0.000 OA
ATOM      9  N   UNL     1       1.549   7.597  21.268  0.00  0.00    +0.000 N 
ATOM     10  H   UNL     1       2.265   5.263  20.740  0.00  0.00    +0.000 HD
ATOM     11  H   UNL     1       2.004   7.246  22.097  0.00  0.00    +0.000 HD
BRANCH   9  12
ATOM     12  C   UNL     1       0.774   8.775  21.419  0.00  0.00    +0.000 A 
ATOM     13  C   UNL     1       0.555   9.674  20.371  0.00  0.00    +0.000 A 
ATOM     14  C   UNL     1      -0.120  10.880  20.588  0.00  0.00    +0.000 A 
ATOM     15  C   UNL     1      -0.604  11.205  21.856  0.00  0.00    +0.000 A 
ATOM     16  C   UNL     1      -1.241  12.539  22.111  0.00  0.00    +0.000 C 
ATOM     17  C   UNL     1      -0.454  10.274  22.890  0.00  0.00    +0.000 A 
ATOM     18  C   UNL     1       0.220   9.062  22.670  0.00  0.00    +0.000 A 
ENDBRANCH   9  12
ENDBRANCH   5   6
BRANCH   3  19
ATOM     19  C   UNL     1       6.587   4.966  16.770  0.00  0.00    +0.000 C 
ATOM     20  C   UNL     1       7.005   6.382  16.309  0.00  0.00    +0.000 C 
ATOM     21  C   UNL     1       7.709   4.414  17.666  0.00  0.00    +0.000 C 
ATOM     22  C   UNL     1       6.449   4.090  15.511  0.00  0.00    +0.000 C 
ENDBRANCH   3  19
BRANCH   1  23
ATOM     23  C   UNL     1       1.865   3.864  17.934  0.00  0.00    +0.000 C 
ATOM     24  O   UNL     1       0.978   4.296  17.201  0.00  0.00    +0.000 OA
BRANCH  23  26
ATOM     25  C   UNL     1       1.128   2.752  19.861  0.00  0.00    +0.000 C 
ATOM     26  O   UNL     1       1.791   2.673  18.603  0.00  0.00    +0.000 OA
ENDBRANCH  23  26
ENDBRANCH   1  23
TORSDOF 5
ENDMDL
MODEL 7
REMARK VINA RESULT:      -7.1      5.326      7.078
REMARK  Name = 
REMARK  10 active torsions:
REMARK  status: ('A' for Active; 'I' for Inactive)
REMARK    1  A    between atoms: C_1  and  O_2
REMARK    2  A    between atoms: O_2  and  C_3
REMARK    3  A    between atoms: C_3  and  C_5
REMARK    4  A    between atoms: C_7  and  C_8
REMARK    5  A    between atoms: C_8  and  C_9
REMARK    6  A    between atoms: C_8  and  C_10
REMARK    7  A    between atoms: C_8  and  C_11
REMARK    8  A    between atoms: C_13  and  N_14
REMARK    9  A    between atoms: N_17  and  C_18
REMARK   10  A    between atoms: C_21  and  C_22
REMARK                            x       y       z     vdW  Elec       q    Type
REMARK                         _______ _______ _______ _____ _____    ______ ____
ROOT
ATOM      1  C   UNL     1       5.910   4.664  16.720  0.00  0.00    +0.000 A 
ATOM      2  N   UNL     1       4.633   4.091  16.729  0.00  0.00    +0.000 NA
ATOM      3  C   UNL     1       4.125   4.070  17.944  0.00  0.00    +0.000 A 
ATOM      4  S   UNL     1       5.185   4.695  19.163  0.00  0.00    +0.000 S 
ATOM      5  C   UNL     1       6.317   5.117  17.963  0.00  0.00    +0.000 A 
ENDROOT
BRANCH   5   6
ATOM      6  N   UNL     1       7.411   5.854  18.395  0.00  0.00    +0.000 N 
ATOM      7  C   UNL     1       7.360   7.233  18.215  0.00  0.00    +0.000 C 
ATOM      8  O   UNL     1       6.359   7.812  17.797  0.00  0.00    +0.000 OA
ATOM      9  N   UNL     1       8.546   7.855  18.583  0.00  0.00    +0.000 N 
ATOM     10  H   UNL     1       7.855   5.548  19.249  0.00  0.00    +0.000 HD
ATOM     11  H   UNL     1       9.371   7.279  18.507  0.00  0.00    +0.000 HD
BRANCH   9  12
ATOM     12  C   UNL     1       8.746   9.258  18.571  0.00  0.00    +0.000 A 
ATOM     13  C   UNL     1       9.415   9.935  19.595  0.00  0.00    +0.000 A 
ATOM     14  C   UNL     1       9.494  11.332  19.602  0.00  0.00    +0.000 A 
ATOM     15  C   UNL     1       8.918  12.081  18.575  0.00  0.00    +0.000 A 
ATOM     16  C   UNL     1       8.916  13.580  18.632  0.00  0.00    +0.000 C 
ATOM     17  C   UNL     1       8.314  11.404  17.509  0.00  0.00    +0.000 A 
ATOM     18  C   UNL     1       8.239  10.002  17.500  0.00  0.00    +0.000 A 
ENDBRANCH   9  12
ENDBRANCH   5   6
BRANCH   3  19
ATOM     19  C   UNL     1       2.730   3.527  18.260  0.00  0.00    +0.000 C 
ATOM     20  C   UNL     1       2.573   3.350  19.789  0.00  0.00    +0.000 C 
ATOM     21  C   UNL     1       1.636   4.498  17.785  0.00  0.00    +0.000 C 
ATOM     22  C   UNL     1       2.519   2.147  17.609  0.00  0.00    +0.000 C 
ENDBRANCH   3  19
BRANCH   1  23
ATOM     23  C   UNL     1       6.718   4.686  15.499  0.00  0.00    +0.000 C 
ATOM     24  O   UNL     1       7.602   5.510  15.280  0.00  0.00    +0.000 OA
BRANCH  23  26
ATOM     25  C   UNL     1       6.484   3.955  13.284  0.00  0.00    +0.000 C 
ATOM     26  O   UNL     1       6.430   3.636  14.671  0.00  0.00    +0.000 OA
ENDBRANCH  23  26
ENDBRANCH   1  23
TORSDOF 5
ENDMDL
MODEL 8
REMARK VINA RESULT:      -7.0      5.431      7.602
REMARK  Name = 
REMARK  10 active torsions:
REMARK  status: ('A' for Active; 'I' for Inactive)
REMARK    1  A    between atoms: C_1  and  O_2
REMARK    2  A    between atoms: O_2  and  C_3
REMARK    3  A    between atoms: C_3  and  C_5
REMARK    4  A    between atoms: C_7  and  C_8
REMARK    5  A    between atoms: C_8  and  C_9
REMARK    6  A    between atoms: C_8  and  C_10
REMARK    7  A    between atoms: C_8  and  C_11
REMARK    8  A    between atoms: C_13  and  N_14
REMARK    9  A    between atoms: N_17  and  C_18
REMARK   10  A    between atoms: C_21  and  C_22
REMARK                            x       y       z     vdW  Elec       q    Type
REMARK                         _______ _______ _______ _____ _____    ______ ____
ROOT
ATOM      1  C   UNL     1       6.021   4.994  16.263  0.00  0.00    +0.000 A 
ATOM      2  N   UNL     1       5.314   3.914  16.806  0.00  0.00    +0.000 NA
ATOM      3  C   UNL     1       4.765   4.232  17.960  0.00  0.00    +0.000 A 
ATOM      4  S   UNL     1       5.116   5.844  18.488  0.00  0.00    +0.000 S 
ATOM      5  C   UNL     1       5.938   6.144  17.028  0.00  0.00    +0.000 A 
ENDROOT
BRANCH   5   6
ATOM      6  N   UNL     1       6.348   7.455  16.822  0.00  0.00    +0.000 N 
ATOM      7  C   UNL     1       7.374   7.934  17.631  0.00  0.00    +0.000 C 
ATOM      8  O   UNL     1       7.983   7.220  18.426  0.00  0.00    +0.000 OA
ATOM      9  N   UNL     1       7.628   9.282  17.412  0.00  0.00    +0.000 N 
ATOM     10  H   UNL     1       6.368   7.777  15.865  0.00  0.00    +0.000 HD
ATOM     11  H   UNL     1       6.841   9.815  17.077  0.00  0.00    +0.000 HD
BRANCH   9  12
ATOM     12  C   UNL     1       8.667  10.009  18.046  0.00  0.00    +0.000 A 
ATOM     13  C   UNL     1       9.527  10.861  17.349  0.00  0.00    +0.000 A 
ATOM     14  C   UNL     1      10.609  11.474  17.990  0.00  0.00    +0.000 A 
ATOM     15  C   UNL     1      10.843  11.259  19.349  0.00  0.00    +0.000 A 
ATOM     16  C   UNL     1      12.057  11.836  20.016  0.00  0.00    +0.000 C 
ATOM     17  C   UNL     1       9.939  10.467  20.068  0.00  0.00    +0.000 A 
ATOM     18  C   UNL     1       8.852   9.857  19.424  0.00  0.00    +0.000 A 
ENDBRANCH   9  12
ENDBRANCH   5   6
BRANCH   3  19
ATOM     19  C   UNL     1       3.908   3.262  18.775  0.00  0.00    +0.000 C 
ATOM     20  C   UNL     1       2.709   4.019  19.393  0.00  0.00    +0.000 C 
ATOM     21  C   UNL     1       3.346   2.138  17.888  0.00  0.00    +0.000 C 
ATOM     22  C   UNL     1       4.719   2.654  19.934  0.00  0.00    +0.000 C 
ENDBRANCH   3  19
BRANCH   1  23
ATOM     23  C   UNL     1       6.813   4.838  15.041  0.00  0.00    +0.000 C 
ATOM     24  O   UNL     1       7.813   5.505  14.786  0.00  0.00    +0.000 OA
BRANCH  23  26
ATOM     25  C   UNL     1       6.736   3.911  12.889  0.00  0.00    +0.000 C 
ATOM     26  O   UNL     1       6.359   3.812  14.259  0.00  0.00    +0.000 OA
ENDBRANCH  23  26
ENDBRANCH   1  23
TORSDOF 5
ENDMDL
MODEL 9
REMARK VINA RESULT:      -7.0      1.131      1.478
REMARK  Name = 
REMARK  10 active torsions:
REMARK  status: ('A' for Active; 'I' for Inactive)
REMARK    1  A    between atoms: C_1  and  O_2
REMARK    2  A    between atoms: O_2  and  C_3
REMARK    3  A    between atoms: C_3  and  C_5
REMARK    4  A    between atoms: C_7  and  C_8
REMARK    5  A    between atoms: C_8  and  C_9
REMARK    6  A    between atoms: C_8  and  C_10
REMARK    7  A    between atoms: C_8  and  C_11
REMARK    8  A    between atoms: C_13  and  N_14
REMARK    9  A    between atoms: N_17  and  C_18
REMARK   10  A    between atoms: C_21  and  C_22
REMARK                            x       y       z     vdW  Elec       q    Type
REMARK                         _______ _______ _______ _____ _____    ______ ____
ROOT
ATOM      1  C   UNL     1       3.214   4.482  18.033  0.00  0.00    +0.000 A 
ATOM      2  N   UNL     1       4.305   4.258  17.186  0.00  0.00    +0.000 NA
ATOM      3  C   UNL     1       5.308   5.062  17.472  0.00  0.00    +0.000 A 
ATOM      4  S   UNL     1       4.973   6.181  18.752  0.00  0.00    +0.000 S 
ATOM      5  C   UNL     1       3.456   5.449  18.995  0.00  0.00    +0.000 A 
ENDROOT
BRANCH   5   6
ATOM      6  N   UNL     1       2.740   5.890  20.100  0.00  0.00    +0.000 N 
ATOM      7  C   UNL     1       2.156   7.149  20.018  0.00  0.00    +0.000 C 
ATOM      8  O   UNL     1       2.162   7.819  18.986  0.00  0.00    +0.000 OA
ATOM      9  N   UNL     1       1.560   7.531  21.212  0.00  0.00    +0.000 N 
ATOM     10  H   UNL     1       2.199   5.195  20.595  0.00  0.00    +0.000 HD
ATOM     11  H   UNL     1       1.962   7.119  22.040  0.00  0.00    +0.000 HD
BRANCH   9  12
ATOM     12  C   UNL     1       0.830   8.734  21.390  0.00  0.00    +0.000 A 
ATOM     13  C   UNL     1       0.416   9.188  22.645  0.00  0.00    +0.000 A 
ATOM     14  C   UNL     1      -0.398  10.319  22.768  0.00  0.00    +0.000 A 
ATOM     15  C   UNL     1      -0.802  11.030  21.637  0.00  0.00    +0.000 A 
ATOM     16  C   UNL     1      -1.753  12.183  21.759  0.00  0.00    +0.000 C 
ATOM     17  C   UNL     1      -0.326  10.623  20.384  0.00  0.00    +0.000 A 
ATOM     18  C   UNL     1       0.494   9.491  20.263  0.00  0.00    +0.000 A 
ENDBRANCH   9  12
ENDBRANCH   5   6
BRANCH   3  19
ATOM     19  C   UNL     1       6.646   5.029  16.731  0.00  0.00    +0.000 C 
ATOM     20  C   UNL     1       7.727   4.392  17.636  0.00  0.00    +0.000 C 
ATOM     21  C   UNL     1       6.550   4.183  15.450  0.00  0.00    +0.000 C 
ATOM     22  C   UNL     1       7.115   6.453  16.380  0.00  0.00    +0.000 C 
ENDBRANCH   3  19
BRANCH   1  23
ATOM     23  C   UNL     1       1.942   3.786  17.826  0.00  0.00    +0.000 C 
ATOM     24  O   UNL     1       0.981   4.279  17.240  0.00  0.00    +0.000 OA
BRANCH  23  26
ATOM     25  C   UNL     1       1.471   2.336  19.606  0.00  0.00    +0.000 C 
ATOM     26  O   UNL     1       1.978   2.498  18.286  0.00  0.00    +0.000 OA
ENDBRANCH  23  26
ENDBRANCH   1  23
TORSDOF 5
ENDMDL
