MODEL 1
REMARK VINA RESULT:      -8.7      0.000      0.000
REMARK  Name = 
REMARK  8 active torsions:
REMARK  status: ('A' for Active; 'I' for Inactive)
REMARK    1  A    between atoms: C_1  and  C_2
REMARK    2  A    between atoms: C_2  and  C_3
REMARK    3  A    between atoms: C_2  and  C_4
REMARK    4  A    between atoms: C_2  and  C_6
REMARK    5  A    between atoms: C_4  and  O_5
REMARK    6  A    between atoms: C_9  and  C_10
REMARK    7  A    between atoms: C_17  and  C_18
REMARK    8  A    between atoms: C_18  and  O_20
REMARK                            x       y       z     vdW  Elec       q    Type
REMARK                         _______ _______ _______ _____ _____    ______ ____
ROOT
ATOM      1  C   UNL     1       2.905   6.644  18.976  0.00  0.00    +0.000 A 
ATOM      2  C   UNL     1       4.095   6.487  18.252  0.00  0.00    +0.000 A 
ATOM      3  F   UNL     1       4.565   7.496  17.498  0.00  0.00    +0.000 F 
ATOM      4  C   UNL     1       4.852   5.305  18.272  0.00  0.00    +0.000 A 
ATOM      5  C   UNL     1       4.368   4.241  19.038  0.00  0.00    +0.000 A 
ATOM      6  N   UNL     1       4.873   2.980  19.254  0.00  0.00    +0.000 N 
ATOM      7  C   UNL     1       4.013   2.266  20.046  0.00  0.00    +0.000 A 
ATOM      8  C   UNL     1       2.938   3.066  20.388  0.00  0.00    +0.000 A 
ATOM      9  C   UNL     1       3.181   4.327  19.762  0.00  0.00    +0.000 A 
ATOM     10  C   UNL     1       2.481   5.542  19.729  0.00  0.00    +0.000 A 
ATOM     11  F   UNL     1       1.387   5.641  20.502  0.00  0.00    +0.000 F 
ATOM     12  H   UNL     1       5.741   2.628  18.874  0.00  0.00    +0.000 HD
ENDROOT
BRANCH   1  16
ATOM     13  C   UNL     1       0.464  10.211  19.082  0.00  0.00    +0.000 A 
ATOM     14  C   UNL     1       0.926   9.684  17.868  0.00  0.00    +0.000 A 
ATOM     15  C   UNL     1       1.758   8.566  17.842  0.00  0.00    +0.000 A 
ATOM     16  C   UNL     1       2.131   7.895  19.020  0.00  0.00    +0.000 A 
ATOM     17  C   UNL     1       1.666   8.420  20.227  0.00  0.00    +0.000 A 
ATOM     18  C   UNL     1       0.856   9.557  20.260  0.00  0.00    +0.000 A 
BRANCH  13  20
ATOM     19  C   UNL     1       0.435  12.704  18.740  0.00  0.00    +0.000 C 
ATOM     20  C   UNL     1      -0.422  11.466  19.087  0.00  0.00    +0.000 C 
ATOM     21  C   UNL     1      -1.018  11.646  20.502  0.00  0.00    +0.000 C 
BRANCH  20  22
ATOM     22  C   UNL     1      -1.582  11.367  18.058  0.00  0.00    +0.000 C 
BRANCH  22  23
ATOM     23  O   UNL     1      -1.555  12.402  17.081  0.00  0.00    +0.000 OA
ATOM     24  H   UNL     1      -1.873  13.213  17.510  0.00  0.00    +0.000 HD
ENDBRANCH  22  23
ENDBRANCH  20  22
ENDBRANCH  13  20
ENDBRANCH   1  16
BRANCH   8  25
ATOM     25  C   UNL     1       1.797   2.622  21.189  0.00  0.00    +0.000 C 
ATOM     26  O   UNL     1       1.915   2.232  22.347  0.00  0.00    +0.000 OA
BRANCH  25  27
ATOM     27  O   UNL     1       0.581   2.687  20.594  0.00  0.00    +0.000 OA
ATOM     28  H   UNL     1      -0.097   2.123  21.017  0.00  0.00    +0.000 HD
ENDBRANCH  25  27
ENDBRANCH   8  25
TORSDOF 6
ENDMDL
MODEL 2
REMARK VINA RESULT:      -8.3      0.592      1.264
REMARK  Name = 
REMARK  8 active torsions:
REMARK  status: ('A' for Active; 'I' for Inactive)
REMARK    1  A    between atoms: C_1  and  C_2
REMARK    2  A    between atoms: C_2  and  C_3
REMARK    3  A    between atoms: C_2  and  C_4
REMARK    4  A    between atoms: C_2  and  C_6
REMARK    5  A    between atoms: C_4  and  O_5
REMARK    6  A    between atoms: C_9  and  C_10
REMARK    7  A    between atoms: C_17  and  C_18
REMARK    8  A    between atoms: C_18  and  O_20
REMARK                            x       y       z     vdW  Elec       q    Type
REMARK                         _______ _______ _______ _____ _____    ______ ____
ROOT
ATOM      1  C   UNL     1       2.670   6.830  18.861  0.00  0.00    +0.000 A 
ATOM      2  C   UNL     1       3.730   6.720  17.950  0.00  0.00    +0.000 A 
ATOM      3  F   UNL     1       4.029   7.747  17.135  0.00  0.00    +0.000 F 
ATOM      4  C   UNL     1       4.527   5.570  17.840  0.00  0.00    +0.000 A 
ATOM      5  C   UNL     1       4.218   4.488  18.669  0.00  0.00    +0.000 A 
ATOM      6  N   UNL     1       4.800   3.249  18.794  0.00  0.00    +0.000 N 
ATOM      7  C   UNL     1       4.111   2.502  19.712  0.00  0.00    +0.000 A 
ATOM      8  C   UNL     1       3.076   3.258  20.230  0.00  0.00    +0.000 A 
ATOM      9  C   UNL     1       3.162   4.528  19.579  0.00  0.00    +0.000 A 
ATOM     10  C   UNL     1       2.419   5.713  19.667  0.00  0.00    +0.000 A 
ATOM     11  F   UNL     1       1.464   5.770  20.610  0.00  0.00    +0.000 F 
ATOM     12  H   UNL     1       5.608   2.931  18.274  0.00  0.00    +0.000 HD
ENDROOT
BRANCH   1  16
ATOM     13  C   UNL     1       0.473  10.515  19.398  0.00  0.00    +0.000 A 
ATOM     14  C   UNL     1       0.883   9.749  20.498  0.00  0.00    +0.000 A 
ATOM     15  C   UNL     1       1.543   8.535  20.319  0.00  0.00    +0.000 A 
ATOM     16  C   UNL     1       1.864   8.050  19.038  0.00  0.00    +0.000 A 
ATOM     17  C   UNL     1       1.457   8.817  17.945  0.00  0.00    +0.000 A 
ATOM     18  C   UNL     1       0.771  10.021  18.119  0.00  0.00    +0.000 A 
BRANCH  13  20
ATOM     19  C   UNL     1       0.063  12.400  21.015  0.00  0.00    +0.000 C 
ATOM     20  C   UNL     1      -0.285  11.833  19.620  0.00  0.00    +0.000 C 
ATOM     21  C   UNL     1      -1.804  11.549  19.557  0.00  0.00    +0.000 C 
BRANCH  20  22
ATOM     22  C   UNL     1       0.073  12.902  18.551  0.00  0.00    +0.000 C 
BRANCH  22  23
ATOM     23  O   UNL     1      -0.909  13.023  17.528  0.00  0.00    +0.000 OA
ATOM     24  H   UNL     1      -0.515  13.541  16.808  0.00  0.00    +0.000 HD
ENDBRANCH  22  23
ENDBRANCH  20  22
ENDBRANCH  13  20
ENDBRANCH   1  16
BRANCH   8  25
ATOM     25  C   UNL     1       2.101   2.771  21.205  0.00  0.00    +0.000 C 
ATOM     26  O   UNL     1       2.421   2.394  22.328  0.00  0.00    +0.000 OA
BRANCH  25  27
ATOM     27  O   UNL     1       0.803   2.778  20.815  0.00  0.00    +0.000 OA
ATOM     28  H   UNL     1       0.378   3.657  20.872  0.00  0.00    +0.000 HD
ENDBRANCH  25  27
ENDBRANCH   8  25
TORSDOF 6
ENDMDL
MODEL 3
REMARK VINA RESULT:      -8.2      0.861      1.228
REMARK  Name = 
REMARK  8 active torsions:
REMARK  status: ('A' for Active; 'I' for Inactive)
REMARK    1  A    between atoms: C_1  and  C_2
REMARK    2  A    between atoms: C_2  and  C_3
REMARK    3  A    between atoms: C_2  and  C_4
REMARK    4  A    between atoms: C_2  and  C_6
REMARK    5  A    between atoms: C_4  and  O_5
REMARK    6  A    between atoms: C_9  and  C_10
REMARK    7  A    between atoms: C_17  and  C_18
REMARK    8  A    between atoms: C_18  and  O_20
REMARK                            x       y       z     vdW  Elec       q    Type
REMARK                         _______ _______ _______ _____ _____    ______ ____
ROOT
ATOM      1  C   UNL     1       2.893   6.652  18.977  0.00  0.00    +0.000 A 
ATOM      2  C   UNL     1       4.086   6.501  18.255  0.00  0.00    +0.000 A 
ATOM      3  F   UNL     1       4.553   7.514  17.504  0.00  0.00    +0.000 F 
ATOM      4  C   UNL     1       4.848   5.322  18.275  0.00  0.00    +0.000 A 
ATOM      5  C   UNL     1       4.367   4.255  19.038  0.00  0.00    +0.000 A 
ATOM      6  N   UNL     1       4.876   2.996  19.254  0.00  0.00    +0.000 N 
ATOM      7  C   UNL     1       4.018   2.278  20.043  0.00  0.00    +0.000 A 
ATOM      8  C   UNL     1       2.938   3.072  20.383  0.00  0.00    +0.000 A 
ATOM      9  C   UNL     1       3.177   4.335  19.760  0.00  0.00    +0.000 A 
ATOM     10  C   UNL     1       2.472   5.547  19.727  0.00  0.00    +0.000 A 
ATOM     11  F   UNL     1       1.376   5.640  20.498  0.00  0.00    +0.000 F 
ATOM     12  H   UNL     1       5.747   2.648  18.875  0.00  0.00    +0.000 HD
ENDROOT
BRANCH   1  16
ATOM     13  C   UNL     1       0.436  10.208  19.080  0.00  0.00    +0.000 A 
ATOM     14  C   UNL     1       0.908   9.688  17.867  0.00  0.00    +0.000 A 
ATOM     15  C   UNL     1       1.745   8.574  17.842  0.00  0.00    +0.000 A 
ATOM     16  C   UNL     1       2.113   7.900  19.021  0.00  0.00    +0.000 A 
ATOM     17  C   UNL     1       1.639   8.417  20.227  0.00  0.00    +0.000 A 
ATOM     18  C   UNL     1       0.823   9.551  20.259  0.00  0.00    +0.000 A 
BRANCH  13  20
ATOM     19  C   UNL     1      -1.591  11.287  18.051  0.00  0.00    +0.000 C 
ATOM     20  C   UNL     1      -0.455  11.459  19.085  0.00  0.00    +0.000 C 
ATOM     21  C   UNL     1       0.404  12.682  18.690  0.00  0.00    +0.000 C 
BRANCH  20  22
ATOM     22  C   UNL     1      -1.093  11.718  20.478  0.00  0.00    +0.000 C 
BRANCH  22  23
ATOM     23  O   UNL     1      -0.426  12.733  21.219  0.00  0.00    +0.000 OA
ATOM     24  H   UNL     1       0.510  12.713  20.960  0.00  0.00    +0.000 HD
ENDBRANCH  22  23
ENDBRANCH  20  22
ENDBRANCH  13  20
ENDBRANCH   1  16
BRANCH   8  25
ATOM     25  C   UNL     1       1.798   2.622  21.182  0.00  0.00    +0.000 C 
ATOM     26  O   UNL     1       1.917   2.213  22.333  0.00  0.00    +0.000 OA
BRANCH  25  27
ATOM     27  O   UNL     1       0.581   2.703  20.592  0.00  0.00    +0.000 OA
ATOM     28  H   UNL     1      -0.162   2.469  21.183  0.00  0.00    +0.000 HD
ENDBRANCH  25  27
ENDBRANCH   8  25
TORSDOF 6
ENDMDL
MODEL 4
REMARK VINA RESULT:      -8.2      3.249      4.223
REMARK  Name = 
REMARK  8 active torsions:
REMARK  status: ('A' for Active; 'I' for Inactive)
REMARK    1  A    between atoms: C_1  and  C_2
REMARK    2  A    between atoms: C_2  and  C_3
REMARK    3  A    between atoms: C_2  and  C_4
REMARK    4  A    between atoms: C_2  and  C_6
REMARK    5  A    between atoms: C_4  and  O_5
REMARK    6  A    between atoms: C_9  and  C_10
REMARK    7  A    between atoms: C_17  and  C_18
REMARK    8  A    between atoms: C_18  and  O_20
REMARK                            x       y       z     vdW  Elec       q    Type
REMARK                         _______ _______ _______ _____ _____    ______ ____
ROOT
ATOM      1  C   UNL     1       2.951   6.077  18.143  0.00  0.00    +0.000 A 
ATOM      2  C   UNL     1       2.359   4.809  18.235  0.00  0.00    +0.000 A 
ATOM      3  F   UNL     1       1.186   4.657  18.874  0.00  0.00    +0.000 F 
ATOM      4  C   UNL     1       2.932   3.656  17.676  0.00  0.00    +0.000 A 
ATOM      5  C   UNL     1       4.159   3.795  17.023  0.00  0.00    +0.000 A 
ATOM      6  N   UNL     1       4.956   2.872  16.388  0.00  0.00    +0.000 N 
ATOM      7  C   UNL     1       6.098   3.476  15.937  0.00  0.00    +0.000 A 
ATOM      8  C   UNL     1       6.054   4.823  16.246  0.00  0.00    +0.000 A 
ATOM      9  C   UNL     1       4.808   5.024  16.917  0.00  0.00    +0.000 A 
ATOM     10  C   UNL     1       4.175   6.148  17.467  0.00  0.00    +0.000 A 
ATOM     11  F   UNL     1       4.768   7.339  17.280  0.00  0.00    +0.000 F 
ATOM     12  H   UNL     1       4.736   1.890  16.282  0.00  0.00    +0.000 HD
ENDROOT
BRANCH   1  16
ATOM     13  C   UNL     1       0.966   9.615  19.638  0.00  0.00    +0.000 A 
ATOM     14  C   UNL     1       1.253   9.467  18.274  0.00  0.00    +0.000 A 
ATOM     15  C   UNL     1       1.942   8.350  17.804  0.00  0.00    +0.000 A 
ATOM     16  C   UNL     1       2.336   7.309  18.664  0.00  0.00    +0.000 A 
ATOM     17  C   UNL     1       2.045   7.457  20.021  0.00  0.00    +0.000 A 
ATOM     18  C   UNL     1       1.380   8.588  20.501  0.00  0.00    +0.000 A 
BRANCH  13  20
ATOM     19  C   UNL     1      -0.142  10.693  21.624  0.00  0.00    +0.000 C 
ATOM     20  C   UNL     1       0.238  10.872  20.137  0.00  0.00    +0.000 C 
ATOM     21  C   UNL     1      -1.053  11.060  19.307  0.00  0.00    +0.000 C 
BRANCH  20  22
ATOM     22  C   UNL     1       1.114  12.148  20.004  0.00  0.00    +0.000 C 
BRANCH  22  23
ATOM     23  O   UNL     1       1.718  12.544  21.230  0.00  0.00    +0.000 OA
ATOM     24  H   UNL     1       1.265  12.065  21.943  0.00  0.00    +0.000 HD
ENDBRANCH  22  23
ENDBRANCH  20  22
ENDBRANCH  13  20
ENDBRANCH   1  16
BRANCH   8  25
ATOM     25  C   UNL     1       7.126   5.775  15.958  0.00  0.00    +0.000 C 
ATOM     26  O   UNL     1       7.497   6.620  16.768  0.00  0.00    +0.000 OA
BRANCH  25  27
ATOM     27  O   UNL     1       7.719   5.665  14.744  0.00  0.00    +0.000 OA
ATOM     28  H   UNL     1       8.092   4.779  14.564  0.00  0.00    +0.000 HD
ENDBRANCH  25  27
ENDBRANCH   8  25
TORSDOF 6
ENDMDL
MODEL 5
REMARK VINA RESULT:      -8.1      1.027      1.671
REMARK  Name = 
REMARK  8 active torsions:
REMARK  status: ('A' for Active; 'I' for Inactive)
REMARK    1  A    between atoms: C_1  and  C_2
REMARK    2  A    between atoms: C_2  and  C_3
REMARK    3  A    between atoms: C_2  and  C_4
REMARK    4  A    between atoms: C_2  and  C_6
REMARK    5  A    between atoms: C_4  and  O_5
REMARK    6  A    between atoms: C_9  and  C_10
REMARK    7  A    between atoms: C_17  and  C_18
REMARK    8  A    between atoms: C_18  and  O_20
REMARK                            x       y       z     vdW  Elec       q    Type
REMARK                         _______ _______ _______ _____ _____    ______ ____
ROOT
ATOM      1  C   UNL     1       2.912   6.623  18.945  0.00  0.00    +0.000 A 
ATOM      2  C   UNL     1       4.099   6.467  18.215  0.00  0.00    +0.000 A 
ATOM      3  F   UNL     1       4.567   7.477  17.462  0.00  0.00    +0.000 F 
ATOM      4  C   UNL     1       4.855   5.284  18.230  0.00  0.00    +0.000 A 
ATOM      5  C   UNL     1       4.373   4.218  18.995  0.00  0.00    +0.000 A 
ATOM      6  N   UNL     1       4.876   2.956  19.207  0.00  0.00    +0.000 N 
ATOM      7  C   UNL     1       4.019   2.242  20.000  0.00  0.00    +0.000 A 
ATOM      8  C   UNL     1       2.946   3.042  20.349  0.00  0.00    +0.000 A 
ATOM      9  C   UNL     1       3.188   4.305  19.724  0.00  0.00    +0.000 A 
ATOM     10  C   UNL     1       2.490   5.521  19.697  0.00  0.00    +0.000 A 
ATOM     11  F   UNL     1       1.399   5.620  20.475  0.00  0.00    +0.000 F 
ATOM     12  H   UNL     1       5.742   2.604  18.822  0.00  0.00    +0.000 HD
ENDROOT
BRANCH   1  16
ATOM     13  C   UNL     1       0.812  10.397  19.140  0.00  0.00    +0.000 A 
ATOM     14  C   UNL     1       0.987   9.606  20.283  0.00  0.00    +0.000 A 
ATOM     15  C   UNL     1       1.616   8.364  20.205  0.00  0.00    +0.000 A 
ATOM     16  C   UNL     1       2.140   7.876  18.994  0.00  0.00    +0.000 A 
ATOM     17  C   UNL     1       1.968   8.669  17.859  0.00  0.00    +0.000 A 
ATOM     18  C   UNL     1       1.312   9.900  17.927  0.00  0.00    +0.000 A 
BRANCH  13  20
ATOM     19  C   UNL     1      -1.235  11.684  18.440  0.00  0.00    +0.000 C 
ATOM     20  C   UNL     1       0.083  11.745  19.244  0.00  0.00    +0.000 C 
ATOM     21  C   UNL     1       0.987  12.847  18.644  0.00  0.00    +0.000 C 
BRANCH  20  22
ATOM     22  C   UNL     1      -0.255  12.116  20.715  0.00  0.00    +0.000 C 
BRANCH  22  23
ATOM     23  O   UNL     1       0.785  12.839  21.364  0.00  0.00    +0.000 OA
ATOM     24  H   UNL     1       0.377  13.604  21.801  0.00  0.00    +0.000 HD
ENDBRANCH  22  23
ENDBRANCH  20  22
ENDBRANCH  13  20
ENDBRANCH   1  16
BRANCH   8  25
ATOM     25  C   UNL     1       1.808   2.599  21.154  0.00  0.00    +0.000 C 
ATOM     26  O   UNL     1       1.930   2.199  22.308  0.00  0.00    +0.000 OA
BRANCH  25  27
ATOM     27  O   UNL     1       0.589   2.675  20.567  0.00  0.00    +0.000 OA
ATOM     28  H   UNL     1      -0.134   2.906  21.184  0.00  0.00    +0.000 HD
ENDBRANCH  25  27
ENDBRANCH   8  25
TORSDOF 6
ENDMDL
MODEL 6
REMARK VINA RESULT:      -8.1      3.035      3.954
REMARK  Name = 
REMARK  8 active torsions:
REMARK  status: ('A' for Active; 'I' for Inactive)
REMARK    1  A    between atoms: C_1  and  C_2
REMARK    2  A    between atoms: C_2  and  C_3
REMARK    3  A    between atoms: C_2  and  C_4
REMARK    4  A    between atoms: C_2  and  C_6
REMARK    5  A    between atoms: C_4  and  O_5
REMARK    6  A    between atoms: C_9  and  C_10
REMARK    7  A    between atoms: C_17  and  C_18
REMARK    8  A    between atoms: C_18  and  O_20
REMARK                            x       y       z     vdW  Elec       q    Type
REMARK                         _______ _______ _______ _____ _____    ______ ____
ROOT
ATOM      1  C   UNL     1       2.925   6.188  18.151  0.00  0.00    +0.000 A 
ATOM      2  C   UNL     1       2.332   4.929  18.324  0.00  0.00    +0.000 A 
ATOM      3  F   UNL     1       1.167   4.816  18.985  0.00  0.00    +0.000 F 
ATOM      4  C   UNL     1       2.897   3.744  17.827  0.00  0.00    +0.000 A 
ATOM      5  C   UNL     1       4.116   3.842  17.152  0.00  0.00    +0.000 A 
ATOM      6  N   UNL     1       4.904   2.882  16.562  0.00  0.00    +0.000 N 
ATOM      7  C   UNL     1       6.042   3.457  16.063  0.00  0.00    +0.000 A 
ATOM      8  C   UNL     1       6.003   4.820  16.294  0.00  0.00    +0.000 A 
ATOM      9  C   UNL     1       4.766   5.062  16.967  0.00  0.00    +0.000 A 
ATOM     10  C   UNL     1       4.141   6.217  17.458  0.00  0.00    +0.000 A 
ATOM     11  F   UNL     1       4.733   7.394  17.194  0.00  0.00    +0.000 F 
ATOM     12  H   UNL     1       4.682   1.896  16.516  0.00  0.00    +0.000 HD
ENDROOT
BRANCH   1  16
ATOM     13  C   UNL     1       0.963   9.816  19.449  0.00  0.00    +0.000 A 
ATOM     14  C   UNL     1       1.306   9.618  18.104  0.00  0.00    +0.000 A 
ATOM     15  C   UNL     1       1.987   8.472  17.699  0.00  0.00    +0.000 A 
ATOM     16  C   UNL     1       2.318   7.450  18.607  0.00  0.00    +0.000 A 
ATOM     17  C   UNL     1       1.972   7.647  19.945  0.00  0.00    +0.000 A 
ATOM     18  C   UNL     1       1.315   8.807  20.360  0.00  0.00    +0.000 A 
BRANCH  13  20
ATOM     19  C   UNL     1       1.270  12.255  19.990  0.00  0.00    +0.000 C 
ATOM     20  C   UNL     1       0.245  11.104  19.877  0.00  0.00    +0.000 C 
ATOM     21  C   UNL     1      -0.407  10.873  21.260  0.00  0.00    +0.000 C 
BRANCH  20  22
ATOM     22  C   UNL     1      -0.857  11.525  18.864  0.00  0.00    +0.000 C 
BRANCH  22  23
ATOM     23  O   UNL     1      -0.456  12.591  18.012  0.00  0.00    +0.000 OA
ATOM     24  H   UNL     1      -1.116  13.298  18.102  0.00  0.00    +0.000 HD
ENDBRANCH  22  23
ENDBRANCH  20  22
ENDBRANCH  13  20
ENDBRANCH   1  16
BRANCH   8  25
ATOM     25  C   UNL     1       7.073   5.751  15.937  0.00  0.00    +0.000 C 
ATOM     26  O   UNL     1       7.519   6.579  16.726  0.00  0.00    +0.000 OA
BRANCH  25  27
ATOM     27  O   UNL     1       7.576   5.640  14.684  0.00  0.00    +0.000 OA
ATOM     28  H   UNL     1       8.035   6.443  14.368  0.00  0.00    +0.000 HD
ENDBRANCH  25  27
ENDBRANCH   8  25
TORSDOF 6
ENDMDL
MODEL 7
REMARK VINA RESULT:      -8.1      3.232      4.185
REMARK  Name = 
REMARK  8 active torsions:
REMARK  status: ('A' for Active; 'I' for Inactive)
REMARK    1  A    between atoms: C_1  and  C_2
REMARK    2  A    between atoms: C_2  and  C_3
REMARK    3  A    between atoms: C_2  and  C_4
REMARK    4  A    between atoms: C_2  and  C_6
REMARK    5  A    between atoms: C_4  and  O_5
REMARK    6  A    between atoms: C_9  and  C_10
REMARK    7  A    between atoms: C_17  and  C_18
REMARK    8  A    between atoms: C_18  and  O_20
REMARK                            x       y       z     vdW  Elec       q    Type
REMARK                         _______ _______ _______ _____ _____    ______ ____
ROOT
ATOM      1  C   UNL     1       2.922   6.165  18.166  0.00  0.00    +0.000 A 
ATOM      2  C   UNL     1       2.327   4.901  18.284  0.00  0.00    +0.000 A 
ATOM      3  F   UNL     1       1.152   4.764  18.921  0.00  0.00    +0.000 F 
ATOM      4  C   UNL     1       2.901   3.735  17.753  0.00  0.00    +0.000 A 
ATOM      5  C   UNL     1       4.131   3.858  17.101  0.00  0.00    +0.000 A 
ATOM      6  N   UNL     1       4.928   2.919  16.490  0.00  0.00    +0.000 N 
ATOM      7  C   UNL     1       6.074   3.512  16.031  0.00  0.00    +0.000 A 
ATOM      8  C   UNL     1       6.031   4.865  16.311  0.00  0.00    +0.000 A 
ATOM      9  C   UNL     1       4.782   5.083  16.972  0.00  0.00    +0.000 A 
ATOM     10  C   UNL     1       4.149   6.219  17.494  0.00  0.00    +0.000 A 
ATOM     11  F   UNL     1       4.745   7.405  17.283  0.00  0.00    +0.000 F 
ATOM     12  H   UNL     1       4.708   1.936  16.405  0.00  0.00    +0.000 HD
ENDROOT
BRANCH   1  16
ATOM     13  C   UNL     1       0.937   9.738  19.576  0.00  0.00    +0.000 A 
ATOM     14  C   UNL     1       1.225   9.558  18.217  0.00  0.00    +0.000 A 
ATOM     15  C   UNL     1       1.914   8.430  17.773  0.00  0.00    +0.000 A 
ATOM     16  C   UNL     1       2.307   7.410  18.658  0.00  0.00    +0.000 A 
ATOM     17  C   UNL     1       2.016   7.590  20.011  0.00  0.00    +0.000 A 
ATOM     18  C   UNL     1       1.351   8.732  20.463  0.00  0.00    +0.000 A 
BRANCH  13  20
ATOM     19  C   UNL     1      -0.850  11.412  18.996  0.00  0.00    +0.000 C 
ATOM     20  C   UNL     1       0.209  11.007  20.045  0.00  0.00    +0.000 C 
ATOM     21  C   UNL     1       1.242  12.149  20.184  0.00  0.00    +0.000 C 
BRANCH  20  22
ATOM     22  C   UNL     1      -0.504  10.802  21.411  0.00  0.00    +0.000 C 
BRANCH  22  23
ATOM     23  O   UNL     1      -0.119  11.758  22.392  0.00  0.00    +0.000 OA
ATOM     24  H   UNL     1       0.499  12.375  21.969  0.00  0.00    +0.000 HD
ENDBRANCH  22  23
ENDBRANCH  20  22
ENDBRANCH  13  20
ENDBRANCH   1  16
BRANCH   8  25
ATOM     25  C   UNL     1       7.106   5.809  16.005  0.00  0.00    +0.000 C 
ATOM     26  O   UNL     1       7.469   6.676  16.795  0.00  0.00    +0.000 OA
BRANCH  25  27
ATOM     27  O   UNL     1       7.710   5.665  14.801  0.00  0.00    +0.000 OA
ATOM     28  H   UNL     1       8.687   5.655  14.847  0.00  0.00    +0.000 HD
ENDBRANCH  25  27
ENDBRANCH   8  25
TORSDOF 6
ENDMDL
MODEL 8
REMARK VINA RESULT:      -8.1      3.192      4.257
REMARK  Name = 
REMARK  8 active torsions:
REMARK  status: ('A' for Active; 'I' for Inactive)
REMARK    1  A    between atoms: C_1  and  C_2
REMARK    2  A    between atoms: C_2  and  C_3
REMARK    3  A    between atoms: C_2  and  C_4
REMARK    4  A    between atoms: C_2  and  C_6
REMARK    5  A    between atoms: C_4  and  O_5
REMARK    6  A    between atoms: C_9  and  C_10
REMARK    7  A    between atoms: C_17  and  C_18
REMARK    8  A    between atoms: C_18  and  O_20
REMARK                            x       y       z     vdW  Elec       q    Type
REMARK                         _______ _______ _______ _____ _____    ______ ____
ROOT
ATOM      1  C   UNL     1       3.036   6.451  18.165  0.00  0.00    +0.000 A 
ATOM      2  C   UNL     1       2.570   5.168  17.848  0.00  0.00    +0.000 A 
ATOM      3  F   UNL     1       1.272   4.861  18.013  0.00  0.00    +0.000 F 
ATOM      4  C   UNL     1       3.402   4.155  17.346  0.00  0.00    +0.000 A 
ATOM      5  C   UNL     1       4.758   4.454  17.184  0.00  0.00    +0.000 A 
ATOM      6  N   UNL     1       5.804   3.689  16.724  0.00  0.00    +0.000 N 
ATOM      7  C   UNL     1       6.969   4.405  16.795  0.00  0.00    +0.000 A 
ATOM      8  C   UNL     1       6.697   5.671  17.279  0.00  0.00    +0.000 A 
ATOM      9  C   UNL     1       5.285   5.704  17.503  0.00  0.00    +0.000 A 
ATOM     10  C   UNL     1       4.403   6.686  17.972  0.00  0.00    +0.000 A 
ATOM     11  F   UNL     1       4.908   7.912  18.190  0.00  0.00    +0.000 F 
ATOM     12  H   UNL     1       5.726   2.735  16.397  0.00  0.00    +0.000 HD
ENDROOT
BRANCH   1  16
ATOM     13  C   UNL     1       0.655   9.775  19.572  0.00  0.00    +0.000 A 
ATOM     14  C   UNL     1       1.131   8.798  20.458  0.00  0.00    +0.000 A 
ATOM     15  C   UNL     1       1.851   7.699  19.993  0.00  0.00    +0.000 A 
ATOM     16  C   UNL     1       2.169   7.547  18.631  0.00  0.00    +0.000 A 
ATOM     17  C   UNL     1       1.697   8.523  17.752  0.00  0.00    +0.000 A 
ATOM     18  C   UNL     1       0.950   9.611  18.210  0.00  0.00    +0.000 A 
BRANCH  13  20
ATOM     19  C   UNL     1      -0.602  10.672  21.560  0.00  0.00    +0.000 C 
ATOM     20  C   UNL     1      -0.168  10.957  20.104  0.00  0.00    +0.000 C 
ATOM     21  C   UNL     1      -1.431  11.119  19.226  0.00  0.00    +0.000 C 
BRANCH  20  22
ATOM     22  C   UNL     1       0.635  12.287  20.083  0.00  0.00    +0.000 C 
BRANCH  22  23
ATOM     23  O   UNL     1       1.371  12.517  21.279  0.00  0.00    +0.000 OA
ATOM     24  H   UNL     1       1.558  11.650  21.675  0.00  0.00    +0.000 HD
ENDBRANCH  22  23
ENDBRANCH  20  22
ENDBRANCH  13  20
ENDBRANCH   1  16
BRANCH   8  25
ATOM     25  C   UNL     1       7.708   6.697  17.530  0.00  0.00    +0.000 C 
ATOM     26  O   UNL     1       8.046   7.516  16.679  0.00  0.00    +0.000 OA
BRANCH  25  27
ATOM     27  O   UNL     1       8.247   6.721  18.773  0.00  0.00    +0.000 OA
ATOM     28  H   UNL     1       8.926   6.033  18.923  0.00  0.00    +0.000 HD
ENDBRANCH  25  27
ENDBRANCH   8  25
TORSDOF 6
ENDMDL
MODEL 9
REMARK VINA RESULT:      -8.1      1.012      1.221
REMARK  Name = 
REMARK  8 active torsions:
REMARK  status: ('A' for Active; 'I' for Inactive)
REMARK    1  A    between atoms: C_1  and  C_2
REMARK    2  A    between atoms: C_2  and  C_3
REMARK    3  A    between atoms: C_2  and  C_4
REMARK    4  A    between atoms: C_2  and  C_6
REMARK    5  A    between atoms: C_4  and  O_5
REMARK    6  A    between atoms: C_9  and  C_10
REMARK    7  A    between atoms: C_17  and  C_18
REMARK    8  A    between atoms: C_18  and  O_20
REMARK                            x       y       z     vdW  Elec       q    Type
REMARK                         _______ _______ _______ _____ _____    ______ ____
ROOT
ATOM      1  C   UNL     1       2.949   6.562  18.400  0.00  0.00    +0.000 A 
ATOM      2  C   UNL     1       4.203   6.413  17.791  0.00  0.00    +0.000 A 
ATOM      3  F   UNL     1       4.879   7.493  17.363  0.00  0.00    +0.000 F 
ATOM      4  C   UNL     1       4.817   5.165  17.600  0.00  0.00    +0.000 A 
ATOM      5  C   UNL     1       4.120   4.030  18.025  0.00  0.00    +0.000 A 
ATOM      6  N   UNL     1       4.449   2.696  17.977  0.00  0.00    +0.000 N 
ATOM      7  C   UNL     1       3.417   1.946  18.472  0.00  0.00    +0.000 A 
ATOM      8  C   UNL     1       2.398   2.785  18.884  0.00  0.00    +0.000 A 
ATOM      9  C   UNL     1       2.861   4.111  18.617  0.00  0.00    +0.000 A 
ATOM     10  C   UNL     1       2.309   5.386  18.809  0.00  0.00    +0.000 A 
ATOM     11  F   UNL     1       1.136   5.455  19.462  0.00  0.00    +0.000 F 
ATOM     12  H   UNL     1       5.318   2.324  17.617  0.00  0.00    +0.000 HD
ENDROOT
BRANCH   1  16
ATOM     13  C   UNL     1       0.918  10.308  19.128  0.00  0.00    +0.000 A 
ATOM     14  C   UNL     1       1.424   9.993  17.860  0.00  0.00    +0.000 A 
ATOM     15  C   UNL     1       2.126   8.809  17.643  0.00  0.00    +0.000 A 
ATOM     16  C   UNL     1       2.317   7.864  18.667  0.00  0.00    +0.000 A 
ATOM     17  C   UNL     1       1.808   8.179  19.928  0.00  0.00    +0.000 A 
ATOM     18  C   UNL     1       1.128   9.378  20.157  0.00  0.00    +0.000 A 
BRANCH  13  20
ATOM     19  C   UNL     1       1.097  12.812  18.950  0.00  0.00    +0.000 C 
ATOM     20  C   UNL     1       0.179  11.636  19.351  0.00  0.00    +0.000 C 
ATOM     21  C   UNL     1      -0.174  11.762  20.851  0.00  0.00    +0.000 C 
BRANCH  20  22
ATOM     22  C   UNL     1      -1.129  11.727  18.516  0.00  0.00    +0.000 C 
BRANCH  22  23
ATOM     23  O   UNL     1      -1.088  12.742  17.520  0.00  0.00    +0.000 OA
ATOM     24  H   UNL     1      -0.401  13.377  17.781  0.00  0.00    +0.000 HD
ENDBRANCH  22  23
ENDBRANCH  20  22
ENDBRANCH  13  20
ENDBRANCH   1  16
BRANCH   8  25
ATOM     25  C   UNL     1       1.117   2.332  19.425  0.00  0.00    +0.000 C 
ATOM     26  O   UNL     1       0.256   1.802  18.730  0.00  0.00    +0.000 OA
BRANCH  25  27
ATOM     27  O   UNL     1       0.932   2.502  20.757  0.00  0.00    +0.000 OA
ATOM     28  H   UNL     1       1.436   1.872  21.311  0.00  0.00    +0.000 HD
ENDBRANCH  25  27
ENDBRANCH   8  25
TORSDOF 6
ENDMDL
