MODEL 1
REMARK VINA RESULT:      -7.6      0.000      0.000
REMARK  Name = 
REMARK  4 active torsions:
REMARK  status: ('A' for Active; 'I' for Inactive)
REMARK    1  A    between atoms: C_1  and  C_2
REMARK    2  A    between atoms: C_5  and  C_6
REMARK    3  A    between atoms: N_8  and  C_9
REMARK    4  A    between atoms: N_17  and  C_18
REMARK                            x       y       z     vdW  Elec       q    Type
REMARK                         _______ _______ _______ _____ _____    ______ ____
ROOT
ATOM      1  C   UNL     1       1.520   9.314  19.373  0.00  0.00    +0.000 C 
ATOM      2  C   UNL     1       2.409   9.711  18.177  0.00  0.00    +0.000 C 
ATOM      3  C   UNL     1       2.987   8.607  17.270  0.00  0.00    +0.000 C 
ATOM      4  C   UNL     1       3.057   7.156  17.769  0.00  0.00    +0.000 C 
ATOM      5  C   UNL     1       2.384   6.940  19.070  0.00  0.00    +0.000 A 
ATOM      6  C   UNL     1       1.697   7.901  19.780  0.00  0.00    +0.000 A 
ATOM      7  C   UNL     1       1.228   7.233  20.917  0.00  0.00    +0.000 A 
ATOM      8  N   UNL     1       1.505   5.933  20.890  0.00  0.00    +0.000 NA
ATOM      9  N   UNL     1       2.214   5.736  19.747  0.00  0.00    +0.000 N 
ENDROOT
BRANCH   9  10
ATOM     10  C   UNL     1       2.659   4.424  19.407  0.00  0.00    +0.000 A 
ATOM     11  C   UNL     1       3.705   3.795  20.097  0.00  0.00    +0.000 A 
ATOM     12  C   UNL     1       4.129   2.516  19.728  0.00  0.00    +0.000 A 
ATOM     13  C   UNL     1       3.506   1.863  18.681  0.00  0.00    +0.000 A 
ATOM     14  F   UNL     1       3.933   0.647  18.319  0.00  0.00    +0.000 F 
ATOM     15  C   UNL     1       2.459   2.454  17.993  0.00  0.00    +0.000 A 
ATOM     16  C   UNL     1       2.031   3.728  18.364  0.00  0.00    +0.000 A 
ATOM     17  F   UNL     1       1.059   4.280  17.624  0.00  0.00    +0.000 F 
ENDBRANCH   9  10
BRANCH   1  20
ATOM     18  C   UNL     1      -0.440  10.783  19.196  0.00  0.00    +0.000 C 
ATOM     19  O   UNL     1       0.195  11.757  19.587  0.00  0.00    +0.000 OA
ATOM     20  N   UNL     1       0.112   9.523  19.079  0.00  0.00    +0.000 N 
ATOM     21  H   UNL     1      -0.380   8.795  18.579  0.00  0.00    +0.000 HD
BRANCH  18  26
ATOM     22  C   UNL     1      -5.949  11.716  17.912  0.00  0.00    +0.000 C 
ATOM     23  C   UNL     1      -4.509  11.416  18.202  0.00  0.00    +0.000 A 
ATOM     24  C   UNL     1      -3.845  10.370  17.564  0.00  0.00    +0.000 A 
ATOM     25  C   UNL     1      -2.500  10.132  17.863  0.00  0.00    +0.000 A 
ATOM     26  C   UNL     1      -1.855  10.946  18.792  0.00  0.00    +0.000 A 
ATOM     27  C   UNL     1      -2.599  11.951  19.397  0.00  0.00    +0.000 A 
ATOM     28  N   UNL     1      -3.900  12.209  19.115  0.00  0.00    +0.000 NA
ENDBRANCH  18  26
ENDBRANCH   1  20
TORSDOF 3
ENDMDL
MODEL 2
REMARK VINA RESULT:      -7.6      1.015      1.054
REMARK  Name = 
REMARK  4 active torsions:
REMARK  status: ('A' for Active; 'I' for Inactive)
REMARK    1  A    between atoms: C_1  and  C_2
REMARK    2  A    between atoms: C_5  and  C_6
REMARK    3  A    between atoms: N_8  and  C_9
REMARK    4  A    between atoms: N_17  and  C_18
REMARK                            x       y       z     vdW  Elec       q    Type
REMARK                         _______ _______ _______ _____ _____    ______ ____
ROOT
ATOM      1  C   UNL     1       1.097   9.974  19.402  0.00  0.00    +0.000 C 
ATOM      2  C   UNL     1       1.924  10.314  18.145  0.00  0.00    +0.000 C 
ATOM      3  C   UNL     1       2.562   9.171  17.333  0.00  0.00    +0.000 C 
ATOM      4  C   UNL     1       2.755   7.786  17.970  0.00  0.00    +0.000 C 
ATOM      5  C   UNL     1       2.132   7.652  19.306  0.00  0.00    +0.000 A 
ATOM      6  C   UNL     1       1.390   8.626  19.939  0.00  0.00    +0.000 A 
ATOM      7  C   UNL     1       1.001   8.043  21.151  0.00  0.00    +0.000 A 
ATOM      8  N   UNL     1       1.375   6.770  21.242  0.00  0.00    +0.000 NA
ATOM      9  N   UNL     1       2.070   6.513  20.103  0.00  0.00    +0.000 N 
ENDROOT
BRANCH   9  10
ATOM     10  C   UNL     1       2.606   5.210  19.879  0.00  0.00    +0.000 A 
ATOM     11  C   UNL     1       3.964   5.007  19.594  0.00  0.00    +0.000 A 
ATOM     12  C   UNL     1       4.454   3.720  19.362  0.00  0.00    +0.000 A 
ATOM     13  C   UNL     1       3.596   2.638  19.425  0.00  0.00    +0.000 A 
ATOM     14  F   UNL     1       4.070   1.410  19.180  0.00  0.00    +0.000 F 
ATOM     15  C   UNL     1       2.254   2.808  19.722  0.00  0.00    +0.000 A 
ATOM     16  C   UNL     1       1.764   4.091  19.958  0.00  0.00    +0.000 A 
ATOM     17  F   UNL     1       0.447   4.206  20.176  0.00  0.00    +0.000 F 
ENDBRANCH   9  10
BRANCH   1  20
ATOM     18  C   UNL     1      -0.979  11.267  19.169  0.00  0.00    +0.000 C 
ATOM     19  O   UNL     1      -0.416  12.315  19.467  0.00  0.00    +0.000 OA
ATOM     20  N   UNL     1      -0.330  10.048  19.133  0.00  0.00    +0.000 N 
ATOM     21  H   UNL     1      -0.773   9.247  18.703  0.00  0.00    +0.000 HD
BRANCH  18  26
ATOM     22  C   UNL     1      -6.583  11.625  18.013  0.00  0.00    +0.000 C 
ATOM     23  C   UNL     1      -5.113  11.478  18.267  0.00  0.00    +0.000 A 
ATOM     24  C   UNL     1      -4.347  10.546  17.568  0.00  0.00    +0.000 A 
ATOM     25  C   UNL     1      -2.978  10.449  17.835  0.00  0.00    +0.000 A 
ATOM     26  C   UNL     1      -2.411  11.287  18.794  0.00  0.00    +0.000 A 
ATOM     27  C   UNL     1      -3.252  12.171  19.458  0.00  0.00    +0.000 A 
ATOM     28  N   UNL     1      -4.580  12.291  19.208  0.00  0.00    +0.000 NA
ENDBRANCH  18  26
ENDBRANCH   1  20
TORSDOF 3
ENDMDL
MODEL 3
REMARK VINA RESULT:      -7.6      1.051      1.302
REMARK  Name = 
REMARK  4 active torsions:
REMARK  status: ('A' for Active; 'I' for Inactive)
REMARK    1  A    between atoms: C_1  and  C_2
REMARK    2  A    between atoms: C_5  and  C_6
REMARK    3  A    between atoms: N_8  and  C_9
REMARK    4  A    between atoms: N_17  and  C_18
REMARK                            x       y       z     vdW  Elec       q    Type
REMARK                         _______ _______ _______ _____ _____    ______ ____
ROOT
ATOM      1  C   UNL     1       1.281   9.678  19.442  0.00  0.00    +0.000 C 
ATOM      2  C   UNL     1       2.118  10.050  18.201  0.00  0.00    +0.000 C 
ATOM      3  C   UNL     1       2.701   8.927  17.323  0.00  0.00    +0.000 C 
ATOM      4  C   UNL     1       2.835   7.502  17.881  0.00  0.00    +0.000 C 
ATOM      5  C   UNL     1       2.212   7.321  19.212  0.00  0.00    +0.000 A 
ATOM      6  C   UNL     1       1.517   8.290  19.902  0.00  0.00    +0.000 A 
ATOM      7  C   UNL     1       1.107   7.659  21.083  0.00  0.00    +0.000 A 
ATOM      8  N   UNL     1       1.425   6.368  21.101  0.00  0.00    +0.000 NA
ATOM      9  N   UNL     1       2.103   6.144  19.945  0.00  0.00    +0.000 N 
ENDROOT
BRANCH   9  10
ATOM     10  C   UNL     1       2.580   4.833  19.646  0.00  0.00    +0.000 A 
ATOM     11  C   UNL     1       1.706   3.756  19.441  0.00  0.00    +0.000 A 
ATOM     12  C   UNL     1       2.206   2.480  19.167  0.00  0.00    +0.000 A 
ATOM     13  C   UNL     1       3.571   2.282  19.087  0.00  0.00    +0.000 A 
ATOM     14  F   UNL     1       4.042   1.052  18.845  0.00  0.00    +0.000 F 
ATOM     15  C   UNL     1       4.457   3.332  19.266  0.00  0.00    +0.000 A 
ATOM     16  C   UNL     1       3.960   4.606  19.535  0.00  0.00    +0.000 A 
ATOM     17  F   UNL     1       4.860   5.571  19.766  0.00  0.00    +0.000 F 
ENDBRANCH   9  10
BRANCH   1  20
ATOM     18  C   UNL     1      -0.702  11.090  19.113  0.00  0.00    +0.000 C 
ATOM     19  O   UNL     1      -0.060  12.118  19.299  0.00  0.00    +0.000 OA
ATOM     20  N   UNL     1      -0.142   9.830  19.187  0.00  0.00    +0.000 N 
ATOM     21  H   UNL     1      -0.650   9.025  18.844  0.00  0.00    +0.000 HD
BRANCH  18  26
ATOM     22  C   UNL     1      -6.298  11.710  18.037  0.00  0.00    +0.000 C 
ATOM     23  C   UNL     1      -4.833  11.495  18.269  0.00  0.00    +0.000 A 
ATOM     24  C   UNL     1      -4.119  10.538  17.550  0.00  0.00    +0.000 A 
ATOM     25  C   UNL     1      -2.753  10.377  17.798  0.00  0.00    +0.000 A 
ATOM     26  C   UNL     1      -2.137  11.178  18.758  0.00  0.00    +0.000 A 
ATOM     27  C   UNL     1      -2.928  12.091  19.443  0.00  0.00    +0.000 A 
ATOM     28  N   UNL     1      -4.252  12.273  19.212  0.00  0.00    +0.000 NA
ENDBRANCH  18  26
ENDBRANCH   1  20
TORSDOF 3
ENDMDL
MODEL 4
REMARK VINA RESULT:      -7.3      1.416      1.850
REMARK  Name = 
REMARK  4 active torsions:
REMARK  status: ('A' for Active; 'I' for Inactive)
REMARK    1  A    between atoms: C_1  and  C_2
REMARK    2  A    between atoms: C_5  and  C_6
REMARK    3  A    between atoms: N_8  and  C_9
REMARK    4  A    between atoms: N_17  and  C_18
REMARK                            x       y       z     vdW  Elec       q    Type
REMARK                         _______ _______ _______ _____ _____    ______ ____
ROOT
ATOM      1  C   UNL     1       1.027  10.238  19.625  0.00  0.00    +0.000 C 
ATOM      2  C   UNL     1       1.769  10.499  18.298  0.00  0.00    +0.000 C 
ATOM      3  C   UNL     1       2.234   9.300  17.448  0.00  0.00    +0.000 C 
ATOM      4  C   UNL     1       2.360   7.907  18.082  0.00  0.00    +0.000 C 
ATOM      5  C   UNL     1       1.845   7.834  19.469  0.00  0.00    +0.000 A 
ATOM      6  C   UNL     1       1.248   8.871  20.151  0.00  0.00    +0.000 A 
ATOM      7  C   UNL     1       0.916   8.330  21.398  0.00  0.00    +0.000 A 
ATOM      8  N   UNL     1       1.185   7.030  21.473  0.00  0.00    +0.000 NA
ATOM      9  N   UNL     1       1.754   6.708  20.282  0.00  0.00    +0.000 N 
ENDROOT
BRANCH   9  10
ATOM     10  C   UNL     1       2.154   5.362  20.028  0.00  0.00    +0.000 A 
ATOM     11  C   UNL     1       1.239   4.300  20.057  0.00  0.00    +0.000 A 
ATOM     12  C   UNL     1       1.666   2.991  19.821  0.00  0.00    +0.000 A 
ATOM     13  C   UNL     1       2.998   2.743  19.548  0.00  0.00    +0.000 A 
ATOM     14  F   UNL     1       3.403   1.483  19.345  0.00  0.00    +0.000 F 
ATOM     15  C   UNL     1       3.920   3.776  19.495  0.00  0.00    +0.000 A 
ATOM     16  C   UNL     1       3.495   5.083  19.725  0.00  0.00    +0.000 A 
ATOM     17  F   UNL     1       4.437   6.036  19.727  0.00  0.00    +0.000 F 
ENDBRANCH   9  10
BRANCH   1  20
ATOM     18  C   UNL     1      -0.926  11.713  19.415  0.00  0.00    +0.000 C 
ATOM     19  O   UNL     1      -0.237  12.721  19.524  0.00  0.00    +0.000 OA
ATOM     20  N   UNL     1      -0.406  10.435  19.478  0.00  0.00    +0.000 N 
ATOM     21  H   UNL     1      -0.967   9.642  19.196  0.00  0.00    +0.000 HD
BRANCH  18  26
ATOM     22  C   UNL     1      -6.496  12.058  18.101  0.00  0.00    +0.000 C 
ATOM     23  C   UNL     1      -5.053  12.002  18.506  0.00  0.00    +0.000 A 
ATOM     24  C   UNL     1      -4.624  12.525  19.724  0.00  0.00    +0.000 A 
ATOM     25  C   UNL     1      -3.269  12.445  20.062  0.00  0.00    +0.000 A 
ATOM     26  C   UNL     1      -2.381  11.844  19.172  0.00  0.00    +0.000 A 
ATOM     27  C   UNL     1      -2.891  11.369  17.971  0.00  0.00    +0.000 A 
ATOM     28  N   UNL     1      -4.202  11.425  17.627  0.00  0.00    +0.000 NA
ENDBRANCH  18  26
ENDBRANCH   1  20
TORSDOF 3
ENDMDL
MODEL 5
REMARK VINA RESULT:      -7.2      3.482      5.087
REMARK  Name = 
REMARK  4 active torsions:
REMARK  status: ('A' for Active; 'I' for Inactive)
REMARK    1  A    between atoms: C_1  and  C_2
REMARK    2  A    between atoms: C_5  and  C_6
REMARK    3  A    between atoms: N_8  and  C_9
REMARK    4  A    between atoms: N_17  and  C_18
REMARK                            x       y       z     vdW  Elec       q    Type
REMARK                         _______ _______ _______ _____ _____    ______ ____
ROOT
ATOM      1  C   UNL     1       0.734  10.577  19.672  0.00  0.00    +0.000 C 
ATOM      2  C   UNL     1       0.164  10.203  21.056  0.00  0.00    +0.000 C 
ATOM      3  C   UNL     1       0.667   8.926  21.757  0.00  0.00    +0.000 C 
ATOM      4  C   UNL     1       1.370   7.827  20.946  0.00  0.00    +0.000 C 
ATOM      5  C   UNL     1       1.640   8.203  19.540  0.00  0.00    +0.000 A 
ATOM      6  C   UNL     1       1.361   9.429  18.977  0.00  0.00    +0.000 A 
ATOM      7  C   UNL     1       1.802   9.320  17.653  0.00  0.00    +0.000 A 
ATOM      8  N   UNL     1       2.405   8.158  17.416  0.00  0.00    +0.000 NA
ATOM      9  N   UNL     1       2.319   7.460  18.579  0.00  0.00    +0.000 N 
ENDROOT
BRANCH   9  10
ATOM     10  C   UNL     1       2.890   6.156  18.666  0.00  0.00    +0.000 A 
ATOM     11  C   UNL     1       4.100   5.922  19.335  0.00  0.00    +0.000 A 
ATOM     12  C   UNL     1       4.643   4.635  19.388  0.00  0.00    +0.000 A 
ATOM     13  C   UNL     1       3.976   3.585  18.786  0.00  0.00    +0.000 A 
ATOM     14  F   UNL     1       4.514   2.359  18.822  0.00  0.00    +0.000 F 
ATOM     15  C   UNL     1       2.770   3.785  18.134  0.00  0.00    +0.000 A 
ATOM     16  C   UNL     1       2.225   5.067  18.085  0.00  0.00    +0.000 A 
ATOM     17  F   UNL     1       1.091   5.217  17.386  0.00  0.00    +0.000 F 
ENDBRANCH   9  10
BRANCH   1  20
ATOM     18  C   UNL     1       1.556  12.815  19.083  0.00  0.00    +0.000 C 
ATOM     19  O   UNL     1       0.611  13.015  18.327  0.00  0.00    +0.000 OA
ATOM     20  N   UNL     1       1.728  11.634  19.776  0.00  0.00    +0.000 N 
ATOM     21  H   UNL     1       2.403  11.576  20.526  0.00  0.00    +0.000 HD
BRANCH  18  26
ATOM     22  C   UNL     1       5.493  16.957  19.536  0.00  0.00    +0.000 C 
ATOM     23  C   UNL     1       4.458  15.873  19.489  0.00  0.00    +0.000 A 
ATOM     24  C   UNL     1       3.875  15.380  20.655  0.00  0.00    +0.000 A 
ATOM     25  C   UNL     1       2.910  14.372  20.561  0.00  0.00    +0.000 A 
ATOM     26  C   UNL     1       2.554  13.886  19.304  0.00  0.00    +0.000 A 
ATOM     27  C   UNL     1       3.202  14.419  18.198  0.00  0.00    +0.000 A 
ATOM     28  N   UNL     1       4.132  15.404  18.263  0.00  0.00    +0.000 NA
ENDBRANCH  18  26
ENDBRANCH   1  20
TORSDOF 3
ENDMDL
MODEL 6
REMARK VINA RESULT:      -7.2      3.648      5.273
REMARK  Name = 
REMARK  4 active torsions:
REMARK  status: ('A' for Active; 'I' for Inactive)
REMARK    1  A    between atoms: C_1  and  C_2
REMARK    2  A    between atoms: C_5  and  C_6
REMARK    3  A    between atoms: N_8  and  C_9
REMARK    4  A    between atoms: N_17  and  C_18
REMARK                            x       y       z     vdW  Elec       q    Type
REMARK                         _______ _______ _______ _____ _____    ______ ____
ROOT
ATOM      1  C   UNL     1       0.691  10.923  19.664  0.00  0.00    +0.000 C 
ATOM      2  C   UNL     1       0.158  10.825  21.108  0.00  0.00    +0.000 C 
ATOM      3  C   UNL     1       0.632   9.667  22.008  0.00  0.00    +0.000 C 
ATOM      4  C   UNL     1       1.254   8.409  21.383  0.00  0.00    +0.000 C 
ATOM      5  C   UNL     1       1.486   8.520  19.924  0.00  0.00    +0.000 A 
ATOM      6  C   UNL     1       1.239   9.642  19.163  0.00  0.00    +0.000 A 
ATOM      7  C   UNL     1       1.624   9.282  17.867  0.00  0.00    +0.000 A 
ATOM      8  N   UNL     1       2.166   8.068  17.820  0.00  0.00    +0.000 NA
ATOM      9  N   UNL     1       2.094   7.588  19.089  0.00  0.00    +0.000 N 
ENDROOT
BRANCH   9  10
ATOM     10  C   UNL     1       2.611   6.292  19.387  0.00  0.00    +0.000 A 
ATOM     11  C   UNL     1       1.925   5.394  20.217  0.00  0.00    +0.000 A 
ATOM     12  C   UNL     1       2.467   4.139  20.503  0.00  0.00    +0.000 A 
ATOM     13  C   UNL     1       3.684   3.777  19.957  0.00  0.00    +0.000 A 
ATOM     14  F   UNL     1       4.206   2.581  20.254  0.00  0.00    +0.000 F 
ATOM     15  C   UNL     1       4.374   4.638  19.119  0.00  0.00    +0.000 A 
ATOM     16  C   UNL     1       3.833   5.888  18.828  0.00  0.00    +0.000 A 
ATOM     17  F   UNL     1       4.572   6.707  18.067  0.00  0.00    +0.000 F 
ENDBRANCH   9  10
BRANCH   1  20
ATOM     18  C   UNL     1       1.493  13.097  18.851  0.00  0.00    +0.000 C 
ATOM     19  O   UNL     1       0.439  13.321  18.264  0.00  0.00    +0.000 OA
ATOM     20  N   UNL     1       1.732  11.931  19.550  0.00  0.00    +0.000 N 
ATOM     21  H   UNL     1       2.527  11.863  20.172  0.00  0.00    +0.000 HD
BRANCH  18  26
ATOM     22  C   UNL     1       5.702  16.969  19.245  0.00  0.00    +0.000 C 
ATOM     23  C   UNL     1       4.588  15.981  19.075  0.00  0.00    +0.000 A 
ATOM     24  C   UNL     1       3.863  15.904  17.887  0.00  0.00    +0.000 A 
ATOM     25  C   UNL     1       2.836  14.962  17.773  0.00  0.00    +0.000 A 
ATOM     26  C   UNL     1       2.561  14.122  18.851  0.00  0.00    +0.000 A 
ATOM     27  C   UNL     1       3.318  14.282  20.004  0.00  0.00    +0.000 A 
ATOM     28  N   UNL     1       4.326  15.180  20.134  0.00  0.00    +0.000 NA
ENDBRANCH  18  26
ENDBRANCH   1  20
TORSDOF 3
ENDMDL
MODEL 7
REMARK VINA RESULT:      -7.1      2.934      4.822
REMARK  Name = 
REMARK  4 active torsions:
REMARK  status: ('A' for Active; 'I' for Inactive)
REMARK    1  A    between atoms: C_1  and  C_2
REMARK    2  A    between atoms: C_5  and  C_6
REMARK    3  A    between atoms: N_8  and  C_9
REMARK    4  A    between atoms: N_17  and  C_18
REMARK                            x       y       z     vdW  Elec       q    Type
REMARK                         _______ _______ _______ _____ _____    ______ ____
ROOT
ATOM      1  C   UNL     1      -1.827  12.210  18.732  0.00  0.00    +0.000 C 
ATOM      2  C   UNL     1      -2.453  11.695  17.420  0.00  0.00    +0.000 C 
ATOM      3  C   UNL     1      -2.137  10.263  16.948  0.00  0.00    +0.000 C 
ATOM      4  C   UNL     1      -0.913   9.520  17.502  0.00  0.00    +0.000 C 
ATOM      5  C   UNL     1      -0.226  10.237  18.600  0.00  0.00    +0.000 A 
ATOM      6  C   UNL     1      -0.638  11.432  19.149  0.00  0.00    +0.000 A 
ATOM      7  C   UNL     1       0.301  11.703  20.151  0.00  0.00    +0.000 A 
ATOM      8  N   UNL     1       1.181  10.717  20.300  0.00  0.00    +0.000 NA
ATOM      9  N   UNL     1       0.861   9.799  19.350  0.00  0.00    +0.000 N 
ENDROOT
BRANCH   9  10
ATOM     10  C   UNL     1       1.617   8.593  19.248  0.00  0.00    +0.000 A 
ATOM     11  C   UNL     1       2.419   8.314  18.132  0.00  0.00    +0.000 A 
ATOM     12  C   UNL     1       3.134   7.116  18.055  0.00  0.00    +0.000 A 
ATOM     13  C   UNL     1       3.055   6.203  19.090  0.00  0.00    +0.000 A 
ATOM     14  F   UNL     1       3.725   5.048  18.998  0.00  0.00    +0.000 F 
ATOM     15  C   UNL     1       2.284   6.461  20.212  0.00  0.00    +0.000 A 
ATOM     16  C   UNL     1       1.575   7.658  20.293  0.00  0.00    +0.000 A 
ATOM     17  F   UNL     1       0.794   7.828  21.369  0.00  0.00    +0.000 F 
ENDBRANCH   9  10
BRANCH   1  20
ATOM     18  C   UNL     1      -2.972  13.299  20.612  0.00  0.00    +0.000 C 
ATOM     19  O   UNL     1      -2.326  14.332  20.470  0.00  0.00    +0.000 OA
ATOM     20  N   UNL     1      -2.786  12.181  19.825  0.00  0.00    +0.000 N 
ATOM     21  H   UNL     1      -3.458  11.426  19.844  0.00  0.00    +0.000 HD
BRANCH  18  26
ATOM     22  C   UNL     1      -7.323  13.216  24.345  0.00  0.00    +0.000 C 
ATOM     23  C   UNL     1      -6.142  13.214  23.421  0.00  0.00    +0.000 A 
ATOM     24  C   UNL     1      -4.884  12.802  23.857  0.00  0.00    +0.000 A 
ATOM     25  C   UNL     1      -3.813  12.812  22.958  0.00  0.00    +0.000 A 
ATOM     26  C   UNL     1      -4.029  13.235  21.647  0.00  0.00    +0.000 A 
ATOM     27  C   UNL     1      -5.310  13.649  21.305  0.00  0.00    +0.000 A 
ATOM     28  N   UNL     1      -6.366  13.637  22.156  0.00  0.00    +0.000 NA
ENDBRANCH  18  26
ENDBRANCH   1  20
TORSDOF 3
ENDMDL
MODEL 8
REMARK VINA RESULT:      -7.1      3.336      4.903
REMARK  Name = 
REMARK  4 active torsions:
REMARK  status: ('A' for Active; 'I' for Inactive)
REMARK    1  A    between atoms: C_1  and  C_2
REMARK    2  A    between atoms: C_5  and  C_6
REMARK    3  A    between atoms: N_8  and  C_9
REMARK    4  A    between atoms: N_17  and  C_18
REMARK                            x       y       z     vdW  Elec       q    Type
REMARK                         _______ _______ _______ _____ _____    ______ ____
ROOT
ATOM      1  C   UNL     1       0.536  10.475  19.697  0.00  0.00    +0.000 C 
ATOM      2  C   UNL     1       0.100  10.303  21.166  0.00  0.00    +0.000 C 
ATOM      3  C   UNL     1       0.751   9.198  22.019  0.00  0.00    +0.000 C 
ATOM      4  C   UNL     1       1.476   8.026  21.341  0.00  0.00    +0.000 C 
ATOM      5  C   UNL     1       1.612   8.177  19.874  0.00  0.00    +0.000 A 
ATOM      6  C   UNL     1       1.197   9.271  19.145  0.00  0.00    +0.000 A 
ATOM      7  C   UNL     1       1.547   8.970  17.824  0.00  0.00    +0.000 A 
ATOM      8  N   UNL     1       2.220   7.827  17.728  0.00  0.00    +0.000 NA
ATOM      9  N   UNL     1       2.274   7.329  18.991  0.00  0.00    +0.000 N 
ENDROOT
BRANCH   9  10
ATOM     10  C   UNL     1       2.951   6.098  19.240  0.00  0.00    +0.000 A 
ATOM     11  C   UNL     1       4.308   5.924  18.933  0.00  0.00    +0.000 A 
ATOM     12  C   UNL     1       4.938   4.701  19.173  0.00  0.00    +0.000 A 
ATOM     13  C   UNL     1       4.220   3.657  19.727  0.00  0.00    +0.000 A 
ATOM     14  F   UNL     1       4.826   2.481  19.933  0.00  0.00    +0.000 F 
ATOM     15  C   UNL     1       2.883   3.808  20.057  0.00  0.00    +0.000 A 
ATOM     16  C   UNL     1       2.255   5.029  19.823  0.00  0.00    +0.000 A 
ATOM     17  F   UNL     1       0.945   5.100  20.099  0.00  0.00    +0.000 F 
ENDBRANCH   9  10
BRANCH   1  20
ATOM     18  C   UNL     1       1.026  12.752  18.913  0.00  0.00    +0.000 C 
ATOM     19  O   UNL     1      -0.092  12.875  18.423  0.00  0.00    +0.000 OA
ATOM     20  N   UNL     1       1.448  11.597  19.542  0.00  0.00    +0.000 N 
ATOM     21  H   UNL     1       2.295  11.598  20.095  0.00  0.00    +0.000 HD
BRANCH  18  26
ATOM     22  C   UNL     1       4.983  16.891  18.642  0.00  0.00    +0.000 C 
ATOM     23  C   UNL     1       3.901  15.857  18.738  0.00  0.00    +0.000 A 
ATOM     24  C   UNL     1       2.618  16.190  19.169  0.00  0.00    +0.000 A 
ATOM     25  C   UNL     1       1.640  15.193  19.237  0.00  0.00    +0.000 A 
ATOM     26  C   UNL     1       1.972  13.889  18.872  0.00  0.00    +0.000 A 
ATOM     27  C   UNL     1       3.280  13.642  18.475  0.00  0.00    +0.000 A 
ATOM     28  N   UNL     1       4.242  14.594  18.390  0.00  0.00    +0.000 NA
ENDBRANCH  18  26
ENDBRANCH   1  20
TORSDOF 3
ENDMDL
MODEL 9
REMARK VINA RESULT:      -7.1      2.960      4.689
REMARK  Name = 
REMARK  4 active torsions:
REMARK  status: ('A' for Active; 'I' for Inactive)
REMARK    1  A    between atoms: C_1  and  C_2
REMARK    2  A    between atoms: C_5  and  C_6
REMARK    3  A    between atoms: N_8  and  C_9
REMARK    4  A    between atoms: N_17  and  C_18
REMARK                            x       y       z     vdW  Elec       q    Type
REMARK                         _______ _______ _______ _____ _____    ______ ____
ROOT
ATOM      1  C   UNL     1      -1.531  12.259  19.082  0.00  0.00    +0.000 C 
ATOM      2  C   UNL     1      -2.092  11.856  17.703  0.00  0.00    +0.000 C 
ATOM      3  C   UNL     1      -1.873  10.419  17.193  0.00  0.00    +0.000 C 
ATOM      4  C   UNL     1      -0.772   9.541  17.807  0.00  0.00    +0.000 C 
ATOM      5  C   UNL     1      -0.115  10.148  18.987  0.00  0.00    +0.000 A 
ATOM      6  C   UNL     1      -0.458  11.355  19.555  0.00  0.00    +0.000 A 
ATOM      7  C   UNL     1       0.416  11.498  20.639  0.00  0.00    +0.000 A 
ATOM      8  N   UNL     1       1.185  10.426  20.812  0.00  0.00    +0.000 NA
ATOM      9  N   UNL     1       0.861   9.579  19.800  0.00  0.00    +0.000 N 
ENDROOT
BRANCH   9  10
ATOM     10  C   UNL     1       1.507   8.311  19.704  0.00  0.00    +0.000 A 
ATOM     11  C   UNL     1       1.352   7.324  20.688  0.00  0.00    +0.000 A 
ATOM     12  C   UNL     1       2.011   6.098  20.572  0.00  0.00    +0.000 A 
ATOM     13  C   UNL     1       2.815   5.853  19.475  0.00  0.00    +0.000 A 
ATOM     14  F   UNL     1       3.460   4.684  19.383  0.00  0.00    +0.000 F 
ATOM     15  C   UNL     1       2.971   6.803  18.478  0.00  0.00    +0.000 A 
ATOM     16  C   UNL     1       2.310   8.024  18.590  0.00  0.00    +0.000 A 
ATOM     17  F   UNL     1       2.547   8.932  17.633  0.00  0.00    +0.000 F 
ENDBRANCH   9  10
BRANCH   1  20
ATOM     18  C   UNL     1      -2.845  13.447  20.783  0.00  0.00    +0.000 C 
ATOM     19  O   UNL     1      -2.208  14.483  20.621  0.00  0.00    +0.000 OA
ATOM     20  N   UNL     1      -2.576  12.282  20.093  0.00  0.00    +0.000 N 
ATOM     21  H   UNL     1      -3.233  11.515  20.111  0.00  0.00    +0.000 HD
BRANCH  18  26
ATOM     22  C   UNL     1      -7.436  13.117  24.200  0.00  0.00    +0.000 C 
ATOM     23  C   UNL     1      -6.209  13.253  23.351  0.00  0.00    +0.000 A 
ATOM     24  C   UNL     1      -5.178  14.123  23.703  0.00  0.00    +0.000 A 
ATOM     25  C   UNL     1      -4.050  14.212  22.882  0.00  0.00    +0.000 A 
ATOM     26  C   UNL     1      -3.982  13.429  21.731  0.00  0.00    +0.000 A 
ATOM     27  C   UNL     1      -5.063  12.606  21.445  0.00  0.00    +0.000 A 
ATOM     28  N   UNL     1      -6.163  12.494  22.231  0.00  0.00    +0.000 NA
ENDBRANCH  18  26
ENDBRANCH   1  20
TORSDOF 3
ENDMDL
