MODEL 1
REMARK VINA RESULT:      -7.2      0.000      0.000
REMARK  Name = 
REMARK  4 active torsions:
REMARK  status: ('A' for Active; 'I' for Inactive)
REMARK    1  A    between atoms: C_5  and  N_6
REMARK    2  A    between atoms: N_6  and  C_7
REMARK    3  A    between atoms: C_7  and  C_8
REMARK    4  A    between atoms: C_16  and  N_17
REMARK                            x       y       z     vdW  Elec       q    Type
REMARK                         _______ _______ _______ _____ _____    ______ ____
ROOT
ATOM      1  N   UNL     1       6.002   3.668  16.546  0.00  0.00    +0.000 N 
ATOM      2  C   UNL     1       6.664   4.756  17.075  0.00  0.00    +0.000 A 
ATOM      3  N   UNL     1       6.702   5.867  16.345  0.00  0.00    +0.000 NA
ATOM      4  C   UNL     1       7.323   6.923  16.911  0.00  0.00    +0.000 A 
ATOM      5  C   UNL     1       7.946   6.927  18.153  0.00  0.00    +0.000 A 
ATOM      6  C   UNL     1       7.822   5.699  18.807  0.00  0.00    +0.000 A 
ATOM      7  N   UNL     1       7.223   4.616  18.276  0.00  0.00    +0.000 NA
ATOM      8  H   UNL     1       5.980   3.731  15.538  0.00  0.00    +0.000 HD
ATOM      9  H   UNL     1       6.348   2.814  16.957  0.00  0.00    +0.000 HD
ENDROOT
BRANCH   6  10
ATOM     10  N   UNL     1       8.284   5.493  20.113  0.00  0.00    +0.000 N 
ATOM     11  H   UNL     1       7.503   5.615  20.752  0.00  0.00    +0.000 HD
ATOM     12  H   UNL     1       8.618   4.531  20.141  0.00  0.00    +0.000 HD
ENDBRANCH   6  10
BRANCH   5  13
ATOM     13  N   UNL     1       8.458   8.129  18.667  0.00  0.00    +0.000 N 
ATOM     14  H   UNL     1       8.329   8.178  19.677  0.00  0.00    +0.000 HD
BRANCH  13  15
ATOM     15  C   UNL     1       8.088   9.401  18.051  0.00  0.00    +0.000 C 
BRANCH  15  16
ATOM     16  C   UNL     1       9.069  10.468  18.500  0.00  0.00    +0.000 A 
ATOM     17  C   UNL     1       9.447  10.557  19.850  0.00  0.00    +0.000 A 
ATOM     18  C   UNL     1      10.392  11.495  20.268  0.00  0.00    +0.000 A 
ATOM     19  C   UNL     1      10.976  12.364  19.343  0.00  0.00    +0.000 A 
ATOM     20 CL   UNL     1      12.156  13.484  19.924  0.00  0.00    +0.000 Cl
ATOM     21  C   UNL     1      10.604  12.293  17.996  0.00  0.00    +0.000 A 
ATOM     22 CL   UNL     1      11.286  13.330  16.795  0.00  0.00    +0.000 Cl
ATOM     23  C   UNL     1       9.653  11.351  17.579  0.00  0.00    +0.000 A 
ENDBRANCH  15  16
ENDBRANCH  13  15
ENDBRANCH   5  13
TORSDOF 4
ENDMDL
MODEL 2
REMARK VINA RESULT:      -7.2      5.461      8.123
REMARK  Name = 
REMARK  4 active torsions:
REMARK  status: ('A' for Active; 'I' for Inactive)
REMARK    1  A    between atoms: C_5  and  N_6
REMARK    2  A    between atoms: N_6  and  C_7
REMARK    3  A    between atoms: C_7  and  C_8
REMARK    4  A    between atoms: C_16  and  N_17
REMARK                            x       y       z     vdW  Elec       q    Type
REMARK                         _______ _______ _______ _____ _____    ______ ____
ROOT
ATOM      1  N   UNL     1       8.379   9.384  17.892  0.00  0.00    +0.000 N 
ATOM      2  C   UNL     1       7.949   8.074  17.902  0.00  0.00    +0.000 A 
ATOM      3  N   UNL     1       7.198   7.666  16.884  0.00  0.00    +0.000 NA
ATOM      4  C   UNL     1       6.829   6.368  16.906  0.00  0.00    +0.000 A 
ATOM      5  C   UNL     1       7.134   5.456  17.910  0.00  0.00    +0.000 A 
ATOM      6  C   UNL     1       7.930   6.021  18.909  0.00  0.00    +0.000 A 
ATOM      7  N   UNL     1       8.311   7.312  18.933  0.00  0.00    +0.000 NA
ATOM      8  H   UNL     1       7.755   9.950  17.335  0.00  0.00    +0.000 HD
ATOM      9  H   UNL     1       8.584   9.693  18.831  0.00  0.00    +0.000 HD
ENDROOT
BRANCH   6  10
ATOM     10  N   UNL     1       8.446   5.270  19.974  0.00  0.00    +0.000 N 
ATOM     11  H   UNL     1       9.377   4.951  19.719  0.00  0.00    +0.000 HD
ATOM     12  H   UNL     1       8.493   5.908  20.766  0.00  0.00    +0.000 HD
ENDBRANCH   6  10
BRANCH   5  13
ATOM     13  N   UNL     1       6.778   4.107  17.751  0.00  0.00    +0.000 N 
ATOM     14  H   UNL     1       7.567   3.559  17.411  0.00  0.00    +0.000 HD
BRANCH  13  15
ATOM     15  C   UNL     1       5.568   3.755  17.014  0.00  0.00    +0.000 C 
BRANCH  15  16
ATOM     16  C   UNL     1       4.365   3.951  17.920  0.00  0.00    +0.000 A 
ATOM     17  C   UNL     1       3.327   4.816  17.537  0.00  0.00    +0.000 A 
ATOM     18  C   UNL     1       2.188   4.963  18.331  0.00  0.00    +0.000 A 
ATOM     19  C   UNL     1       2.068   4.246  19.524  0.00  0.00    +0.000 A 
ATOM     20 CL   UNL     1       0.622   4.456  20.446  0.00  0.00    +0.000 Cl
ATOM     21  C   UNL     1       3.097   3.386  19.922  0.00  0.00    +0.000 A 
ATOM     22 CL   UNL     1       3.016   2.464  21.381  0.00  0.00    +0.000 Cl
ATOM     23  C   UNL     1       4.240   3.242  19.124  0.00  0.00    +0.000 A 
ENDBRANCH  15  16
ENDBRANCH  13  15
ENDBRANCH   5  13
TORSDOF 4
ENDMDL
MODEL 3
REMARK VINA RESULT:      -7.2      5.521      8.534
REMARK  Name = 
REMARK  4 active torsions:
REMARK  status: ('A' for Active; 'I' for Inactive)
REMARK    1  A    between atoms: C_5  and  N_6
REMARK    2  A    between atoms: N_6  and  C_7
REMARK    3  A    between atoms: C_7  and  C_8
REMARK    4  A    between atoms: C_16  and  N_17
REMARK                            x       y       z     vdW  Elec       q    Type
REMARK                         _______ _______ _______ _____ _____    ______ ____
ROOT
ATOM      1  N   UNL     1       8.519   7.964  18.783  0.00  0.00    +0.000 N 
ATOM      2  C   UNL     1       7.839   6.913  18.207  0.00  0.00    +0.000 A 
ATOM      3  N   UNL     1       7.898   5.734  18.818  0.00  0.00    +0.000 NA
ATOM      4  C   UNL     1       7.187   4.738  18.248  0.00  0.00    +0.000 A 
ATOM      5  C   UNL     1       6.448   4.838  17.075  0.00  0.00    +0.000 A 
ATOM      6  C   UNL     1       6.472   6.132  16.548  0.00  0.00    +0.000 A 
ATOM      7  N   UNL     1       7.176   7.151  17.075  0.00  0.00    +0.000 NA
ATOM      8  H   UNL     1       9.275   7.617  19.356  0.00  0.00    +0.000 HD
ATOM      9  H   UNL     1       8.738   8.663  18.088  0.00  0.00    +0.000 HD
ENDROOT
BRANCH   6  10
ATOM     10  N   UNL     1       5.721   6.499  15.424  0.00  0.00    +0.000 N 
ATOM     11  H   UNL     1       4.757   6.214  15.576  0.00  0.00    +0.000 HD
ATOM     12  H   UNL     1       5.786   7.514  15.366  0.00  0.00    +0.000 HD
ENDBRANCH   6  10
BRANCH   5  13
ATOM     13  N   UNL     1       5.667   3.751  16.653  0.00  0.00    +0.000 N 
ATOM     14  H   UNL     1       6.110   3.262  15.877  0.00  0.00    +0.000 HD
BRANCH  13  15
ATOM     15  C   UNL     1       4.244   3.939  16.382  0.00  0.00    +0.000 C 
BRANCH  15  16
ATOM     16  C   UNL     1       3.458   3.648  17.648  0.00  0.00    +0.000 A 
ATOM     17  C   UNL     1       3.248   2.321  18.058  0.00  0.00    +0.000 A 
ATOM     18  C   UNL     1       2.579   2.039  19.250  0.00  0.00    +0.000 A 
ATOM     19  C   UNL     1       2.106   3.079  20.054  0.00  0.00    +0.000 A 
ATOM     20 CL   UNL     1       1.308   2.660  21.527  0.00  0.00    +0.000 Cl
ATOM     21  C   UNL     1       2.303   4.406  19.654  0.00  0.00    +0.000 A 
ATOM     22 CL   UNL     1       1.752   5.744  20.599  0.00  0.00    +0.000 Cl
ATOM     23  C   UNL     1       2.973   4.687  18.456  0.00  0.00    +0.000 A 
ENDBRANCH  15  16
ENDBRANCH  13  15
ENDBRANCH   5  13
TORSDOF 4
ENDMDL
MODEL 4
REMARK VINA RESULT:      -7.0      7.255      8.453
REMARK  Name = 
REMARK  4 active torsions:
REMARK  status: ('A' for Active; 'I' for Inactive)
REMARK    1  A    between atoms: C_5  and  N_6
REMARK    2  A    between atoms: N_6  and  C_7
REMARK    3  A    between atoms: C_7  and  C_8
REMARK    4  A    between atoms: C_16  and  N_17
REMARK                            x       y       z     vdW  Elec       q    Type
REMARK                         _______ _______ _______ _____ _____    ______ ____
ROOT
ATOM      1  N   UNL     1       6.497   3.556  13.638  0.00  0.00    +0.000 N 
ATOM      2  C   UNL     1       6.061   4.321  14.697  0.00  0.00    +0.000 A 
ATOM      3  N   UNL     1       5.682   5.570  14.440  0.00  0.00    +0.000 NA
ATOM      4  C   UNL     1       5.223   6.276  15.494  0.00  0.00    +0.000 A 
ATOM      5  C   UNL     1       5.154   5.823  16.805  0.00  0.00    +0.000 A 
ATOM      6  C   UNL     1       5.578   4.497  16.926  0.00  0.00    +0.000 A 
ATOM      7  N   UNL     1       6.055   3.759  15.906  0.00  0.00    +0.000 NA
ATOM      8  H   UNL     1       6.839   4.151  12.897  0.00  0.00    +0.000 HD
ATOM      9  H   UNL     1       7.102   2.816  13.965  0.00  0.00    +0.000 HD
ENDROOT
BRANCH   6  10
ATOM     10  N   UNL     1       5.506   3.792  18.135  0.00  0.00    +0.000 N 
ATOM     11  H   UNL     1       6.265   4.106  18.734  0.00  0.00    +0.000 HD
ATOM     12  H   UNL     1       4.606   4.034  18.545  0.00  0.00    +0.000 HD
ENDBRANCH   6  10
BRANCH   5  13
ATOM     13  N   UNL     1       4.551   6.627  17.786  0.00  0.00    +0.000 N 
ATOM     14  H   UNL     1       4.960   6.453  18.703  0.00  0.00    +0.000 HD
BRANCH  13  15
ATOM     15  C   UNL     1       3.095   6.681  17.888  0.00  0.00    +0.000 C 
BRANCH  15  16
ATOM     16  C   UNL     1       2.628   5.596  18.841  0.00  0.00    +0.000 A 
ATOM     17  C   UNL     1       2.853   5.724  20.221  0.00  0.00    +0.000 A 
ATOM     18  C   UNL     1       2.378   4.764  21.116  0.00  0.00    +0.000 A 
ATOM     19  C   UNL     1       1.669   3.656  20.645  0.00  0.00    +0.000 A 
ATOM     20 CL   UNL     1       1.089   2.518  21.809  0.00  0.00    +0.000 Cl
ATOM     21  C   UNL     1       1.443   3.511  19.272  0.00  0.00    +0.000 A 
ATOM     22 CL   UNL     1       0.570   2.171  18.618  0.00  0.00    +0.000 Cl
ATOM     23  C   UNL     1       1.923   4.475  18.376  0.00  0.00    +0.000 A 
ENDBRANCH  15  16
ENDBRANCH  13  15
ENDBRANCH   5  13
TORSDOF 4
ENDMDL
MODEL 5
REMARK VINA RESULT:      -6.9      1.021      1.811
REMARK  Name = 
REMARK  4 active torsions:
REMARK  status: ('A' for Active; 'I' for Inactive)
REMARK    1  A    between atoms: C_5  and  N_6
REMARK    2  A    between atoms: N_6  and  C_7
REMARK    3  A    between atoms: C_7  and  C_8
REMARK    4  A    between atoms: C_16  and  N_17
REMARK                            x       y       z     vdW  Elec       q    Type
REMARK                         _______ _______ _______ _____ _____    ______ ____
ROOT
ATOM      1  N   UNL     1       5.177   3.711  17.488  0.00  0.00    +0.000 N 
ATOM      2  C   UNL     1       6.053   4.734  17.781  0.00  0.00    +0.000 A 
ATOM      3  N   UNL     1       6.010   5.819  17.012  0.00  0.00    +0.000 NA
ATOM      4  C   UNL     1       6.853   6.816  17.353  0.00  0.00    +0.000 A 
ATOM      5  C   UNL     1       7.770   6.782  18.397  0.00  0.00    +0.000 A 
ATOM      6  C   UNL     1       7.699   5.588  19.119  0.00  0.00    +0.000 A 
ATOM      7  N   UNL     1       6.884   4.563  18.808  0.00  0.00    +0.000 NA
ATOM      8  H   UNL     1       4.905   3.754  16.516  0.00  0.00    +0.000 HD
ATOM      9  H   UNL     1       5.532   2.834  17.839  0.00  0.00    +0.000 HD
ENDROOT
BRANCH   6  10
ATOM     10  N   UNL     1       8.458   5.363  20.275  0.00  0.00    +0.000 N 
ATOM     11  H   UNL     1       8.161   4.482  20.686  0.00  0.00    +0.000 HD
ATOM     12  H   UNL     1       9.426   5.301  19.964  0.00  0.00    +0.000 HD
ENDBRANCH   6  10
BRANCH   5  13
ATOM     13  N   UNL     1       8.509   7.934  18.708  0.00  0.00    +0.000 N 
ATOM     14  H   UNL     1       8.496   8.116  19.710  0.00  0.00    +0.000 HD
BRANCH  13  15
ATOM     15  C   UNL     1       8.273   9.172  17.969  0.00  0.00    +0.000 C 
BRANCH  15  16
ATOM     16  C   UNL     1       9.165  10.261  18.537  0.00  0.00    +0.000 A 
ATOM     17  C   UNL     1      10.092  10.917  17.710  0.00  0.00    +0.000 A 
ATOM     18  C   UNL     1      10.877  11.961  18.203  0.00  0.00    +0.000 A 
ATOM     19  C   UNL     1      10.751  12.367  19.534  0.00  0.00    +0.000 A 
ATOM     20 CL   UNL     1      11.737  13.680  20.071  0.00  0.00    +0.000 Cl
ATOM     21  C   UNL     1       9.837  11.718  20.371  0.00  0.00    +0.000 A 
ATOM     22 CL   UNL     1       9.622  12.168  22.026  0.00  0.00    +0.000 Cl
ATOM     23  C   UNL     1       9.051  10.669  19.875  0.00  0.00    +0.000 A 
ENDBRANCH  15  16
ENDBRANCH  13  15
ENDBRANCH   5  13
TORSDOF 4
ENDMDL
MODEL 6
REMARK VINA RESULT:      -6.9      5.624      8.513
REMARK  Name = 
REMARK  4 active torsions:
REMARK  status: ('A' for Active; 'I' for Inactive)
REMARK    1  A    between atoms: C_5  and  N_6
REMARK    2  A    between atoms: N_6  and  C_7
REMARK    3  A    between atoms: C_7  and  C_8
REMARK    4  A    between atoms: C_16  and  N_17
REMARK                            x       y       z     vdW  Elec       q    Type
REMARK                         _______ _______ _______ _____ _____    ______ ____
ROOT
ATOM      1  N   UNL     1       8.382   8.113  18.193  0.00  0.00    +0.000 N 
ATOM      2  C   UNL     1       7.615   7.028  17.829  0.00  0.00    +0.000 A 
ATOM      3  N   UNL     1       7.412   6.826  16.530  0.00  0.00    +0.000 NA
ATOM      4  C   UNL     1       6.690   5.731  16.209  0.00  0.00    +0.000 A 
ATOM      5  C   UNL     1       6.121   4.842  17.112  0.00  0.00    +0.000 A 
ATOM      6  C   UNL     1       6.420   5.174  18.436  0.00  0.00    +0.000 A 
ATOM      7  N   UNL     1       7.125   6.262  18.802  0.00  0.00    +0.000 NA
ATOM      8  H   UNL     1       8.356   8.816  17.468  0.00  0.00    +0.000 HD
ATOM      9  H   UNL     1       8.160   8.400  19.135  0.00  0.00    +0.000 HD
ENDROOT
BRANCH   6  10
ATOM     10  N   UNL     1       6.038   4.370  19.517  0.00  0.00    +0.000 N 
ATOM     11  H   UNL     1       5.027   4.417  19.609  0.00  0.00    +0.000 HD
ATOM     12  H   UNL     1       6.329   3.424  19.276  0.00  0.00    +0.000 HD
ENDBRANCH   6  10
BRANCH   5  13
ATOM     13  N   UNL     1       5.487   3.683  16.637  0.00  0.00    +0.000 N 
ATOM     14  H   UNL     1       5.996   3.285  15.849  0.00  0.00    +0.000 HD
BRANCH  13  15
ATOM     15  C   UNL     1       4.055   3.702  16.352  0.00  0.00    +0.000 C 
BRANCH  15  16
ATOM     16  C   UNL     1       3.293   3.462  17.642  0.00  0.00    +0.000 A 
ATOM     17  C   UNL     1       3.134   2.156  18.136  0.00  0.00    +0.000 A 
ATOM     18  C   UNL     1       2.487   1.924  19.351  0.00  0.00    +0.000 A 
ATOM     19  C   UNL     1       1.985   2.995  20.095  0.00  0.00    +0.000 A 
ATOM     20 CL   UNL     1       1.217   2.638  21.600  0.00  0.00    +0.000 Cl
ATOM     21  C   UNL     1       2.130   4.300  19.613  0.00  0.00    +0.000 A 
ATOM     22 CL   UNL     1       1.540   5.674  20.480  0.00  0.00    +0.000 Cl
ATOM     23  C   UNL     1       2.778   4.531  18.392  0.00  0.00    +0.000 A 
ENDBRANCH  15  16
ENDBRANCH  13  15
ENDBRANCH   5  13
TORSDOF 4
ENDMDL
MODEL 7
REMARK VINA RESULT:      -6.9      4.744      6.901
REMARK  Name = 
REMARK  4 active torsions:
REMARK  status: ('A' for Active; 'I' for Inactive)
REMARK    1  A    between atoms: C_5  and  N_6
REMARK    2  A    between atoms: N_6  and  C_7
REMARK    3  A    between atoms: C_7  and  C_8
REMARK    4  A    between atoms: C_16  and  N_17
REMARK                            x       y       z     vdW  Elec       q    Type
REMARK                         _______ _______ _______ _____ _____    ______ ____
ROOT
ATOM      1  N   UNL     1       1.312   2.626  22.436  0.00  0.00    +0.000 N 
ATOM      2  C   UNL     1       1.763   3.041  21.201  0.00  0.00    +0.000 A 
ATOM      3  N   UNL     1       1.669   2.181  20.192  0.00  0.00    +0.000 NA
ATOM      4  C   UNL     1       2.082   2.635  18.990  0.00  0.00    +0.000 A 
ATOM      5  C   UNL     1       2.622   3.891  18.740  0.00  0.00    +0.000 A 
ATOM      6  C   UNL     1       2.654   4.687  19.887  0.00  0.00    +0.000 A 
ATOM      7  N   UNL     1       2.265   4.272  21.107  0.00  0.00    +0.000 NA
ATOM      8  H   UNL     1       1.341   1.618  22.496  0.00  0.00    +0.000 HD
ATOM      9  H   UNL     1       1.763   3.154  23.169  0.00  0.00    +0.000 HD
ENDROOT
BRANCH   6  10
ATOM     10  N   UNL     1       3.065   6.026  19.861  0.00  0.00    +0.000 N 
ATOM     11  H   UNL     1       2.743   6.476  20.714  0.00  0.00    +0.000 HD
ATOM     12  H   UNL     1       4.083   6.004  19.835  0.00  0.00    +0.000 HD
ENDBRANCH   6  10
BRANCH   5  13
ATOM     13  N   UNL     1       2.908   4.271  17.419  0.00  0.00    +0.000 N 
ATOM     14  H   UNL     1       2.130   4.051  16.799  0.00  0.00    +0.000 HD
BRANCH  13  15
ATOM     15  C   UNL     1       4.170   3.869  16.803  0.00  0.00    +0.000 C 
BRANCH  15  16
ATOM     16  C   UNL     1       5.211   4.943  17.068  0.00  0.00    +0.000 A 
ATOM     17  C   UNL     1       5.179   6.149  16.350  0.00  0.00    +0.000 A 
ATOM     18  C   UNL     1       6.092   7.169  16.623  0.00  0.00    +0.000 A 
ATOM     19  C   UNL     1       7.056   7.000  17.620  0.00  0.00    +0.000 A 
ATOM     20 CL   UNL     1       8.140   8.311  17.922  0.00  0.00    +0.000 Cl
ATOM     21  C   UNL     1       7.104   5.800  18.339  0.00  0.00    +0.000 A 
ATOM     22 CL   UNL     1       8.264   5.521  19.589  0.00  0.00    +0.000 Cl
ATOM     23  C   UNL     1       6.188   4.777  18.062  0.00  0.00    +0.000 A 
ENDBRANCH  15  16
ENDBRANCH  13  15
ENDBRANCH   5  13
TORSDOF 4
ENDMDL
MODEL 8
REMARK VINA RESULT:      -6.8      5.178      7.746
REMARK  Name = 
REMARK  4 active torsions:
REMARK  status: ('A' for Active; 'I' for Inactive)
REMARK    1  A    between atoms: C_5  and  N_6
REMARK    2  A    between atoms: N_6  and  C_7
REMARK    3  A    between atoms: C_7  and  C_8
REMARK    4  A    between atoms: C_16  and  N_17
REMARK                            x       y       z     vdW  Elec       q    Type
REMARK                         _______ _______ _______ _____ _____    ______ ____
ROOT
ATOM      1  N   UNL     1       8.457   8.319  18.288  0.00  0.00    +0.000 N 
ATOM      2  C   UNL     1       7.826   7.136  17.968  0.00  0.00    +0.000 A 
ATOM      3  N   UNL     1       7.612   6.268  18.953  0.00  0.00    +0.000 NA
ATOM      4  C   UNL     1       6.956   5.139  18.611  0.00  0.00    +0.000 A 
ATOM      5  C   UNL     1       6.532   4.803  17.331  0.00  0.00    +0.000 A 
ATOM      6  C   UNL     1       6.818   5.807  16.403  0.00  0.00    +0.000 A 
ATOM      7  N   UNL     1       7.480   6.942  16.696  0.00  0.00    +0.000 NA
ATOM      8  H   UNL     1       9.013   8.201  19.122  0.00  0.00    +0.000 HD
ATOM      9  H   UNL     1       8.908   8.707  17.472  0.00  0.00    +0.000 HD
ENDROOT
BRANCH   6  10
ATOM     10  N   UNL     1       6.399   5.738  15.067  0.00  0.00    +0.000 N 
ATOM     11  H   UNL     1       5.389   5.847  15.043  0.00  0.00    +0.000 HD
ATOM     12  H   UNL     1       6.852   6.518  14.594  0.00  0.00    +0.000 HD
ENDBRANCH   6  10
BRANCH   5  13
ATOM     13  N   UNL     1       5.762   3.645  17.137  0.00  0.00    +0.000 N 
ATOM     14  H   UNL     1       6.219   3.008  16.487  0.00  0.00    +0.000 HD
BRANCH  13  15
ATOM     15  C   UNL     1       4.343   3.761  16.812  0.00  0.00    +0.000 C 
BRANCH  15  16
ATOM     16  C   UNL     1       3.659   4.588  17.886  0.00  0.00    +0.000 A 
ATOM     17  C   UNL     1       3.337   5.934  17.642  0.00  0.00    +0.000 A 
ATOM     18  C   UNL     1       2.656   6.691  18.597  0.00  0.00    +0.000 A 
ATOM     19  C   UNL     1       2.284   6.115  19.814  0.00  0.00    +0.000 A 
ATOM     20 CL   UNL     1       1.422   7.102  20.941  0.00  0.00    +0.000 Cl
ATOM     21  C   UNL     1       2.604   4.778  20.074  0.00  0.00    +0.000 A 
ATOM     22 CL   UNL     1       2.172   3.997  21.554  0.00  0.00    +0.000 Cl
ATOM     23  C   UNL     1       3.289   4.021  19.115  0.00  0.00    +0.000 A 
ENDBRANCH  15  16
ENDBRANCH  13  15
ENDBRANCH   5  13
TORSDOF 4
ENDMDL
MODEL 9
REMARK VINA RESULT:      -6.8      6.460      8.074
REMARK  Name = 
REMARK  4 active torsions:
REMARK  status: ('A' for Active; 'I' for Inactive)
REMARK    1  A    between atoms: C_5  and  N_6
REMARK    2  A    between atoms: N_6  and  C_7
REMARK    3  A    between atoms: C_7  and  C_8
REMARK    4  A    between atoms: C_16  and  N_17
REMARK                            x       y       z     vdW  Elec       q    Type
REMARK                         _______ _______ _______ _____ _____    ______ ____
ROOT
ATOM      1  N   UNL     1       8.197   5.573  12.680  0.00  0.00    +0.000 N 
ATOM      2  C   UNL     1       7.475   5.072  13.742  0.00  0.00    +0.000 A 
ATOM      3  N   UNL     1       6.572   4.132  13.482  0.00  0.00    +0.000 NA
ATOM      4  C   UNL     1       5.912   3.636  14.550  0.00  0.00    +0.000 A 
ATOM      5  C   UNL     1       6.073   4.052  15.866  0.00  0.00    +0.000 A 
ATOM      6  C   UNL     1       7.055   5.037  15.990  0.00  0.00    +0.000 A 
ATOM      7  N   UNL     1       7.728   5.569  14.952  0.00  0.00    +0.000 NA
ATOM      8  H   UNL     1       7.681   5.451  11.820  0.00  0.00    +0.000 HD
ATOM      9  H   UNL     1       8.542   6.498  12.896  0.00  0.00    +0.000 HD
ENDROOT
BRANCH   6  10
ATOM     10  N   UNL     1       7.462   5.541  17.232  0.00  0.00    +0.000 N 
ATOM     11  H   UNL     1       6.679   5.473  17.877  0.00  0.00    +0.000 HD
ATOM     12  H   UNL     1       8.226   4.942  17.538  0.00  0.00    +0.000 HD
ENDBRANCH   6  10
BRANCH   5  13
ATOM     13  N   UNL     1       5.400   3.372  16.894  0.00  0.00    +0.000 N 
ATOM     14  H   UNL     1       5.817   2.457  17.061  0.00  0.00    +0.000 HD
BRANCH  13  15
ATOM     15  C   UNL     1       3.944   3.262  16.863  0.00  0.00    +0.000 C 
BRANCH  15  16
ATOM     16  C   UNL     1       3.362   4.123  17.969  0.00  0.00    +0.000 A 
ATOM     17  C   UNL     1       3.297   5.518  17.819  0.00  0.00    +0.000 A 
ATOM     18  C   UNL     1       2.711   6.317  18.802  0.00  0.00    +0.000 A 
ATOM     19  C   UNL     1       2.180   5.735  19.955  0.00  0.00    +0.000 A 
ATOM     20 CL   UNL     1       1.449   6.781  21.120  0.00  0.00    +0.000 Cl
ATOM     21  C   UNL     1       2.244   4.348  20.123  0.00  0.00    +0.000 A 
ATOM     22 CL   UNL     1       1.604   3.557  21.520  0.00  0.00    +0.000 Cl
ATOM     23  C   UNL     1       2.834   3.547  19.136  0.00  0.00    +0.000 A 
ENDBRANCH  15  16
ENDBRANCH  13  15
ENDBRANCH   5  13
TORSDOF 4
ENDMDL
