MODEL 1
REMARK VINA RESULT:      -7.5      0.000      0.000
REMARK  Name = 
REMARK  9 active torsions:
REMARK  status: ('A' for Active; 'I' for Inactive)
REMARK    1  A    between atoms: C_1  and  C_2
REMARK    2  A    between atoms: C_2  and  C_3
REMARK    3  A    between atoms: C_3  and  N_4
REMARK    4  A    between atoms: C_6  and  C_7
REMARK    5  A    between atoms: C_7  and  N_8
REMARK    6  A    between atoms: C_11  and  N_12
REMARK    7  A    between atoms: C_16  and  N_17
REMARK    8  A    between atoms: C_18  and  C_20
REMARK    9  A    between atoms: C_28  and  C_29
REMARK                            x       y       z     vdW  Elec       q    Type
REMARK                         _______ _______ _______ _____ _____    ______ ____
ROOT
ATOM      1  N   UNL     1       1.554   8.357  18.672  0.00  0.00    +0.000 NA
ATOM      2  C   UNL     1       1.567   8.610  20.121  0.00  0.00    +0.000 C 
ATOM      3  C   UNL     1       0.210   9.111  20.621  0.00  0.00    +0.000 C 
ATOM      4  C   UNL     1      -0.307  10.328  19.849  0.00  0.00    +0.000 C 
ATOM      5  C   UNL     1      -0.200  10.091  18.339  0.00  0.00    +0.000 C 
ATOM      6  C   UNL     1       1.168   9.557  17.915  0.00  0.00    +0.000 C 
ENDROOT
BRANCH   4   7
ATOM      7  N   UNL     1       0.307  11.587  20.274  0.00  0.00    +0.000 N 
ATOM      8  N   UNL     1       1.487  11.958  19.737  0.00  0.00    +0.000 NA
ATOM      9  C   UNL     1       1.758  13.130  20.305  0.00  0.00    +0.000 A 
ATOM     10  C   UNL     1       0.759  13.523  21.206  0.00  0.00    +0.000 A 
ATOM     11  C   UNL     1      -0.173  12.510  21.189  0.00  0.00    +0.000 A 
BRANCH  11  12
ATOM     12  N   UNL     1      -1.350  12.429  21.929  0.00  0.00    +0.000 N 
ATOM     13  C   UNL     1      -2.594  13.038  21.533  0.00  0.00    +0.000 C 
ATOM     14  O   UNL     1      -2.729  13.631  20.474  0.00  0.00    +0.000 OA
ATOM     15  H   UNL     1      -1.347  11.875  22.775  0.00  0.00    +0.000 HD
BRANCH  13  16
ATOM     16  C   UNL     1      -3.718  12.824  22.465  0.00  0.00    +0.000 A 
ATOM     17  C   UNL     1      -5.042  12.969  22.033  0.00  0.00    +0.000 A 
ATOM     18  C   UNL     1      -6.079  12.873  22.960  0.00  0.00    +0.000 A 
ATOM     19  C   UNL     1      -5.794  12.625  24.303  0.00  0.00    +0.000 A 
ATOM     20  C   UNL     1      -4.475  12.432  24.721  0.00  0.00    +0.000 A 
ATOM     21  C   UNL     1      -3.434  12.520  23.800  0.00  0.00    +0.000 A 
ENDBRANCH  13  16
ENDBRANCH  11  12
ENDBRANCH   4   7
BRANCH   1  22
ATOM     22  C   UNL     1       2.893   7.923  18.206  0.00  0.00    +0.000 C 
BRANCH  22  25
ATOM     23  N   UNL     1       2.660   4.276  18.335  0.00  0.00    +0.000 N 
ATOM     24  C   UNL     1       2.163   5.498  18.678  0.00  0.00    +0.000 A 
ATOM     25  C   UNL     1       2.981   6.438  18.080  0.00  0.00    +0.000 A 
ATOM     26  C   UNL     1       3.937   5.660  17.368  0.00  0.00    +0.000 A 
ATOM     27  C   UNL     1       5.069   6.136  16.532  0.00  0.00    +0.000 C 
ATOM     28  N   UNL     1       3.726   4.345  17.519  0.00  0.00    +0.000 NA
BRANCH  23  29
ATOM     29  C   UNL     1       2.202   2.992  18.832  0.00  0.00    +0.000 C 
BRANCH  29  31
ATOM     30  C   UNL     1       1.368   2.937  21.202  0.00  0.00    +0.000 C 
ATOM     31  C   UNL     1       0.982   3.109  19.740  0.00  0.00    +0.000 C 
ENDBRANCH  29  31
ENDBRANCH  23  29
ENDBRANCH  22  25
ENDBRANCH   1  22
TORSDOF 7
ENDMDL
MODEL 2
REMARK VINA RESULT:      -7.4      4.549      7.783
REMARK  Name = 
REMARK  9 active torsions:
REMARK  status: ('A' for Active; 'I' for Inactive)
REMARK    1  A    between atoms: C_1  and  C_2
REMARK    2  A    between atoms: C_2  and  C_3
REMARK    3  A    between atoms: C_3  and  N_4
REMARK    4  A    between atoms: C_6  and  C_7
REMARK    5  A    between atoms: C_7  and  N_8
REMARK    6  A    between atoms: C_11  and  N_12
REMARK    7  A    between atoms: C_16  and  N_17
REMARK    8  A    between atoms: C_18  and  C_20
REMARK    9  A    between atoms: C_28  and  C_29
REMARK                            x       y       z     vdW  Elec       q    Type
REMARK                         _______ _______ _______ _____ _____    ______ ____
ROOT
ATOM      1  N   UNL     1       4.120   3.375  16.988  0.00  0.00    +0.000 NA
ATOM      2  C   UNL     1       3.778   2.128  17.690  0.00  0.00    +0.000 C 
ATOM      3  C   UNL     1       2.265   1.913  17.760  0.00  0.00    +0.000 C 
ATOM      4  C   UNL     1       1.511   3.109  18.351  0.00  0.00    +0.000 C 
ATOM      5  C   UNL     1       1.969   4.413  17.690  0.00  0.00    +0.000 C 
ATOM      6  C   UNL     1       3.490   4.544  17.620  0.00  0.00    +0.000 C 
ENDROOT
BRANCH   4   7
ATOM      7  N   UNL     1       1.566   3.161  19.813  0.00  0.00    +0.000 N 
ATOM      8  N   UNL     1       1.749   2.019  20.507  0.00  0.00    +0.000 NA
ATOM      9  C   UNL     1       1.770   2.404  21.780  0.00  0.00    +0.000 A 
ATOM     10  C   UNL     1       1.605   3.789  21.917  0.00  0.00    +0.000 A 
ATOM     11  C   UNL     1       1.460   4.272  20.635  0.00  0.00    +0.000 A 
BRANCH  11  12
ATOM     12  N   UNL     1       1.255   5.593  20.247  0.00  0.00    +0.000 N 
ATOM     13  C   UNL     1       2.315   6.549  20.054  0.00  0.00    +0.000 C 
ATOM     14  O   UNL     1       3.496   6.254  20.161  0.00  0.00    +0.000 OA
ATOM     15  H   UNL     1       0.311   5.892  20.045  0.00  0.00    +0.000 HD
BRANCH  13  16
ATOM     16  C   UNL     1       1.874   7.894  19.637  0.00  0.00    +0.000 A 
ATOM     17  C   UNL     1       1.135   8.705  20.506  0.00  0.00    +0.000 A 
ATOM     18  C   UNL     1       0.635   9.923  20.048  0.00  0.00    +0.000 A 
ATOM     19  C   UNL     1       0.880  10.328  18.735  0.00  0.00    +0.000 A 
ATOM     20  C   UNL     1       1.659   9.539  17.886  0.00  0.00    +0.000 A 
ATOM     21  C   UNL     1       2.168   8.324  18.339  0.00  0.00    +0.000 A 
ENDBRANCH  13  16
ENDBRANCH  11  12
ENDBRANCH   4   7
BRANCH   1  22
ATOM     22  C   UNL     1       5.587   3.584  16.979  0.00  0.00    +0.000 C 
BRANCH  22  25
ATOM     23  N   UNL     1       6.559   4.185  13.506  0.00  0.00    +0.000 N 
ATOM     24  C   UNL     1       5.884   3.438  14.424  0.00  0.00    +0.000 A 
ATOM     25  C   UNL     1       6.072   4.054  15.647  0.00  0.00    +0.000 A 
ATOM     26  C   UNL     1       6.864   5.195  15.341  0.00  0.00    +0.000 A 
ATOM     27  C   UNL     1       7.375   6.235  16.270  0.00  0.00    +0.000 C 
ATOM     28  N   UNL     1       7.145   5.274  14.032  0.00  0.00    +0.000 NA
BRANCH  23  29
ATOM     29  C   UNL     1       6.751   3.857  12.105  0.00  0.00    +0.000 C 
BRANCH  29  31
ATOM     30  C   UNL     1       4.437   3.221  11.359  0.00  0.00    +0.000 C 
ATOM     31  C   UNL     1       5.848   2.721  11.633  0.00  0.00    +0.000 C 
ENDBRANCH  29  31
ENDBRANCH  23  29
ENDBRANCH  22  25
ENDBRANCH   1  22
TORSDOF 7
ENDMDL
MODEL 3
REMARK VINA RESULT:      -7.3      0.869      1.215
REMARK  Name = 
REMARK  9 active torsions:
REMARK  status: ('A' for Active; 'I' for Inactive)
REMARK    1  A    between atoms: C_1  and  C_2
REMARK    2  A    between atoms: C_2  and  C_3
REMARK    3  A    between atoms: C_3  and  N_4
REMARK    4  A    between atoms: C_6  and  C_7
REMARK    5  A    between atoms: C_7  and  N_8
REMARK    6  A    between atoms: C_11  and  N_12
REMARK    7  A    between atoms: C_16  and  N_17
REMARK    8  A    between atoms: C_18  and  C_20
REMARK    9  A    between atoms: C_28  and  C_29
REMARK                            x       y       z     vdW  Elec       q    Type
REMARK                         _______ _______ _______ _____ _____    ______ ____
ROOT
ATOM      1  N   UNL     1       1.527   8.368  18.786  0.00  0.00    +0.000 NA
ATOM      2  C   UNL     1       1.508   8.726  20.213  0.00  0.00    +0.000 C 
ATOM      3  C   UNL     1       0.150   9.290  20.638  0.00  0.00    +0.000 C 
ATOM      4  C   UNL     1      -0.319  10.458  19.765  0.00  0.00    +0.000 C 
ATOM      5  C   UNL     1      -0.178  10.109  18.280  0.00  0.00    +0.000 C 
ATOM      6  C   UNL     1       1.187   9.517  17.934  0.00  0.00    +0.000 C 
ENDROOT
BRANCH   4   7
ATOM      7  N   UNL     1       0.312  11.731  20.114  0.00  0.00    +0.000 N 
ATOM      8  N   UNL     1       1.588  11.958  19.740  0.00  0.00    +0.000 NA
ATOM      9  C   UNL     1       1.851  13.185  20.183  0.00  0.00    +0.000 A 
ATOM     10  C   UNL     1       0.753  13.756  20.840  0.00  0.00    +0.000 A 
ATOM     11  C   UNL     1      -0.238  12.801  20.802  0.00  0.00    +0.000 A 
BRANCH  11  12
ATOM     12  N   UNL     1      -1.521  12.889  21.337  0.00  0.00    +0.000 N 
ATOM     13  C   UNL     1      -1.910  12.305  22.596  0.00  0.00    +0.000 C 
ATOM     14  O   UNL     1      -1.119  11.730  23.327  0.00  0.00    +0.000 OA
ATOM     15  H   UNL     1      -2.212  13.430  20.837  0.00  0.00    +0.000 HD
BRANCH  13  16
ATOM     16  C   UNL     1      -3.319  12.523  22.975  0.00  0.00    +0.000 A 
ATOM     17  C   UNL     1      -3.733  12.374  24.305  0.00  0.00    +0.000 A 
ATOM     18  C   UNL     1      -5.087  12.475  24.616  0.00  0.00    +0.000 A 
ATOM     19  C   UNL     1      -6.018  12.729  23.608  0.00  0.00    +0.000 A 
ATOM     20  C   UNL     1      -5.597  12.925  22.291  0.00  0.00    +0.000 A 
ATOM     21  C   UNL     1      -4.243  12.833  21.972  0.00  0.00    +0.000 A 
ENDBRANCH  13  16
ENDBRANCH  11  12
ENDBRANCH   4   7
BRANCH   1  22
ATOM     22  C   UNL     1       2.867   7.873  18.390  0.00  0.00    +0.000 C 
BRANCH  22  25
ATOM     23  N   UNL     1       2.465   4.239  18.403  0.00  0.00    +0.000 N 
ATOM     24  C   UNL     1       2.039   5.470  18.804  0.00  0.00    +0.000 A 
ATOM     25  C   UNL     1       2.880   6.391  18.211  0.00  0.00    +0.000 A 
ATOM     26  C   UNL     1       3.773   5.596  17.439  0.00  0.00    +0.000 A 
ATOM     27  C   UNL     1       4.898   6.048  16.581  0.00  0.00    +0.000 C 
ATOM     28  N   UNL     1       3.505   4.287  17.553  0.00  0.00    +0.000 NA
BRANCH  23  29
ATOM     29  C   UNL     1       1.964   2.961  18.872  0.00  0.00    +0.000 C 
BRANCH  29  31
ATOM     30  C   UNL     1       1.276   2.863  21.287  0.00  0.00    +0.000 C 
ATOM     31  C   UNL     1       2.408   2.637  20.296  0.00  0.00    +0.000 C 
ENDBRANCH  29  31
ENDBRANCH  23  29
ENDBRANCH  22  25
ENDBRANCH   1  22
TORSDOF 7
ENDMDL
MODEL 4
REMARK VINA RESULT:      -7.3      3.941     10.944
REMARK  Name = 
REMARK  9 active torsions:
REMARK  status: ('A' for Active; 'I' for Inactive)
REMARK    1  A    between atoms: C_1  and  C_2
REMARK    2  A    between atoms: C_2  and  C_3
REMARK    3  A    between atoms: C_3  and  N_4
REMARK    4  A    between atoms: C_6  and  C_7
REMARK    5  A    between atoms: C_7  and  N_8
REMARK    6  A    between atoms: C_11  and  N_12
REMARK    7  A    between atoms: C_16  and  N_17
REMARK    8  A    between atoms: C_18  and  C_20
REMARK    9  A    between atoms: C_28  and  C_29
REMARK                            x       y       z     vdW  Elec       q    Type
REMARK                         _______ _______ _______ _____ _____    ______ ____
ROOT
ATOM      1  N   UNL     1       1.853   7.514  19.405  0.00  0.00    +0.000 NA
ATOM      2  C   UNL     1       2.904   7.955  18.474  0.00  0.00    +0.000 C 
ATOM      3  C   UNL     1       3.130   6.941  17.351  0.00  0.00    +0.000 C 
ATOM      4  C   UNL     1       3.401   5.523  17.863  0.00  0.00    +0.000 C 
ATOM      5  C   UNL     1       2.365   5.126  18.920  0.00  0.00    +0.000 C 
ATOM      6  C   UNL     1       2.163   6.200  19.989  0.00  0.00    +0.000 C 
ENDROOT
BRANCH   4   7
ATOM      7  N   UNL     1       4.780   5.324  18.312  0.00  0.00    +0.000 N 
ATOM      8  N   UNL     1       5.099   5.588  19.596  0.00  0.00    +0.000 NA
ATOM      9  C   UNL     1       6.393   5.293  19.684  0.00  0.00    +0.000 A 
ATOM     10  C   UNL     1       6.915   4.836  18.467  0.00  0.00    +0.000 A 
ATOM     11  C   UNL     1       5.864   4.871  17.578  0.00  0.00    +0.000 A 
BRANCH  11  12
ATOM     12  N   UNL     1       5.883   4.524  16.230  0.00  0.00    +0.000 N 
ATOM     13  C   UNL     1       6.775   5.109  15.260  0.00  0.00    +0.000 C 
ATOM     14  O   UNL     1       7.633   5.923  15.562  0.00  0.00    +0.000 OA
ATOM     15  H   UNL     1       5.266   3.787  15.915  0.00  0.00    +0.000 HD
BRANCH  13  16
ATOM     16  C   UNL     1       6.628   4.592  13.886  0.00  0.00    +0.000 A 
ATOM     17  C   UNL     1       5.573   3.733  13.554  0.00  0.00    +0.000 A 
ATOM     18  C   UNL     1       5.524   3.170  12.280  0.00  0.00    +0.000 A 
ATOM     19  C   UNL     1       6.515   3.470  11.345  0.00  0.00    +0.000 A 
ATOM     20  C   UNL     1       7.538   4.365  11.664  0.00  0.00    +0.000 A 
ATOM     21  C   UNL     1       7.591   4.938  12.933  0.00  0.00    +0.000 A 
ENDBRANCH  13  16
ENDBRANCH  11  12
ENDBRANCH   4   7
BRANCH   1  22
ATOM     22  C   UNL     1       1.690   8.488  20.509  0.00  0.00    +0.000 C 
BRANCH  22  25
ATOM     23  N   UNL     1      -0.785  10.849  19.218  0.00  0.00    +0.000 N 
ATOM     24  C   UNL     1       0.173   9.907  18.987  0.00  0.00    +0.000 A 
ATOM     25  C   UNL     1       0.603   9.471  20.225  0.00  0.00    +0.000 A 
ATOM     26  C   UNL     1      -0.194  10.207  21.146  0.00  0.00    +0.000 A 
ATOM     27  C   UNL     1      -0.173  10.149  22.630  0.00  0.00    +0.000 C 
ATOM     28  N   UNL     1      -1.045  11.035  20.523  0.00  0.00    +0.000 NA
BRANCH  23  29
ATOM     29  C   UNL     1      -1.435  11.677  18.218  0.00  0.00    +0.000 C 
BRANCH  29  31
ATOM     30  C   UNL     1      -2.433  10.233  16.420  0.00  0.00    +0.000 C 
ATOM     31  C   UNL     1      -2.715  11.051  17.672  0.00  0.00    +0.000 C 
ENDBRANCH  29  31
ENDBRANCH  23  29
ENDBRANCH  22  25
ENDBRANCH   1  22
TORSDOF 7
ENDMDL
MODEL 5
REMARK VINA RESULT:      -7.2      0.533      1.109
REMARK  Name = 
REMARK  9 active torsions:
REMARK  status: ('A' for Active; 'I' for Inactive)
REMARK    1  A    between atoms: C_1  and  C_2
REMARK    2  A    between atoms: C_2  and  C_3
REMARK    3  A    between atoms: C_3  and  N_4
REMARK    4  A    between atoms: C_6  and  C_7
REMARK    5  A    between atoms: C_7  and  N_8
REMARK    6  A    between atoms: C_11  and  N_12
REMARK    7  A    between atoms: C_16  and  N_17
REMARK    8  A    between atoms: C_18  and  C_20
REMARK    9  A    between atoms: C_28  and  C_29
REMARK                            x       y       z     vdW  Elec       q    Type
REMARK                         _______ _______ _______ _____ _____    ______ ____
ROOT
ATOM      1  N   UNL     1       1.354   8.589  18.815  0.00  0.00    +0.000 NA
ATOM      2  C   UNL     1       1.571   8.813  20.253  0.00  0.00    +0.000 C 
ATOM      3  C   UNL     1       0.283   9.237  20.962  0.00  0.00    +0.000 C 
ATOM      4  C   UNL     1      -0.398  10.444  20.308  0.00  0.00    +0.000 C 
ATOM      5  C   UNL     1      -0.507  10.242  18.793  0.00  0.00    +0.000 C 
ATOM      6  C   UNL     1       0.805   9.784  18.157  0.00  0.00    +0.000 C 
ENDROOT
BRANCH   4   7
ATOM      7  N   UNL     1       0.216  11.722  20.671  0.00  0.00    +0.000 N 
ATOM      8  N   UNL     1       1.413  12.051  20.143  0.00  0.00    +0.000 NA
ATOM      9  C   UNL     1       1.678  13.254  20.646  0.00  0.00    +0.000 A 
ATOM     10  C   UNL     1       0.660  13.708  21.495  0.00  0.00    +0.000 A 
ATOM     11  C   UNL     1      -0.280  12.702  21.515  0.00  0.00    +0.000 A 
BRANCH  11  12
ATOM     12  N   UNL     1      -1.476  12.674  22.229  0.00  0.00    +0.000 N 
ATOM     13  C   UNL     1      -2.760  12.998  21.661  0.00  0.00    +0.000 C 
ATOM     14  O   UNL     1      -2.908  13.269  20.479  0.00  0.00    +0.000 OA
ATOM     15  H   UNL     1      -1.452  12.368  23.192  0.00  0.00    +0.000 HD
BRANCH  13  16
ATOM     16  C   UNL     1      -3.898  12.901  22.594  0.00  0.00    +0.000 A 
ATOM     17  C   UNL     1      -3.695  12.548  23.934  0.00  0.00    +0.000 A 
ATOM     18  C   UNL     1      -4.796  12.353  24.765  0.00  0.00    +0.000 A 
ATOM     19  C   UNL     1      -6.088  12.517  24.263  0.00  0.00    +0.000 A 
ATOM     20  C   UNL     1      -6.285  12.916  22.940  0.00  0.00    +0.000 A 
ATOM     21  C   UNL     1      -5.189  13.120  22.104  0.00  0.00    +0.000 A 
ENDBRANCH  13  16
ENDBRANCH  11  12
ENDBRANCH   4   7
BRANCH   1  22
ATOM     22  C   UNL     1       2.625   8.229  18.144  0.00  0.00    +0.000 C 
BRANCH  22  25
ATOM     23  N   UNL     1       3.027   4.706  19.034  0.00  0.00    +0.000 N 
ATOM     24  C   UNL     1       2.372   5.891  19.193  0.00  0.00    +0.000 A 
ATOM     25  C   UNL     1       2.948   6.781  18.307  0.00  0.00    +0.000 A 
ATOM     26  C   UNL     1       3.937   6.009  17.635  0.00  0.00    +0.000 A 
ATOM     27  C   UNL     1       4.872   6.443  16.567  0.00  0.00    +0.000 C 
ATOM     28  N   UNL     1       3.969   4.743  18.076  0.00  0.00    +0.000 NA
BRANCH  23  29
ATOM     29  C   UNL     1       2.850   3.512  19.839  0.00  0.00    +0.000 C 
BRANCH  29  31
ATOM     30  C   UNL     1       0.815   2.458  18.809  0.00  0.00    +0.000 C 
ATOM     31  C   UNL     1       1.383   3.145  20.042  0.00  0.00    +0.000 C 
ENDBRANCH  29  31
ENDBRANCH  23  29
ENDBRANCH  22  25
ENDBRANCH   1  22
TORSDOF 7
ENDMDL
MODEL 6
REMARK VINA RESULT:      -7.2      3.695     10.559
REMARK  Name = 
REMARK  9 active torsions:
REMARK  status: ('A' for Active; 'I' for Inactive)
REMARK    1  A    between atoms: C_1  and  C_2
REMARK    2  A    between atoms: C_2  and  C_3
REMARK    3  A    between atoms: C_3  and  N_4
REMARK    4  A    between atoms: C_6  and  C_7
REMARK    5  A    between atoms: C_7  and  N_8
REMARK    6  A    between atoms: C_11  and  N_12
REMARK    7  A    between atoms: C_16  and  N_17
REMARK    8  A    between atoms: C_18  and  C_20
REMARK    9  A    between atoms: C_28  and  C_29
REMARK                            x       y       z     vdW  Elec       q    Type
REMARK                         _______ _______ _______ _____ _____    ______ ____
ROOT
ATOM      1  N   UNL     1       1.589   6.664  19.928  0.00  0.00    +0.000 NA
ATOM      2  C   UNL     1       2.731   6.284  19.083  0.00  0.00    +0.000 C 
ATOM      3  C   UNL     1       2.416   5.060  18.220  0.00  0.00    +0.000 C 
ATOM      4  C   UNL     1       1.902   3.865  19.031  0.00  0.00    +0.000 C 
ATOM      5  C   UNL     1       0.794   4.306  19.993  0.00  0.00    +0.000 C 
ATOM      6  C   UNL     1       1.161   5.555  20.794  0.00  0.00    +0.000 C 
ENDROOT
BRANCH   4   7
ATOM      7  N   UNL     1       2.969   3.115  19.695  0.00  0.00    +0.000 N 
ATOM      8  N   UNL     1       2.779   2.677  20.956  0.00  0.00    +0.000 NA
ATOM      9  C   UNL     1       3.902   2.030  21.256  0.00  0.00    +0.000 A 
ATOM     10  C   UNL     1       4.819   2.044  20.197  0.00  0.00    +0.000 A 
ATOM     11  C   UNL     1       4.210   2.761  19.191  0.00  0.00    +0.000 A 
BRANCH  11  12
ATOM     12  N   UNL     1       4.728   3.064  17.934  0.00  0.00    +0.000 N 
ATOM     13  C   UNL     1       5.641   4.150  17.680  0.00  0.00    +0.000 C 
ATOM     14  O   UNL     1       6.083   4.861  18.570  0.00  0.00    +0.000 OA
ATOM     15  H   UNL     1       4.485   2.465  17.158  0.00  0.00    +0.000 HD
BRANCH  13  16
ATOM     16  C   UNL     1       6.067   4.291  16.276  0.00  0.00    +0.000 A 
ATOM     17  C   UNL     1       7.223   5.011  15.947  0.00  0.00    +0.000 A 
ATOM     18  C   UNL     1       7.540   5.223  14.607  0.00  0.00    +0.000 A 
ATOM     19  C   UNL     1       6.714   4.713  13.605  0.00  0.00    +0.000 A 
ATOM     20  C   UNL     1       5.589   3.955  13.935  0.00  0.00    +0.000 A 
ATOM     21  C   UNL     1       5.269   3.731  15.273  0.00  0.00    +0.000 A 
ENDBRANCH  13  16
ENDBRANCH  11  12
ENDBRANCH   4   7
BRANCH   1  22
ATOM     22  C   UNL     1       1.937   7.819  20.789  0.00  0.00    +0.000 C 
BRANCH  22  25
ATOM     23  N   UNL     1      -0.120  10.644  19.715  0.00  0.00    +0.000 N 
ATOM     24  C   UNL     1       0.743   9.635  19.407  0.00  0.00    +0.000 A 
ATOM     25  C   UNL     1       1.001   8.964  20.587  0.00  0.00    +0.000 A 
ATOM     26  C   UNL     1       0.207   9.645  21.552  0.00  0.00    +0.000 A 
ATOM     27  C   UNL     1       0.080   9.359  23.004  0.00  0.00    +0.000 C 
ATOM     28  N   UNL     1      -0.481  10.659  21.009  0.00  0.00    +0.000 NA
BRANCH  23  29
ATOM     29  C   UNL     1      -0.574  11.690  18.817  0.00  0.00    +0.000 C 
BRANCH  29  31
ATOM     30  C   UNL     1      -3.063  11.656  18.473  0.00  0.00    +0.000 C 
ATOM     31  C   UNL     1      -1.714  11.238  17.908  0.00  0.00    +0.000 C 
ENDBRANCH  29  31
ENDBRANCH  23  29
ENDBRANCH  22  25
ENDBRANCH   1  22
TORSDOF 7
ENDMDL
MODEL 7
REMARK VINA RESULT:      -7.2      1.172      1.264
REMARK  Name = 
REMARK  9 active torsions:
REMARK  status: ('A' for Active; 'I' for Inactive)
REMARK    1  A    between atoms: C_1  and  C_2
REMARK    2  A    between atoms: C_2  and  C_3
REMARK    3  A    between atoms: C_3  and  N_4
REMARK    4  A    between atoms: C_6  and  C_7
REMARK    5  A    between atoms: C_7  and  N_8
REMARK    6  A    between atoms: C_11  and  N_12
REMARK    7  A    between atoms: C_16  and  N_17
REMARK    8  A    between atoms: C_18  and  C_20
REMARK    9  A    between atoms: C_28  and  C_29
REMARK                            x       y       z     vdW  Elec       q    Type
REMARK                         _______ _______ _______ _____ _____    ______ ____
ROOT
ATOM      1  N   UNL     1       1.765   8.079  18.918  0.00  0.00    +0.000 NA
ATOM      2  C   UNL     1       1.520   8.625  20.262  0.00  0.00    +0.000 C 
ATOM      3  C   UNL     1       0.127   9.246  20.378  0.00  0.00    +0.000 C 
ATOM      4  C   UNL     1      -0.162  10.289  19.293  0.00  0.00    +0.000 C 
ATOM      5  C   UNL     1       0.212   9.744  17.911  0.00  0.00    +0.000 C 
ATOM      6  C   UNL     1       1.600   9.106  17.877  0.00  0.00    +0.000 C 
ENDROOT
BRANCH   4   7
ATOM      7  N   UNL     1       0.436  11.595  19.573  0.00  0.00    +0.000 N 
ATOM      8  N   UNL     1       1.675  11.864  19.113  0.00  0.00    +0.000 NA
ATOM      9  C   UNL     1       1.914  13.111  19.511  0.00  0.00    +0.000 A 
ATOM     10  C   UNL     1       0.837  13.654  20.223  0.00  0.00    +0.000 A 
ATOM     11  C   UNL     1      -0.114  12.659  20.270  0.00  0.00    +0.000 A 
BRANCH  11  12
ATOM     12  N   UNL     1      -1.364  12.709  20.883  0.00  0.00    +0.000 N 
ATOM     13  C   UNL     1      -1.603  12.335  22.254  0.00  0.00    +0.000 C 
ATOM     14  O   UNL     1      -0.706  11.997  23.010  0.00  0.00    +0.000 OA
ATOM     15  H   UNL     1      -2.144  13.069  20.352  0.00  0.00    +0.000 HD
BRANCH  13  16
ATOM     16  C   UNL     1      -3.002  12.468  22.702  0.00  0.00    +0.000 A 
ATOM     17  C   UNL     1      -4.010  12.829  21.800  0.00  0.00    +0.000 A 
ATOM     18  C   UNL     1      -5.301  13.059  22.271  0.00  0.00    +0.000 A 
ATOM     19  C   UNL     1      -5.583  12.919  23.631  0.00  0.00    +0.000 A 
ATOM     20  C   UNL     1      -4.587  12.512  24.520  0.00  0.00    +0.000 A 
ATOM     21  C   UNL     1      -3.295  12.274  24.056  0.00  0.00    +0.000 A 
ENDBRANCH  13  16
ENDBRANCH  11  12
ENDBRANCH   4   7
BRANCH   1  22
ATOM     22  C   UNL     1       3.138   7.531  18.818  0.00  0.00    +0.000 C 
BRANCH  22  25
ATOM     23  N   UNL     1       2.745   4.018  17.886  0.00  0.00    +0.000 N 
ATOM     24  C   UNL     1       2.340   5.090  18.623  0.00  0.00    +0.000 A 
ATOM     25  C   UNL     1       3.144   6.150  18.251  0.00  0.00    +0.000 A 
ATOM     26  C   UNL     1       3.993   5.604  17.248  0.00  0.00    +0.000 A 
ATOM     27  C   UNL     1       5.065   6.287  16.480  0.00  0.00    +0.000 C 
ATOM     28  N   UNL     1       3.735   4.308  17.024  0.00  0.00    +0.000 NA
BRANCH  23  29
ATOM     29  C   UNL     1       2.275   2.652  18.026  0.00  0.00    +0.000 C 
BRANCH  29  31
ATOM     30  C   UNL     1       4.121   2.073  19.628  0.00  0.00    +0.000 C 
ATOM     31  C   UNL     1       3.396   1.670  18.353  0.00  0.00    +0.000 C 
ENDBRANCH  29  31
ENDBRANCH  23  29
ENDBRANCH  22  25
ENDBRANCH   1  22
TORSDOF 7
ENDMDL
MODEL 8
REMARK VINA RESULT:      -7.1      3.565     10.462
REMARK  Name = 
REMARK  9 active torsions:
REMARK  status: ('A' for Active; 'I' for Inactive)
REMARK    1  A    between atoms: C_1  and  C_2
REMARK    2  A    between atoms: C_2  and  C_3
REMARK    3  A    between atoms: C_3  and  N_4
REMARK    4  A    between atoms: C_6  and  C_7
REMARK    5  A    between atoms: C_7  and  N_8
REMARK    6  A    between atoms: C_11  and  N_12
REMARK    7  A    between atoms: C_16  and  N_17
REMARK    8  A    between atoms: C_18  and  C_20
REMARK    9  A    between atoms: C_28  and  C_29
REMARK                            x       y       z     vdW  Elec       q    Type
REMARK                         _______ _______ _______ _____ _____    ______ ____
ROOT
ATOM      1  N   UNL     1       1.563   6.567  19.817  0.00  0.00    +0.000 NA
ATOM      2  C   UNL     1       2.669   6.118  18.956  0.00  0.00    +0.000 C 
ATOM      3  C   UNL     1       2.308   4.848  18.185  0.00  0.00    +0.000 C 
ATOM      4  C   UNL     1       1.811   3.713  19.087  0.00  0.00    +0.000 C 
ATOM      5  C   UNL     1       0.743   4.229  20.058  0.00  0.00    +0.000 C 
ATOM      6  C   UNL     1       1.154   5.520  20.765  0.00  0.00    +0.000 C 
ENDROOT
BRANCH   4   7
ATOM      7  N   UNL     1       2.892   2.992  19.758  0.00  0.00    +0.000 N 
ATOM      8  N   UNL     1       2.694   2.519  21.006  0.00  0.00    +0.000 NA
ATOM      9  C   UNL     1       3.835   1.910  21.316  0.00  0.00    +0.000 A 
ATOM     10  C   UNL     1       4.773   1.983  20.277  0.00  0.00    +0.000 A 
ATOM     11  C   UNL     1       4.157   2.698  19.274  0.00  0.00    +0.000 A 
BRANCH  11  12
ATOM     12  N   UNL     1       4.688   3.048  18.035  0.00  0.00    +0.000 N 
ATOM     13  C   UNL     1       5.719   4.039  17.853  0.00  0.00    +0.000 C 
ATOM     14  O   UNL     1       6.254   4.612  18.789  0.00  0.00    +0.000 OA
ATOM     15  H   UNL     1       4.365   2.551  17.217  0.00  0.00    +0.000 HD
BRANCH  13  16
ATOM     16  C   UNL     1       6.138   4.252  16.455  0.00  0.00    +0.000 A 
ATOM     17  C   UNL     1       7.235   5.069  16.154  0.00  0.00    +0.000 A 
ATOM     18  C   UNL     1       7.539   5.344  14.822  0.00  0.00    +0.000 A 
ATOM     19  C   UNL     1       6.759   4.800  13.801  0.00  0.00    +0.000 A 
ATOM     20  C   UNL     1       5.696   3.946  14.103  0.00  0.00    +0.000 A 
ATOM     21  C   UNL     1       5.389   3.661  15.432  0.00  0.00    +0.000 A 
ENDBRANCH  13  16
ENDBRANCH  11  12
ENDBRANCH   4   7
BRANCH   1  22
ATOM     22  C   UNL     1       1.956   7.768  20.590  0.00  0.00    +0.000 C 
BRANCH  22  25
ATOM     23  N   UNL     1      -0.255  10.639  20.104  0.00  0.00    +0.000 N 
ATOM     24  C   UNL     1       0.231   9.654  20.911  0.00  0.00    +0.000 A 
ATOM     25  C   UNL     1       1.181   8.974  20.173  0.00  0.00    +0.000 A 
ATOM     26  C   UNL     1       1.208   9.662  18.927  0.00  0.00    +0.000 A 
ATOM     27  C   UNL     1       2.048   9.374  17.737  0.00  0.00    +0.000 C 
ATOM     28  N   UNL     1       0.338  10.681  18.899  0.00  0.00    +0.000 NA
BRANCH  23  29
ATOM     29  C   UNL     1      -1.361  11.529  20.406  0.00  0.00    +0.000 C 
BRANCH  29  31
ATOM     30  C   UNL     1      -3.168  11.658  18.664  0.00  0.00    +0.000 C 
ATOM     31  C   UNL     1      -1.874  12.274  19.177  0.00  0.00    +0.000 C 
ENDBRANCH  29  31
ENDBRANCH  23  29
ENDBRANCH  22  25
ENDBRANCH   1  22
TORSDOF 7
ENDMDL
MODEL 9
REMARK VINA RESULT:      -7.1      3.793     10.557
REMARK  Name = 
REMARK  9 active torsions:
REMARK  status: ('A' for Active; 'I' for Inactive)
REMARK    1  A    between atoms: C_1  and  C_2
REMARK    2  A    between atoms: C_2  and  C_3
REMARK    3  A    between atoms: C_3  and  N_4
REMARK    4  A    between atoms: C_6  and  C_7
REMARK    5  A    between atoms: C_7  and  N_8
REMARK    6  A    between atoms: C_11  and  N_12
REMARK    7  A    between atoms: C_16  and  N_17
REMARK    8  A    between atoms: C_18  and  C_20
REMARK    9  A    between atoms: C_28  and  C_29
REMARK                            x       y       z     vdW  Elec       q    Type
REMARK                         _______ _______ _______ _____ _____    ______ ____
ROOT
ATOM      1  N   UNL     1       1.622   6.618  19.557  0.00  0.00    +0.000 NA
ATOM      2  C   UNL     1       2.598   6.015  18.636  0.00  0.00    +0.000 C 
ATOM      3  C   UNL     1       2.106   4.675  18.085  0.00  0.00    +0.000 C 
ATOM      4  C   UNL     1       1.692   3.687  19.181  0.00  0.00    +0.000 C 
ATOM      5  C   UNL     1       0.770   4.368  20.198  0.00  0.00    +0.000 C 
ATOM      6  C   UNL     1       1.304   5.718  20.676  0.00  0.00    +0.000 C 
ENDROOT
BRANCH   4   7
ATOM      7  N   UNL     1       2.828   3.007  19.806  0.00  0.00    +0.000 N 
ATOM      8  N   UNL     1       2.696   2.518  21.056  0.00  0.00    +0.000 NA
ATOM      9  C   UNL     1       3.872   1.956  21.319  0.00  0.00    +0.000 A 
ATOM     10  C   UNL     1       4.767   2.075  20.247  0.00  0.00    +0.000 A 
ATOM     11  C   UNL     1       4.084   2.769  19.273  0.00  0.00    +0.000 A 
BRANCH  11  12
ATOM     12  N   UNL     1       4.554   3.150  18.018  0.00  0.00    +0.000 N 
ATOM     13  C   UNL     1       5.637   4.078  17.811  0.00  0.00    +0.000 C 
ATOM     14  O   UNL     1       6.274   4.562  18.734  0.00  0.00    +0.000 OA
ATOM     15  H   UNL     1       4.141   2.721  17.201  0.00  0.00    +0.000 HD
BRANCH  13  16
ATOM     16  C   UNL     1       5.975   4.338  16.400  0.00  0.00    +0.000 A 
ATOM     17  C   UNL     1       5.155   3.861  15.369  0.00  0.00    +0.000 A 
ATOM     18  C   UNL     1       5.557   4.023  14.044  0.00  0.00    +0.000 A 
ATOM     19  C   UNL     1       6.763   4.663  13.753  0.00  0.00    +0.000 A 
ATOM     20  C   UNL     1       7.553   5.180  14.781  0.00  0.00    +0.000 A 
ATOM     21  C   UNL     1       7.156   5.029  16.108  0.00  0.00    +0.000 A 
ENDBRANCH  13  16
ENDBRANCH  11  12
ENDBRANCH   4   7
BRANCH   1  22
ATOM     22  C   UNL     1       2.144   7.888  20.114  0.00  0.00    +0.000 C 
BRANCH  22  25
ATOM     23  N   UNL     1      -0.183  10.601  19.347  0.00  0.00    +0.000 N 
ATOM     24  C   UNL     1       0.686   9.642  18.919  0.00  0.00    +0.000 A 
ATOM     25  C   UNL     1       1.129   8.981  20.048  0.00  0.00    +0.000 A 
ATOM     26  C   UNL     1       0.432   9.614  21.115  0.00  0.00    +0.000 A 
ATOM     27  C   UNL     1       0.510   9.315  22.568  0.00  0.00    +0.000 C 
ATOM     28  N   UNL     1      -0.374  10.592  20.677  0.00  0.00    +0.000 NA
BRANCH  23  29
ATOM     29  C   UNL     1      -0.805  11.625  18.527  0.00  0.00    +0.000 C 
BRANCH  29  31
ATOM     30  C   UNL     1      -0.095  14.022  18.780  0.00  0.00    +0.000 C 
ATOM     31  C   UNL     1      -1.030  12.932  19.282  0.00  0.00    +0.000 C 
ENDBRANCH  29  31
ENDBRANCH  23  29
ENDBRANCH  22  25
ENDBRANCH   1  22
TORSDOF 7
ENDMDL
