MODEL 1
REMARK VINA RESULT:      -5.3      0.000      0.000
REMARK  Name = 
REMARK  31 active torsions:
REMARK  status: ('A' for Active; 'I' for Inactive)
REMARK    1  A    between atoms: C_1  and  C_2
REMARK    2  A    between atoms: C_2  and  C_3
REMARK    3  A    between atoms: C_3  and  C_4
REMARK    4  A    between atoms: C_4  and  C_5
REMARK    5  A    between atoms: C_5  and  C_6
REMARK    6  A    between atoms: C_6  and  C_7
REMARK    7  A    between atoms: C_7  and  C_8
REMARK    8  A    between atoms: C_8  and  C_9
REMARK    9  A    between atoms: C_9  and  C_10
REMARK   10  A    between atoms: C_10  and  C_11
REMARK   11  A    between atoms: C_11  and  C_12
REMARK   12  A    between atoms: C_12  and  C_13
REMARK   13  A    between atoms: C_13  and  C_14
REMARK   14  A    between atoms: C_14  and  C_15
REMARK   15  A    between atoms: C_15  and  C_16
REMARK   16  A    between atoms: C_16  and  C_17
REMARK   17  A    between atoms: C_17  and  C_18
REMARK   18  A    between atoms: C_18  and  N_19
REMARK   19  A    between atoms: N_19  and  C_20
REMARK   20  A    between atoms: N_19  and  C_23
REMARK   21  A    between atoms: C_20  and  C_21
REMARK   22  A    between atoms: C_21  and  O_22
REMARK   23  A    between atoms: C_23  and  C_24
REMARK   24  A    between atoms: C_24  and  C_25
REMARK   25  A    between atoms: C_25  and  N_26
REMARK   26  A    between atoms: N_26  and  C_27
REMARK   27  A    between atoms: N_26  and  C_30
REMARK   28  A    between atoms: C_27  and  C_28
REMARK   29  A    between atoms: C_28  and  O_29
REMARK   30  A    between atoms: C_30  and  C_31
REMARK   31  A    between atoms: C_31  and  O_32
REMARK                            x       y       z     vdW  Elec       q    Type
REMARK                         _______ _______ _______ _____ _____    ______ ____
ROOT
ATOM      1  C   UNL     1       0.937   4.143  19.309  0.00  0.00    +0.000 C 
ENDROOT
BRANCH   1   2
ATOM      2  C   UNL     1       1.695   4.369  18.007  0.00  0.00    +0.000 C 
BRANCH   2   3
ATOM      3  C   UNL     1       2.660   3.234  17.696  0.00  0.00    +0.000 C 
BRANCH   3   4
ATOM      4  C   UNL     1       3.865   3.799  16.968  0.00  0.00    +0.000 C 
BRANCH   4   5
ATOM      5  C   UNL     1       5.140   3.530  17.739  0.00  0.00    +0.000 C 
BRANCH   5   6
ATOM      6  C   UNL     1       4.951   3.962  19.182  0.00  0.00    +0.000 C 
BRANCH   6   7
ATOM      7  C   UNL     1       5.817   5.172  19.470  0.00  0.00    +0.000 C 
BRANCH   7   8
ATOM      8  C   UNL     1       7.173   5.015  18.811  0.00  0.00    +0.000 C 
BRANCH   8   9
ATOM      9  C   UNL     1       7.957   6.304  18.970  0.00  0.00    +0.000 C 
BRANCH   9  10
ATOM     10  C   UNL     1       7.608   7.274  17.860  0.00  0.00    +0.000 C 
BRANCH  10  11
ATOM     11  C   UNL     1       7.136   6.508  16.636  0.00  0.00    +0.000 C 
BRANCH  11  12
ATOM     12  C   UNL     1       5.703   6.886  16.305  0.00  0.00    +0.000 C 
BRANCH  12  13
ATOM     13  C   UNL     1       5.229   6.126  15.076  0.00  0.00    +0.000 C 
BRANCH  13  14
ATOM     14  C   UNL     1       6.299   5.143  14.623  0.00  0.00    +0.000 C 
BRANCH  14  15
ATOM     15  C   UNL     1       5.673   3.974  13.874  0.00  0.00    +0.000 C 
BRANCH  15  16
ATOM     16  C   UNL     1       6.506   3.620  12.647  0.00  0.00    +0.000 C 
BRANCH  16  18
ATOM     17  C   UNL     1       4.289   3.263  11.530  0.00  0.00    +0.000 C 
ATOM     18  C   UNL     1       5.712   2.753  11.677  0.00  0.00    +0.000 C 
ENDBRANCH  16  18
ENDBRANCH  15  16
ENDBRANCH  14  15
ENDBRANCH  13  14
ENDBRANCH  12  13
ENDBRANCH  11  12
ENDBRANCH  10  11
ENDBRANCH   9  10
ENDBRANCH   8   9
ENDBRANCH   7   8
ENDBRANCH   6   7
ENDBRANCH   5   6
ENDBRANCH   4   5
ENDBRANCH   3   4
ENDBRANCH   2   3
ENDBRANCH   1   2
BRANCH   1  19
ATOM     19  N   UNL     1       1.380   4.966  20.459  0.00  0.00    +0.000 NA
BRANCH  19  20
ATOM     20  C   UNL     1       2.091   6.168  19.965  0.00  0.00    +0.000 C 
BRANCH  20  21
ATOM     21  C   UNL     1       1.726   7.427  20.781  0.00  0.00    +0.000 C 
BRANCH  21  22
ATOM     22  C   UNL     1       1.552   8.683  19.930  0.00  0.00    +0.000 C 
BRANCH  22  23
ATOM     23  N   UNL     1       0.204   9.288  19.927  0.00  0.00    +0.000 NA
BRANCH  23  24
ATOM     24  C   UNL     1       0.276  10.671  19.402  0.00  0.00    +0.000 C 
BRANCH  24  25
ATOM     25  C   UNL     1      -0.841  11.060  18.424  0.00  0.00    +0.000 C 
BRANCH  25  26
ATOM     26  O   UNL     1      -0.586  12.327  17.837  0.00  0.00    +0.000 OA
ATOM     27  H   UNL     1       0.005  12.818  18.422  0.00  0.00    +0.000 HD
ENDBRANCH  25  26
ENDBRANCH  24  25
ENDBRANCH  23  24
BRANCH  23  28
ATOM     28  C   UNL     1      -0.386   9.297  21.290  0.00  0.00    +0.000 C 
BRANCH  28  29
ATOM     29  C   UNL     1       0.011  10.481  22.179  0.00  0.00    +0.000 C 
BRANCH  29  30
ATOM     30  O   UNL     1       0.737   9.968  23.288  0.00  0.00    +0.000 OA
ATOM     31  H   UNL     1       0.129   9.867  24.041  0.00  0.00    +0.000 HD
ENDBRANCH  29  30
ENDBRANCH  28  29
ENDBRANCH  23  28
ENDBRANCH  22  23
ENDBRANCH  21  22
ENDBRANCH  20  21
ENDBRANCH  19  20
BRANCH  19  32
ATOM     32  C   UNL     1       2.228   4.143  21.368  0.00  0.00    +0.000 C 
BRANCH  32  33
ATOM     33  C   UNL     1       1.980   2.622  21.419  0.00  0.00    +0.000 C 
BRANCH  33  34
ATOM     34  O   UNL     1       1.195   2.289  22.573  0.00  0.00    +0.000 OA
ATOM     35  H   UNL     1       0.378   2.821  22.563  0.00  0.00    +0.000 HD
ENDBRANCH  33  34
ENDBRANCH  32  33
ENDBRANCH  19  32
ENDBRANCH   1  19
TORSDOF 30
ENDMDL
MODEL 2
REMARK VINA RESULT:      -5.1      2.377      5.322
REMARK  Name = 
REMARK  31 active torsions:
REMARK  status: ('A' for Active; 'I' for Inactive)
REMARK    1  A    between atoms: C_1  and  C_2
REMARK    2  A    between atoms: C_2  and  C_3
REMARK    3  A    between atoms: C_3  and  C_4
REMARK    4  A    between atoms: C_4  and  C_5
REMARK    5  A    between atoms: C_5  and  C_6
REMARK    6  A    between atoms: C_6  and  C_7
REMARK    7  A    between atoms: C_7  and  C_8
REMARK    8  A    between atoms: C_8  and  C_9
REMARK    9  A    between atoms: C_9  and  C_10
REMARK   10  A    between atoms: C_10  and  C_11
REMARK   11  A    between atoms: C_11  and  C_12
REMARK   12  A    between atoms: C_12  and  C_13
REMARK   13  A    between atoms: C_13  and  C_14
REMARK   14  A    between atoms: C_14  and  C_15
REMARK   15  A    between atoms: C_15  and  C_16
REMARK   16  A    between atoms: C_16  and  C_17
REMARK   17  A    between atoms: C_17  and  C_18
REMARK   18  A    between atoms: C_18  and  N_19
REMARK   19  A    between atoms: N_19  and  C_20
REMARK   20  A    between atoms: N_19  and  C_23
REMARK   21  A    between atoms: C_20  and  C_21
REMARK   22  A    between atoms: C_21  and  O_22
REMARK   23  A    between atoms: C_23  and  C_24
REMARK   24  A    between atoms: C_24  and  C_25
REMARK   25  A    between atoms: C_25  and  N_26
REMARK   26  A    between atoms: N_26  and  C_27
REMARK   27  A    between atoms: N_26  and  C_30
REMARK   28  A    between atoms: C_27  and  C_28
REMARK   29  A    between atoms: C_28  and  O_29
REMARK   30  A    between atoms: C_30  and  C_31
REMARK   31  A    between atoms: C_31  and  O_32
REMARK                            x       y       z     vdW  Elec       q    Type
REMARK                         _______ _______ _______ _____ _____    ______ ____
ROOT
ATOM      1  C   UNL     1       1.645  10.313  19.277  0.00  0.00    +0.000 C 
ENDROOT
BRANCH   1   2
ATOM      2  C   UNL     1       2.006   9.751  17.908  0.00  0.00    +0.000 C 
BRANCH   2   3
ATOM      3  C   UNL     1       1.583   8.298  17.751  0.00  0.00    +0.000 C 
BRANCH   3   4
ATOM      4  C   UNL     1       2.666   7.405  18.326  0.00  0.00    +0.000 C 
BRANCH   4   5
ATOM      5  C   UNL     1       2.135   6.014  18.598  0.00  0.00    +0.000 C 
BRANCH   5   6
ATOM      6  C   UNL     1       2.215   5.730  20.087  0.00  0.00    +0.000 C 
BRANCH   6   7
ATOM      7  C   UNL     1       1.167   4.704  20.469  0.00  0.00    +0.000 C 
BRANCH   7   8
ATOM      8  C   UNL     1       1.095   3.614  19.418  0.00  0.00    +0.000 C 
BRANCH   8   9
ATOM      9  C   UNL     1       2.186   2.593  19.683  0.00  0.00    +0.000 C 
BRANCH   9  10
ATOM     10  C   UNL     1       2.779   2.104  18.378  0.00  0.00    +0.000 C 
BRANCH  10  11
ATOM     11  C   UNL     1       4.011   2.925  18.034  0.00  0.00    +0.000 C 
BRANCH  11  12
ATOM     12  C   UNL     1       4.764   3.292  19.300  0.00  0.00    +0.000 C 
BRANCH  12  13
ATOM     13  C   UNL     1       5.469   4.628  19.124  0.00  0.00    +0.000 C 
BRANCH  13  14
ATOM     14  C   UNL     1       6.234   4.648  17.808  0.00  0.00    +0.000 C 
BRANCH  14  15
ATOM     15  C   UNL     1       6.047   5.981  17.097  0.00  0.00    +0.000 C 
BRANCH  15  16
ATOM     16  C   UNL     1       5.249   5.792  15.811  0.00  0.00    +0.000 C 
BRANCH  16  18
ATOM     17  C   UNL     1       6.460   4.455  14.068  0.00  0.00    +0.000 C 
ATOM     18  C   UNL     1       5.477   4.403  15.224  0.00  0.00    +0.000 C 
ENDBRANCH  16  18
ENDBRANCH  15  16
ENDBRANCH  14  15
ENDBRANCH  13  14
ENDBRANCH  12  13
ENDBRANCH  11  12
ENDBRANCH  10  11
ENDBRANCH   9  10
ENDBRANCH   8   9
ENDBRANCH   7   8
ENDBRANCH   6   7
ENDBRANCH   5   6
ENDBRANCH   4   5
ENDBRANCH   3   4
ENDBRANCH   2   3
ENDBRANCH   1   2
BRANCH   1  19
ATOM     19  N   UNL     1       0.205  10.275  19.627  0.00  0.00    +0.000 NA
BRANCH  19  20
ATOM     20  C   UNL     1      -0.261  11.640  19.964  0.00  0.00    +0.000 C 
BRANCH  20  21
ATOM     21  C   UNL     1      -1.717  11.639  20.476  0.00  0.00    +0.000 C 
BRANCH  21  22
ATOM     22  C   UNL     1      -2.591  12.725  19.849  0.00  0.00    +0.000 C 
BRANCH  22  23
ATOM     23  N   UNL     1      -3.571  12.273  18.840  0.00  0.00    +0.000 NA
BRANCH  23  24
ATOM     24  C   UNL     1      -4.910  12.149  19.462  0.00  0.00    +0.000 C 
BRANCH  24  25
ATOM     25  C   UNL     1      -5.200  13.141  20.595  0.00  0.00    +0.000 C 
BRANCH  25  26
ATOM     26  O   UNL     1      -6.022  14.206  20.143  0.00  0.00    +0.000 OA
ATOM     27  H   UNL     1      -5.539  15.034  20.264  0.00  0.00    +0.000 HD
ENDBRANCH  25  26
ENDBRANCH  24  25
ENDBRANCH  23  24
BRANCH  23  28
ATOM     28  C   UNL     1      -3.170  10.972  18.245  0.00  0.00    +0.000 C 
BRANCH  28  29
ATOM     29  C   UNL     1      -2.428  11.054  16.906  0.00  0.00    +0.000 C 
BRANCH  29  30
ATOM     30  O   UNL     1      -1.331  10.152  16.961  0.00  0.00    +0.000 OA
ATOM     31  H   UNL     1      -0.686  10.483  17.610  0.00  0.00    +0.000 HD
ENDBRANCH  29  30
ENDBRANCH  28  29
ENDBRANCH  23  28
ENDBRANCH  22  23
ENDBRANCH  21  22
ENDBRANCH  20  21
ENDBRANCH  19  20
BRANCH  19  32
ATOM     32  C   UNL     1      -0.014   9.312  20.744  0.00  0.00    +0.000 C 
BRANCH  32  33
ATOM     33  C   UNL     1       1.202   8.891  21.593  0.00  0.00    +0.000 C 
BRANCH  33  34
ATOM     34  O   UNL     1       1.219   9.624  22.827  0.00  0.00    +0.000 OA
ATOM     35  H   UNL     1       1.676   9.091  23.503  0.00  0.00    +0.000 HD
ENDBRANCH  33  34
ENDBRANCH  32  33
ENDBRANCH  19  32
ENDBRANCH   1  19
TORSDOF 30
ENDMDL
MODEL 3
REMARK VINA RESULT:      -5.0      3.264      6.190
REMARK  Name = 
REMARK  31 active torsions:
REMARK  status: ('A' for Active; 'I' for Inactive)
REMARK    1  A    between atoms: C_1  and  C_2
REMARK    2  A    between atoms: C_2  and  C_3
REMARK    3  A    between atoms: C_3  and  C_4
REMARK    4  A    between atoms: C_4  and  C_5
REMARK    5  A    between atoms: C_5  and  C_6
REMARK    6  A    between atoms: C_6  and  C_7
REMARK    7  A    between atoms: C_7  and  C_8
REMARK    8  A    between atoms: C_8  and  C_9
REMARK    9  A    between atoms: C_9  and  C_10
REMARK   10  A    between atoms: C_10  and  C_11
REMARK   11  A    between atoms: C_11  and  C_12
REMARK   12  A    between atoms: C_12  and  C_13
REMARK   13  A    between atoms: C_13  and  C_14
REMARK   14  A    between atoms: C_14  and  C_15
REMARK   15  A    between atoms: C_15  and  C_16
REMARK   16  A    between atoms: C_16  and  C_17
REMARK   17  A    between atoms: C_17  and  C_18
REMARK   18  A    between atoms: C_18  and  N_19
REMARK   19  A    between atoms: N_19  and  C_20
REMARK   20  A    between atoms: N_19  and  C_23
REMARK   21  A    between atoms: C_20  and  C_21
REMARK   22  A    between atoms: C_21  and  O_22
REMARK   23  A    between atoms: C_23  and  C_24
REMARK   24  A    between atoms: C_24  and  C_25
REMARK   25  A    between atoms: C_25  and  N_26
REMARK   26  A    between atoms: N_26  and  C_27
REMARK   27  A    between atoms: N_26  and  C_30
REMARK   28  A    between atoms: C_27  and  C_28
REMARK   29  A    between atoms: C_28  and  O_29
REMARK   30  A    between atoms: C_30  and  C_31
REMARK   31  A    between atoms: C_31  and  O_32
REMARK                            x       y       z     vdW  Elec       q    Type
REMARK                         _______ _______ _______ _____ _____    ______ ____
ROOT
ATOM      1  C   UNL     1       1.002  10.829  19.550  0.00  0.00    +0.000 C 
ENDROOT
BRANCH   1   2
ATOM      2  C   UNL     1       1.216   9.352  19.243  0.00  0.00    +0.000 C 
BRANCH   2   3
ATOM      3  C   UNL     1       1.597   9.113  17.790  0.00  0.00    +0.000 C 
BRANCH   3   4
ATOM      4  C   UNL     1       2.769   8.152  17.740  0.00  0.00    +0.000 C 
BRANCH   4   5
ATOM      5  C   UNL     1       2.400   6.815  18.348  0.00  0.00    +0.000 C 
BRANCH   5   6
ATOM      6  C   UNL     1       3.284   6.554  19.554  0.00  0.00    +0.000 C 
BRANCH   6   7
ATOM      7  C   UNL     1       3.045   5.148  20.068  0.00  0.00    +0.000 C 
BRANCH   7   8
ATOM      8  C   UNL     1       1.644   5.029  20.635  0.00  0.00    +0.000 C 
BRANCH   8   9
ATOM      9  C   UNL     1       1.048   3.699  20.214  0.00  0.00    +0.000 C 
BRANCH   9  10
ATOM     10  C   UNL     1       2.127   2.783  19.675  0.00  0.00    +0.000 C 
BRANCH  10  11
ATOM     11  C   UNL     1       1.753   2.313  18.279  0.00  0.00    +0.000 C 
BRANCH  11  12
ATOM     12  C   UNL     1       2.410   3.200  17.236  0.00  0.00    +0.000 C 
BRANCH  12  13
ATOM     13  C   UNL     1       3.924   3.095  17.335  0.00  0.00    +0.000 C 
BRANCH  13  14
ATOM     14  C   UNL     1       4.574   4.341  16.750  0.00  0.00    +0.000 C 
BRANCH  14  15
ATOM     15  C   UNL     1       5.886   3.989  16.060  0.00  0.00    +0.000 C 
BRANCH  15  16
ATOM     16  C   UNL     1       7.057   4.660  16.767  0.00  0.00    +0.000 C 
BRANCH  16  18
ATOM     17  C   UNL     1       7.218   5.664  19.061  0.00  0.00    +0.000 C 
ATOM     18  C   UNL     1       6.576   5.775  17.689  0.00  0.00    +0.000 C 
ENDBRANCH  16  18
ENDBRANCH  15  16
ENDBRANCH  14  15
ENDBRANCH  13  14
ENDBRANCH  12  13
ENDBRANCH  11  12
ENDBRANCH  10  11
ENDBRANCH   9  10
ENDBRANCH   8   9
ENDBRANCH   7   8
ENDBRANCH   6   7
ENDBRANCH   5   6
ENDBRANCH   4   5
ENDBRANCH   3   4
ENDBRANCH   2   3
ENDBRANCH   1   2
BRANCH   1  19
ATOM     19  N   UNL     1      -0.281  11.168  20.210  0.00  0.00    +0.000 NA
BRANCH  19  20
ATOM     20  C   UNL     1      -0.427  10.370  21.450  0.00  0.00    +0.000 C 
BRANCH  20  21
ATOM     21  C   UNL     1      -0.937  11.228  22.627  0.00  0.00    +0.000 C 
BRANCH  21  22
ATOM     22  C   UNL     1      -1.068  12.714  22.296  0.00  0.00    +0.000 C 
BRANCH  22  23
ATOM     23  N   UNL     1      -2.423  13.291  22.408  0.00  0.00    +0.000 NA
BRANCH  23  24
ATOM     24  C   UNL     1      -2.535  14.483  21.535  0.00  0.00    +0.000 C 
BRANCH  24  25
ATOM     25  C   UNL     1      -2.574  15.830  22.267  0.00  0.00    +0.000 C 
BRANCH  25  26
ATOM     26  O   UNL     1      -1.331  16.506  22.160  0.00  0.00    +0.000 OA
ATOM     27  H   UNL     1      -1.216  16.784  21.241  0.00  0.00    +0.000 HD
ENDBRANCH  25  26
ENDBRANCH  24  25
ENDBRANCH  23  24
BRANCH  23  28
ATOM     28  C   UNL     1      -2.736  13.664  23.811  0.00  0.00    +0.000 C 
BRANCH  28  29
ATOM     29  C   UNL     1      -3.983  13.006  24.413  0.00  0.00    +0.000 C 
BRANCH  29  30
ATOM     30  O   UNL     1      -5.047  13.946  24.344  0.00  0.00    +0.000 OA
ATOM     31  H   UNL     1      -5.662  13.671  23.642  0.00  0.00    +0.000 HD
ENDBRANCH  29  30
ENDBRANCH  28  29
ENDBRANCH  23  28
ENDBRANCH  22  23
ENDBRANCH  21  22
ENDBRANCH  20  21
ENDBRANCH  19  20
BRANCH  19  32
ATOM     32  C   UNL     1      -1.407  10.945  19.260  0.00  0.00    +0.000 C 
BRANCH  32  33
ATOM     33  C   UNL     1      -2.048  12.174  18.585  0.00  0.00    +0.000 C 
BRANCH  33  34
ATOM     34  O   UNL     1      -1.436  12.412  17.309  0.00  0.00    +0.000 OA
ATOM     35  H   UNL     1      -2.111  12.757  16.696  0.00  0.00    +0.000 HD
ENDBRANCH  33  34
ENDBRANCH  32  33
ENDBRANCH  19  32
ENDBRANCH   1  19
TORSDOF 30
ENDMDL
MODEL 4
REMARK VINA RESULT:      -4.8      2.292      5.377
REMARK  Name = 
REMARK  31 active torsions:
REMARK  status: ('A' for Active; 'I' for Inactive)
REMARK    1  A    between atoms: C_1  and  C_2
REMARK    2  A    between atoms: C_2  and  C_3
REMARK    3  A    between atoms: C_3  and  C_4
REMARK    4  A    between atoms: C_4  and  C_5
REMARK    5  A    between atoms: C_5  and  C_6
REMARK    6  A    between atoms: C_6  and  C_7
REMARK    7  A    between atoms: C_7  and  C_8
REMARK    8  A    between atoms: C_8  and  C_9
REMARK    9  A    between atoms: C_9  and  C_10
REMARK   10  A    between atoms: C_10  and  C_11
REMARK   11  A    between atoms: C_11  and  C_12
REMARK   12  A    between atoms: C_12  and  C_13
REMARK   13  A    between atoms: C_13  and  C_14
REMARK   14  A    between atoms: C_14  and  C_15
REMARK   15  A    between atoms: C_15  and  C_16
REMARK   16  A    between atoms: C_16  and  C_17
REMARK   17  A    between atoms: C_17  and  C_18
REMARK   18  A    between atoms: C_18  and  N_19
REMARK   19  A    between atoms: N_19  and  C_20
REMARK   20  A    between atoms: N_19  and  C_23
REMARK   21  A    between atoms: C_20  and  C_21
REMARK   22  A    between atoms: C_21  and  O_22
REMARK   23  A    between atoms: C_23  and  C_24
REMARK   24  A    between atoms: C_24  and  C_25
REMARK   25  A    between atoms: C_25  and  N_26
REMARK   26  A    between atoms: N_26  and  C_27
REMARK   27  A    between atoms: N_26  and  C_30
REMARK   28  A    between atoms: C_27  and  C_28
REMARK   29  A    between atoms: C_28  and  O_29
REMARK   30  A    between atoms: C_30  and  C_31
REMARK   31  A    between atoms: C_31  and  O_32
REMARK                            x       y       z     vdW  Elec       q    Type
REMARK                         _______ _______ _______ _____ _____    ______ ____
ROOT
ATOM      1  C   UNL     1       1.740   8.767  17.722  0.00  0.00    +0.000 C 
ENDROOT
BRANCH   1   2
ATOM      2  C   UNL     1       3.047   7.987  17.797  0.00  0.00    +0.000 C 
BRANCH   2   3
ATOM      3  C   UNL     1       3.069   7.008  18.961  0.00  0.00    +0.000 C 
BRANCH   3   4
ATOM      4  C   UNL     1       1.653   6.538  19.236  0.00  0.00    +0.000 C 
BRANCH   4   5
ATOM      5  C   UNL     1       1.502   6.085  20.673  0.00  0.00    +0.000 C 
BRANCH   5   6
ATOM      6  C   UNL     1       2.304   4.813  20.883  0.00  0.00    +0.000 C 
BRANCH   6   7
ATOM      7  C   UNL     1       1.366   3.626  20.964  0.00  0.00    +0.000 C 
BRANCH   7   8
ATOM      8  C   UNL     1       0.996   3.155  19.571  0.00  0.00    +0.000 C 
BRANCH   8   9
ATOM      9  C   UNL     1       1.899   2.000  19.179  0.00  0.00    +0.000 C 
BRANCH   9  10
ATOM     10  C   UNL     1       2.391   2.174  17.757  0.00  0.00    +0.000 C 
BRANCH  10  11
ATOM     11  C   UNL     1       3.212   3.448  17.649  0.00  0.00    +0.000 C 
BRANCH  11  12
ATOM     12  C   UNL     1       4.450   3.347  18.523  0.00  0.00    +0.000 C 
BRANCH  12  13
ATOM     13  C   UNL     1       5.407   4.487  18.213  0.00  0.00    +0.000 C 
BRANCH  13  14
ATOM     14  C   UNL     1       5.943   4.350  16.795  0.00  0.00    +0.000 C 
BRANCH  14  15
ATOM     15  C   UNL     1       5.334   5.408  15.885  0.00  0.00    +0.000 C 
BRANCH  15  16
ATOM     16  C   UNL     1       5.876   5.267  14.467  0.00  0.00    +0.000 C 
BRANCH  16  18
ATOM     17  C   UNL     1       5.985   3.495  12.695  0.00  0.00    +0.000 C 
ATOM     18  C   UNL     1       6.234   3.818  14.158  0.00  0.00    +0.000 C 
ENDBRANCH  16  18
ENDBRANCH  15  16
ENDBRANCH  14  15
ENDBRANCH  13  14
ENDBRANCH  12  13
ENDBRANCH  11  12
ENDBRANCH  10  11
ENDBRANCH   9  10
ENDBRANCH   8   9
ENDBRANCH   7   8
ENDBRANCH   6   7
ENDBRANCH   5   6
ENDBRANCH   4   5
ENDBRANCH   3   4
ENDBRANCH   2   3
ENDBRANCH   1   2
BRANCH   1  19
ATOM     19  N   UNL     1       1.709  10.041  18.478  0.00  0.00    +0.000 NA
BRANCH  19  20
ATOM     20  C   UNL     1       0.305  10.476  18.661  0.00  0.00    +0.000 C 
BRANCH  20  21
ATOM     21  C   UNL     1      -0.119  10.435  20.145  0.00  0.00    +0.000 C 
BRANCH  21  22
ATOM     22  C   UNL     1       0.648  11.414  21.033  0.00  0.00    +0.000 C 
BRANCH  22  23
ATOM     23  N   UNL     1      -0.065  11.908  22.228  0.00  0.00    +0.000 NA
BRANCH  23  24
ATOM     24  C   UNL     1      -0.985  10.861  22.731  0.00  0.00    +0.000 C 
BRANCH  24  25
ATOM     25  C   UNL     1      -0.308   9.669  23.419  0.00  0.00    +0.000 C 
BRANCH  25  26
ATOM     26  O   UNL     1      -0.922   8.446  23.041  0.00  0.00    +0.000 OA
ATOM     27  H   UNL     1      -1.289   8.553  22.154  0.00  0.00    +0.000 HD
ENDBRANCH  25  26
ENDBRANCH  24  25
ENDBRANCH  23  24
BRANCH  23  28
ATOM     28  C   UNL     1      -0.828  13.147  21.928  0.00  0.00    +0.000 C 
BRANCH  28  29
ATOM     29  C   UNL     1      -0.756  14.247  22.993  0.00  0.00    +0.000 C 
BRANCH  29  30
ATOM     30  O   UNL     1      -2.074  14.474  23.473  0.00  0.00    +0.000 OA
ATOM     31  H   UNL     1      -2.025  14.736  24.410  0.00  0.00    +0.000 HD
ENDBRANCH  29  30
ENDBRANCH  28  29
ENDBRANCH  23  28
ENDBRANCH  22  23
ENDBRANCH  21  22
ENDBRANCH  20  21
ENDBRANCH  19  20
BRANCH  19  32
ATOM     32  C   UNL     1       2.528  11.065  17.769  0.00  0.00    +0.000 C 
BRANCH  32  33
ATOM     33  C   UNL     1       2.262  12.552  18.075  0.00  0.00    +0.000 C 
BRANCH  33  34
ATOM     34  O   UNL     1       3.403  13.344  17.711  0.00  0.00    +0.000 OA
ATOM     35  H   UNL     1       3.140  13.973  17.015  0.00  0.00    +0.000 HD
ENDBRANCH  33  34
ENDBRANCH  32  33
ENDBRANCH  19  32
ENDBRANCH   1  19
TORSDOF 30
ENDMDL
MODEL 5
REMARK VINA RESULT:      -4.8      2.507      5.515
REMARK  Name = 
REMARK  31 active torsions:
REMARK  status: ('A' for Active; 'I' for Inactive)
REMARK    1  A    between atoms: C_1  and  C_2
REMARK    2  A    between atoms: C_2  and  C_3
REMARK    3  A    between atoms: C_3  and  C_4
REMARK    4  A    between atoms: C_4  and  C_5
REMARK    5  A    between atoms: C_5  and  C_6
REMARK    6  A    between atoms: C_6  and  C_7
REMARK    7  A    between atoms: C_7  and  C_8
REMARK    8  A    between atoms: C_8  and  C_9
REMARK    9  A    between atoms: C_9  and  C_10
REMARK   10  A    between atoms: C_10  and  C_11
REMARK   11  A    between atoms: C_11  and  C_12
REMARK   12  A    between atoms: C_12  and  C_13
REMARK   13  A    between atoms: C_13  and  C_14
REMARK   14  A    between atoms: C_14  and  C_15
REMARK   15  A    between atoms: C_15  and  C_16
REMARK   16  A    between atoms: C_16  and  C_17
REMARK   17  A    between atoms: C_17  and  C_18
REMARK   18  A    between atoms: C_18  and  N_19
REMARK   19  A    between atoms: N_19  and  C_20
REMARK   20  A    between atoms: N_19  and  C_23
REMARK   21  A    between atoms: C_20  and  C_21
REMARK   22  A    between atoms: C_21  and  O_22
REMARK   23  A    between atoms: C_23  and  C_24
REMARK   24  A    between atoms: C_24  and  C_25
REMARK   25  A    between atoms: C_25  and  N_26
REMARK   26  A    between atoms: N_26  and  C_27
REMARK   27  A    between atoms: N_26  and  C_30
REMARK   28  A    between atoms: C_27  and  C_28
REMARK   29  A    between atoms: C_28  and  O_29
REMARK   30  A    between atoms: C_30  and  C_31
REMARK   31  A    between atoms: C_31  and  O_32
REMARK                            x       y       z     vdW  Elec       q    Type
REMARK                         _______ _______ _______ _____ _____    ______ ____
ROOT
ATOM      1  C   UNL     1       0.241   9.454  18.830  0.00  0.00    +0.000 C 
ENDROOT
BRANCH   1   2
ATOM      2  C   UNL     1       1.605  10.095  18.605  0.00  0.00    +0.000 C 
BRANCH   2   3
ATOM      3  C   UNL     1       2.540   9.198  17.807  0.00  0.00    +0.000 C 
BRANCH   3   4
ATOM      4  C   UNL     1       2.035   7.770  17.881  0.00  0.00    +0.000 C 
BRANCH   4   5
ATOM      5  C   UNL     1       2.891   6.939  18.814  0.00  0.00    +0.000 C 
BRANCH   5   6
ATOM      6  C   UNL     1       2.211   5.604  19.060  0.00  0.00    +0.000 C 
BRANCH   6   7
ATOM      7  C   UNL     1       3.069   4.756  19.976  0.00  0.00    +0.000 C 
BRANCH   7   8
ATOM      8  C   UNL     1       4.470   4.627  19.411  0.00  0.00    +0.000 C 
BRANCH   8   9
ATOM      9  C   UNL     1       4.524   3.432  18.479  0.00  0.00    +0.000 C 
BRANCH   9  10
ATOM     10  C   UNL     1       4.102   3.833  17.080  0.00  0.00    +0.000 C 
BRANCH  10  11
ATOM     11  C   UNL     1       5.272   3.674  16.124  0.00  0.00    +0.000 C 
BRANCH  11  12
ATOM     12  C   UNL     1       5.462   4.944  15.316  0.00  0.00    +0.000 C 
BRANCH  12  13
ATOM     13  C   UNL     1       5.565   6.146  16.241  0.00  0.00    +0.000 C 
BRANCH  13  14
ATOM     14  C   UNL     1       7.026   6.506  16.472  0.00  0.00    +0.000 C 
BRANCH  14  15
ATOM     15  C   UNL     1       7.473   6.073  17.862  0.00  0.00    +0.000 C 
BRANCH  15  16
ATOM     16  C   UNL     1       8.051   7.257  18.629  0.00  0.00    +0.000 C 
BRANCH  16  18
ATOM     17  C   UNL     1       8.793   9.646  18.445  0.00  0.00    +0.000 C 
ATOM     18  C   UNL     1       7.987   8.534  17.798  0.00  0.00    +0.000 C 
ENDBRANCH  16  18
ENDBRANCH  15  16
ENDBRANCH  14  15
ENDBRANCH  13  14
ENDBRANCH  12  13
ENDBRANCH  11  12
ENDBRANCH  10  11
ENDBRANCH   9  10
ENDBRANCH   8   9
ENDBRANCH   7   8
ENDBRANCH   6   7
ENDBRANCH   5   6
ENDBRANCH   4   5
ENDBRANCH   3   4
ENDBRANCH   2   3
ENDBRANCH   1   2
BRANCH   1  19
ATOM     19  N   UNL     1      -0.418   9.783  20.116  0.00  0.00    +0.000 NA
BRANCH  19  20
ATOM     20  C   UNL     1      -0.229  11.221  20.418  0.00  0.00    +0.000 C 
BRANCH  20  21
ATOM     21  C   UNL     1      -1.009  12.121  19.436  0.00  0.00    +0.000 C 
BRANCH  21  22
ATOM     22  C   UNL     1      -2.527  12.021  19.582  0.00  0.00    +0.000 C 
BRANCH  22  23
ATOM     23  N   UNL     1      -3.248  11.363  18.473  0.00  0.00    +0.000 NA
BRANCH  23  24
ATOM     24  C   UNL     1      -2.488  11.529  17.212  0.00  0.00    +0.000 C 
BRANCH  24  25
ATOM     25  C   UNL     1      -2.344  10.261  16.362  0.00  0.00    +0.000 C 
BRANCH  25  26
ATOM     26  O   UNL     1      -3.545   9.977  15.660  0.00  0.00    +0.000 OA
ATOM     27  H   UNL     1      -4.030  10.805  15.544  0.00  0.00    +0.000 HD
ENDBRANCH  25  26
ENDBRANCH  24  25
ENDBRANCH  23  24
BRANCH  23  28
ATOM     28  C   UNL     1      -4.615  11.920  18.313  0.00  0.00    +0.000 C 
BRANCH  28  29
ATOM     29  C   UNL     1      -5.756  10.896  18.323  0.00  0.00    +0.000 C 
BRANCH  29  30
ATOM     30  O   UNL     1      -6.851  11.459  17.611  0.00  0.00    +0.000 OA
ATOM     31  H   UNL     1      -7.385  11.989  18.228  0.00  0.00    +0.000 HD
ENDBRANCH  29  30
ENDBRANCH  28  29
ENDBRANCH  23  28
ENDBRANCH  22  23
ENDBRANCH  21  22
ENDBRANCH  20  21
ENDBRANCH  19  20
BRANCH  19  32
ATOM     32  C   UNL     1       0.122   8.906  21.194  0.00  0.00    +0.000 C 
BRANCH  32  33
ATOM     33  C   UNL     1       1.033   9.541  22.264  0.00  0.00    +0.000 C 
BRANCH  33  34
ATOM     34  O   UNL     1       0.289   9.782  23.467  0.00  0.00    +0.000 OA
ATOM     35  H   UNL     1       0.123  10.739  23.548  0.00  0.00    +0.000 HD
ENDBRANCH  33  34
ENDBRANCH  32  33
ENDBRANCH  19  32
ENDBRANCH   1  19
TORSDOF 30
ENDMDL
MODEL 6
REMARK VINA RESULT:      -4.8      3.996     10.206
REMARK  Name = 
REMARK  31 active torsions:
REMARK  status: ('A' for Active; 'I' for Inactive)
REMARK    1  A    between atoms: C_1  and  C_2
REMARK    2  A    between atoms: C_2  and  C_3
REMARK    3  A    between atoms: C_3  and  C_4
REMARK    4  A    between atoms: C_4  and  C_5
REMARK    5  A    between atoms: C_5  and  C_6
REMARK    6  A    between atoms: C_6  and  C_7
REMARK    7  A    between atoms: C_7  and  C_8
REMARK    8  A    between atoms: C_8  and  C_9
REMARK    9  A    between atoms: C_9  and  C_10
REMARK   10  A    between atoms: C_10  and  C_11
REMARK   11  A    between atoms: C_11  and  C_12
REMARK   12  A    between atoms: C_12  and  C_13
REMARK   13  A    between atoms: C_13  and  C_14
REMARK   14  A    between atoms: C_14  and  C_15
REMARK   15  A    between atoms: C_15  and  C_16
REMARK   16  A    between atoms: C_16  and  C_17
REMARK   17  A    between atoms: C_17  and  C_18
REMARK   18  A    between atoms: C_18  and  N_19
REMARK   19  A    between atoms: N_19  and  C_20
REMARK   20  A    between atoms: N_19  and  C_23
REMARK   21  A    between atoms: C_20  and  C_21
REMARK   22  A    between atoms: C_21  and  O_22
REMARK   23  A    between atoms: C_23  and  C_24
REMARK   24  A    between atoms: C_24  and  C_25
REMARK   25  A    between atoms: C_25  and  N_26
REMARK   26  A    between atoms: N_26  and  C_27
REMARK   27  A    between atoms: N_26  and  C_30
REMARK   28  A    between atoms: C_27  and  C_28
REMARK   29  A    between atoms: C_28  and  O_29
REMARK   30  A    between atoms: C_30  and  C_31
REMARK   31  A    between atoms: C_31  and  O_32
REMARK                            x       y       z     vdW  Elec       q    Type
REMARK                         _______ _______ _______ _____ _____    ______ ____
ROOT
ATOM      1  C   UNL     1       2.221   5.176  19.459  0.00  0.00    +0.000 C 
ENDROOT
BRANCH   1   2
ATOM      2  C   UNL     1       1.729   6.125  20.545  0.00  0.00    +0.000 C 
BRANCH   2   3
ATOM      3  C   UNL     1       1.886   7.586  20.149  0.00  0.00    +0.000 C 
BRANCH   3   4
ATOM      4  C   UNL     1       2.416   7.658  18.730  0.00  0.00    +0.000 C 
BRANCH   4   5
ATOM      5  C   UNL     1       1.535   8.534  17.864  0.00  0.00    +0.000 C 
BRANCH   5   6
ATOM      6  C   UNL     1       2.133   9.928  17.794  0.00  0.00    +0.000 C 
BRANCH   6   7
ATOM      7  C   UNL     1       1.345  10.867  18.683  0.00  0.00    +0.000 C 
BRANCH   7   8
ATOM      8  C   UNL     1      -0.126  10.501  18.659  0.00  0.00    +0.000 C 
BRANCH   8   9
ATOM      9  C   UNL     1      -0.644  10.421  20.083  0.00  0.00    +0.000 C 
BRANCH   9  10
ATOM     10  C   UNL     1      -1.245  11.747  20.502  0.00  0.00    +0.000 C 
BRANCH  10  11
ATOM     11  C   UNL     1      -0.325  12.438  21.494  0.00  0.00    +0.000 C 
BRANCH  11  12
ATOM     12  C   UNL     1      -1.102  12.833  22.738  0.00  0.00    +0.000 C 
BRANCH  12  13
ATOM     13  C   UNL     1      -1.993  11.686  23.187  0.00  0.00    +0.000 C 
BRANCH  13  14
ATOM     14  C   UNL     1      -3.321  12.225  23.699  0.00  0.00    +0.000 C 
BRANCH  14  15
ATOM     15  C   UNL     1      -3.878  13.276  22.748  0.00  0.00    +0.000 C 
BRANCH  15  16
ATOM     16  C   UNL     1      -4.319  14.514  23.521  0.00  0.00    +0.000 C 
BRANCH  16  18
ATOM     17  C   UNL     1      -6.435  15.855  23.663  0.00  0.00    +0.000 C 
ATOM     18  C   UNL     1      -5.816  14.475  23.810  0.00  0.00    +0.000 C 
ENDBRANCH  16  18
ENDBRANCH  15  16
ENDBRANCH  14  15
ENDBRANCH  13  14
ENDBRANCH  12  13
ENDBRANCH  11  12
ENDBRANCH  10  11
ENDBRANCH   9  10
ENDBRANCH   8   9
ENDBRANCH   7   8
ENDBRANCH   6   7
ENDBRANCH   5   6
ENDBRANCH   4   5
ENDBRANCH   3   4
ENDBRANCH   2   3
ENDBRANCH   1   2
BRANCH   1  19
ATOM     19  N   UNL     1       3.119   4.090  19.916  0.00  0.00    +0.000 NA
BRANCH  19  20
ATOM     20  C   UNL     1       4.283   3.991  19.005  0.00  0.00    +0.000 C 
BRANCH  20  21
ATOM     21  C   UNL     1       3.965   4.557  17.604  0.00  0.00    +0.000 C 
BRANCH  21  22
ATOM     22  C   UNL     1       4.831   3.969  16.491  0.00  0.00    +0.000 C 
BRANCH  22  23
ATOM     23  N   UNL     1       5.467   4.939  15.577  0.00  0.00    +0.000 NA
BRANCH  23  24
ATOM     24  C   UNL     1       6.693   4.347  14.992  0.00  0.00    +0.000 C 
BRANCH  24  25
ATOM     25  C   UNL     1       6.775   4.391  13.461  0.00  0.00    +0.000 C 
BRANCH  25  26
ATOM     26  O   UNL     1       6.302   3.181  12.890  0.00  0.00    +0.000 OA
ATOM     27  H   UNL     1       5.503   2.915  13.363  0.00  0.00    +0.000 HD
ENDBRANCH  25  26
ENDBRANCH  24  25
ENDBRANCH  23  24
BRANCH  23  28
ATOM     28  C   UNL     1       5.805   6.202  16.282  0.00  0.00    +0.000 C 
BRANCH  28  29
ATOM     29  C   UNL     1       7.114   6.189  17.080  0.00  0.00    +0.000 C 
BRANCH  29  30
ATOM     30  O   UNL     1       7.644   7.508  17.067  0.00  0.00    +0.000 OA
ATOM     31  H   UNL     1       8.402   7.546  17.676  0.00  0.00    +0.000 HD
ENDBRANCH  29  30
ENDBRANCH  28  29
ENDBRANCH  23  28
ENDBRANCH  22  23
ENDBRANCH  21  22
ENDBRANCH  20  21
ENDBRANCH  19  20
BRANCH  19  32
ATOM     32  C   UNL     1       2.358   2.811  19.997  0.00  0.00    +0.000 C 
BRANCH  32  33
ATOM     33  C   UNL     1       1.464   2.570  21.231  0.00  0.00    +0.000 C 
BRANCH  33  34
ATOM     34  O   UNL     1       2.069   3.146  22.398  0.00  0.00    +0.000 OA
ATOM     35  H   UNL     1       2.296   4.075  22.209  0.00  0.00    +0.000 HD
ENDBRANCH  33  34
ENDBRANCH  32  33
ENDBRANCH  19  32
ENDBRANCH   1  19
TORSDOF 30
ENDMDL
MODEL 7
REMARK VINA RESULT:      -4.8      2.568      5.568
REMARK  Name = 
REMARK  31 active torsions:
REMARK  status: ('A' for Active; 'I' for Inactive)
REMARK    1  A    between atoms: C_1  and  C_2
REMARK    2  A    between atoms: C_2  and  C_3
REMARK    3  A    between atoms: C_3  and  C_4
REMARK    4  A    between atoms: C_4  and  C_5
REMARK    5  A    between atoms: C_5  and  C_6
REMARK    6  A    between atoms: C_6  and  C_7
REMARK    7  A    between atoms: C_7  and  C_8
REMARK    8  A    between atoms: C_8  and  C_9
REMARK    9  A    between atoms: C_9  and  C_10
REMARK   10  A    between atoms: C_10  and  C_11
REMARK   11  A    between atoms: C_11  and  C_12
REMARK   12  A    between atoms: C_12  and  C_13
REMARK   13  A    between atoms: C_13  and  C_14
REMARK   14  A    between atoms: C_14  and  C_15
REMARK   15  A    between atoms: C_15  and  C_16
REMARK   16  A    between atoms: C_16  and  C_17
REMARK   17  A    between atoms: C_17  and  C_18
REMARK   18  A    between atoms: C_18  and  N_19
REMARK   19  A    between atoms: N_19  and  C_20
REMARK   20  A    between atoms: N_19  and  C_23
REMARK   21  A    between atoms: C_20  and  C_21
REMARK   22  A    between atoms: C_21  and  O_22
REMARK   23  A    between atoms: C_23  and  C_24
REMARK   24  A    between atoms: C_24  and  C_25
REMARK   25  A    between atoms: C_25  and  N_26
REMARK   26  A    between atoms: N_26  and  C_27
REMARK   27  A    between atoms: N_26  and  C_30
REMARK   28  A    between atoms: C_27  and  C_28
REMARK   29  A    between atoms: C_28  and  O_29
REMARK   30  A    between atoms: C_30  and  C_31
REMARK   31  A    between atoms: C_31  and  O_32
REMARK                            x       y       z     vdW  Elec       q    Type
REMARK                         _______ _______ _______ _____ _____    ______ ____
ROOT
ATOM      1  C   UNL     1       1.234   8.385  17.826  0.00  0.00    +0.000 C 
ENDROOT
BRANCH   1   2
ATOM      2  C   UNL     1       2.749   8.280  17.947  0.00  0.00    +0.000 C 
BRANCH   2   3
ATOM      3  C   UNL     1       3.179   7.133  18.850  0.00  0.00    +0.000 C 
BRANCH   3   4
ATOM      4  C   UNL     1       2.046   6.807  19.804  0.00  0.00    +0.000 C 
BRANCH   4   5
ATOM      5  C   UNL     1       2.264   5.463  20.466  0.00  0.00    +0.000 C 
BRANCH   5   6
ATOM      6  C   UNL     1       1.020   4.611  20.288  0.00  0.00    +0.000 C 
BRANCH   6   7
ATOM      7  C   UNL     1       1.271   3.220  20.836  0.00  0.00    +0.000 C 
BRANCH   7   8
ATOM      8  C   UNL     1       2.450   2.583  20.127  0.00  0.00    +0.000 C 
BRANCH   8   9
ATOM      9  C   UNL     1       2.194   2.587  18.632  0.00  0.00    +0.000 C 
BRANCH   9  10
ATOM     10  C   UNL     1       3.499   2.472  17.872  0.00  0.00    +0.000 C 
BRANCH  10  11
ATOM     11  C   UNL     1       3.983   3.855  17.468  0.00  0.00    +0.000 C 
BRANCH  11  12
ATOM     12  C   UNL     1       4.742   3.780  16.156  0.00  0.00    +0.000 C 
BRANCH  12  13
ATOM     13  C   UNL     1       5.977   4.666  16.211  0.00  0.00    +0.000 C 
BRANCH  13  14
ATOM     14  C   UNL     1       6.040   5.394  17.545  0.00  0.00    +0.000 C 
BRANCH  14  15
ATOM     15  C   UNL     1       7.423   5.260  18.167  0.00  0.00    +0.000 C 
BRANCH  15  16
ATOM     16  C   UNL     1       7.929   6.618  18.641  0.00  0.00    +0.000 C 
BRANCH  16  18
ATOM     17  C   UNL     1       8.271   9.021  18.009  0.00  0.00    +0.000 C 
ATOM     18  C   UNL     1       7.624   7.705  17.616  0.00  0.00    +0.000 C 
ENDBRANCH  16  18
ENDBRANCH  15  16
ENDBRANCH  14  15
ENDBRANCH  13  14
ENDBRANCH  12  13
ENDBRANCH  11  12
ENDBRANCH  10  11
ENDBRANCH   9  10
ENDBRANCH   8   9
ENDBRANCH   7   8
ENDBRANCH   6   7
ENDBRANCH   5   6
ENDBRANCH   4   5
ENDBRANCH   3   4
ENDBRANCH   2   3
ENDBRANCH   1   2
BRANCH   1  19
ATOM     19  N   UNL     1       0.681   9.759  17.872  0.00  0.00    +0.000 NA
BRANCH  19  20
ATOM     20  C   UNL     1       1.496  10.592  18.786  0.00  0.00    +0.000 C 
BRANCH  20  21
ATOM     21  C   UNL     1       0.861  10.695  20.189  0.00  0.00    +0.000 C 
BRANCH  21  22
ATOM     22  C   UNL     1       0.476  12.118  20.589  0.00  0.00    +0.000 C 
BRANCH  22  23
ATOM     23  N   UNL     1       0.004  12.302  21.976  0.00  0.00    +0.000 NA
BRANCH  23  24
ATOM     24  C   UNL     1      -1.098  11.354  22.261  0.00  0.00    +0.000 C 
BRANCH  24  25
ATOM     25  C   UNL     1      -0.819  10.343  23.381  0.00  0.00    +0.000 C 
BRANCH  25  26
ATOM     26  O   UNL     1      -0.817   9.015  22.881  0.00  0.00    +0.000 OA
ATOM     27  H   UNL     1       0.079   8.662  22.963  0.00  0.00    +0.000 HD
ENDBRANCH  25  26
ENDBRANCH  24  25
ENDBRANCH  23  24
BRANCH  23  28
ATOM     28  C   UNL     1      -0.458  13.694  22.209  0.00  0.00    +0.000 C 
BRANCH  28  29
ATOM     29  C   UNL     1      -1.209  13.936  23.523  0.00  0.00    +0.000 C 
BRANCH  29  30
ATOM     30  O   UNL     1      -2.489  14.461  23.202  0.00  0.00    +0.000 OA
ATOM     31  H   UNL     1      -2.747  14.141  22.320  0.00  0.00    +0.000 HD
ENDBRANCH  29  30
ENDBRANCH  28  29
ENDBRANCH  23  28
ENDBRANCH  22  23
ENDBRANCH  21  22
ENDBRANCH  20  21
ENDBRANCH  19  20
BRANCH  19  32
ATOM     32  C   UNL     1      -0.751   9.709  18.281  0.00  0.00    +0.000 C 
BRANCH  32  33
ATOM     33  C   UNL     1      -1.778  10.498  17.444  0.00  0.00    +0.000 C 
BRANCH  33  34
ATOM     34  O   UNL     1      -3.107  10.242  17.922  0.00  0.00    +0.000 OA
ATOM     35  H   UNL     1      -3.051   9.870  18.821  0.00  0.00    +0.000 HD
ENDBRANCH  33  34
ENDBRANCH  32  33
ENDBRANCH  19  32
ENDBRANCH   1  19
TORSDOF 30
ENDMDL
MODEL 8
REMARK VINA RESULT:      -4.8      3.412      9.347
REMARK  Name = 
REMARK  31 active torsions:
REMARK  status: ('A' for Active; 'I' for Inactive)
REMARK    1  A    between atoms: C_1  and  C_2
REMARK    2  A    between atoms: C_2  and  C_3
REMARK    3  A    between atoms: C_3  and  C_4
REMARK    4  A    between atoms: C_4  and  C_5
REMARK    5  A    between atoms: C_5  and  C_6
REMARK    6  A    between atoms: C_6  and  C_7
REMARK    7  A    between atoms: C_7  and  C_8
REMARK    8  A    between atoms: C_8  and  C_9
REMARK    9  A    between atoms: C_9  and  C_10
REMARK   10  A    between atoms: C_10  and  C_11
REMARK   11  A    between atoms: C_11  and  C_12
REMARK   12  A    between atoms: C_12  and  C_13
REMARK   13  A    between atoms: C_13  and  C_14
REMARK   14  A    between atoms: C_14  and  C_15
REMARK   15  A    between atoms: C_15  and  C_16
REMARK   16  A    between atoms: C_16  and  C_17
REMARK   17  A    between atoms: C_17  and  C_18
REMARK   18  A    between atoms: C_18  and  N_19
REMARK   19  A    between atoms: N_19  and  C_20
REMARK   20  A    between atoms: N_19  and  C_23
REMARK   21  A    between atoms: C_20  and  C_21
REMARK   22  A    between atoms: C_21  and  O_22
REMARK   23  A    between atoms: C_23  and  C_24
REMARK   24  A    between atoms: C_24  and  C_25
REMARK   25  A    between atoms: C_25  and  N_26
REMARK   26  A    between atoms: N_26  and  C_27
REMARK   27  A    between atoms: N_26  and  C_30
REMARK   28  A    between atoms: C_27  and  C_28
REMARK   29  A    between atoms: C_28  and  O_29
REMARK   30  A    between atoms: C_30  and  C_31
REMARK   31  A    between atoms: C_31  and  O_32
REMARK                            x       y       z     vdW  Elec       q    Type
REMARK                         _______ _______ _______ _____ _____    ______ ____
ROOT
ATOM      1  C   UNL     1       2.657   6.818  17.867  0.00  0.00    +0.000 C 
ENDROOT
BRANCH   1   2
ATOM      2  C   UNL     1       2.404   8.142  18.577  0.00  0.00    +0.000 C 
BRANCH   2   3
ATOM      3  C   UNL     1       1.373   8.997  17.855  0.00  0.00    +0.000 C 
BRANCH   3   4
ATOM      4  C   UNL     1       1.052  10.208  18.710  0.00  0.00    +0.000 C 
BRANCH   4   5
ATOM      5  C   UNL     1       1.073   9.854  20.182  0.00  0.00    +0.000 C 
BRANCH   5   6
ATOM      6  C   UNL     1      -0.354   9.716  20.682  0.00  0.00    +0.000 C 
BRANCH   6   7
ATOM      7  C   UNL     1      -0.365   8.954  21.992  0.00  0.00    +0.000 C 
BRANCH   7   8
ATOM      8  C   UNL     1      -0.512   9.915  23.155  0.00  0.00    +0.000 C 
BRANCH   8   9
ATOM      9  C   UNL     1      -0.968  11.265  22.633  0.00  0.00    +0.000 C 
BRANCH   9  10
ATOM     10  C   UNL     1      -2.271  11.673  23.289  0.00  0.00    +0.000 C 
BRANCH  10  11
ATOM     11  C   UNL     1      -3.068  12.556  22.344  0.00  0.00    +0.000 C 
BRANCH  11  12
ATOM     12  C   UNL     1      -2.467  12.507  20.951  0.00  0.00    +0.000 C 
BRANCH  12  13
ATOM     13  C   UNL     1      -3.341  13.277  19.974  0.00  0.00    +0.000 C 
BRANCH  13  14
ATOM     14  C   UNL     1      -4.626  12.508  19.704  0.00  0.00    +0.000 C 
BRANCH  14  15
ATOM     15  C   UNL     1      -4.350  11.284  18.841  0.00  0.00    +0.000 C 
BRANCH  15  16
ATOM     16  C   UNL     1      -4.094  11.697  17.396  0.00  0.00    +0.000 C 
BRANCH  16  18
ATOM     17  C   UNL     1      -2.426   9.836  17.616  0.00  0.00    +0.000 C 
ATOM     18  C   UNL     1      -2.778  11.121  16.886  0.00  0.00    +0.000 C 
ENDBRANCH  16  18
ENDBRANCH  15  16
ENDBRANCH  14  15
ENDBRANCH  13  14
ENDBRANCH  12  13
ENDBRANCH  11  12
ENDBRANCH  10  11
ENDBRANCH   9  10
ENDBRANCH   8   9
ENDBRANCH   7   8
ENDBRANCH   6   7
ENDBRANCH   5   6
ENDBRANCH   4   5
ENDBRANCH   3   4
ENDBRANCH   2   3
ENDBRANCH   1   2
BRANCH   1  19
ATOM     19  N   UNL     1       3.372   5.792  18.661  0.00  0.00    +0.000 NA
BRANCH  19  20
ATOM     20  C   UNL     1       3.210   4.466  18.020  0.00  0.00    +0.000 C 
BRANCH  20  21
ATOM     21  C   UNL     1       4.492   3.613  18.132  0.00  0.00    +0.000 C 
BRANCH  21  22
ATOM     22  C   UNL     1       5.780   4.436  18.151  0.00  0.00    +0.000 C 
BRANCH  22  23
ATOM     23  N   UNL     1       6.590   4.408  16.917  0.00  0.00    +0.000 NA
BRANCH  23  24
ATOM     24  C   UNL     1       6.942   5.791  16.516  0.00  0.00    +0.000 C 
BRANCH  24  25
ATOM     25  C   UNL     1       7.234   6.754  17.674  0.00  0.00    +0.000 C 
BRANCH  25  26
ATOM     26  O   UNL     1       7.619   8.031  17.191  0.00  0.00    +0.000 OA
ATOM     27  H   UNL     1       8.379   8.334  17.705  0.00  0.00    +0.000 HD
ENDBRANCH  25  26
ENDBRANCH  24  25
ENDBRANCH  23  24
BRANCH  23  28
ATOM     28  C   UNL     1       5.865   3.733  15.810  0.00  0.00    +0.000 C 
BRANCH  28  29
ATOM     29  C   UNL     1       6.406   3.998  14.401  0.00  0.00    +0.000 C 
BRANCH  29  30
ATOM     30  O   UNL     1       5.300   4.018  13.508  0.00  0.00    +0.000 OA
ATOM     31  H   UNL     1       4.795   3.192  13.617  0.00  0.00    +0.000 HD
ENDBRANCH  29  30
ENDBRANCH  28  29
ENDBRANCH  23  28
ENDBRANCH  22  23
ENDBRANCH  21  22
ENDBRANCH  20  21
ENDBRANCH  19  20
BRANCH  19  32
ATOM     32  C   UNL     1       2.870   5.804  20.065  0.00  0.00    +0.000 C 
BRANCH  32  33
ATOM     33  C   UNL     1       1.674   4.897  20.420  0.00  0.00    +0.000 C 
BRANCH  33  34
ATOM     34  O   UNL     1       2.067   3.922  21.397  0.00  0.00    +0.000 OA
ATOM     35  H   UNL     1       2.368   4.385  22.200  0.00  0.00    +0.000 HD
ENDBRANCH  33  34
ENDBRANCH  32  33
ENDBRANCH  19  32
ENDBRANCH   1  19
TORSDOF 30
ENDMDL
MODEL 9
REMARK VINA RESULT:      -4.8      2.433      5.853
REMARK  Name = 
REMARK  31 active torsions:
REMARK  status: ('A' for Active; 'I' for Inactive)
REMARK    1  A    between atoms: C_1  and  C_2
REMARK    2  A    between atoms: C_2  and  C_3
REMARK    3  A    between atoms: C_3  and  C_4
REMARK    4  A    between atoms: C_4  and  C_5
REMARK    5  A    between atoms: C_5  and  C_6
REMARK    6  A    between atoms: C_6  and  C_7
REMARK    7  A    between atoms: C_7  and  C_8
REMARK    8  A    between atoms: C_8  and  C_9
REMARK    9  A    between atoms: C_9  and  C_10
REMARK   10  A    between atoms: C_10  and  C_11
REMARK   11  A    between atoms: C_11  and  C_12
REMARK   12  A    between atoms: C_12  and  C_13
REMARK   13  A    between atoms: C_13  and  C_14
REMARK   14  A    between atoms: C_14  and  C_15
REMARK   15  A    between atoms: C_15  and  C_16
REMARK   16  A    between atoms: C_16  and  C_17
REMARK   17  A    between atoms: C_17  and  C_18
REMARK   18  A    between atoms: C_18  and  N_19
REMARK   19  A    between atoms: N_19  and  C_20
REMARK   20  A    between atoms: N_19  and  C_23
REMARK   21  A    between atoms: C_20  and  C_21
REMARK   22  A    between atoms: C_21  and  O_22
REMARK   23  A    between atoms: C_23  and  C_24
REMARK   24  A    between atoms: C_24  and  C_25
REMARK   25  A    between atoms: C_25  and  N_26
REMARK   26  A    between atoms: N_26  and  C_27
REMARK   27  A    between atoms: N_26  and  C_30
REMARK   28  A    between atoms: C_27  and  C_28
REMARK   29  A    between atoms: C_28  and  O_29
REMARK   30  A    between atoms: C_30  and  C_31
REMARK   31  A    between atoms: C_31  and  O_32
REMARK                            x       y       z     vdW  Elec       q    Type
REMARK                         _______ _______ _______ _____ _____    ______ ____
ROOT
ATOM      1  C   UNL     1       1.611   8.897  17.718  0.00  0.00    +0.000 C 
ENDROOT
BRANCH   1   2
ATOM      2  C   UNL     1       2.674   7.979  18.309  0.00  0.00    +0.000 C 
BRANCH   2   3
ATOM      3  C   UNL     1       3.666   7.494  17.263  0.00  0.00    +0.000 C 
BRANCH   3   4
ATOM      4  C   UNL     1       4.838   6.835  17.964  0.00  0.00    +0.000 C 
BRANCH   4   5
ATOM      5  C   UNL     1       6.127   7.071  17.204  0.00  0.00    +0.000 C 
BRANCH   5   6
ATOM      6  C   UNL     1       7.240   6.263  17.846  0.00  0.00    +0.000 C 
BRANCH   6   7
ATOM      7  C   UNL     1       7.181   4.832  17.351  0.00  0.00    +0.000 C 
BRANCH   7   8
ATOM      8  C   UNL     1       7.311   4.794  15.841  0.00  0.00    +0.000 C 
BRANCH   8   9
ATOM      9  C   UNL     1       6.134   4.033  15.259  0.00  0.00    +0.000 C 
BRANCH   9  10
ATOM     10  C   UNL     1       5.254   3.492  16.367  0.00  0.00    +0.000 C 
BRANCH  10  11
ATOM     11  C   UNL     1       3.827   3.976  16.173  0.00  0.00    +0.000 C 
BRANCH  11  12
ATOM     12  C   UNL     1       2.990   3.634  17.393  0.00  0.00    +0.000 C 
BRANCH  12  13
ATOM     13  C   UNL     1       3.606   2.462  18.141  0.00  0.00    +0.000 C 
BRANCH  13  14
ATOM     14  C   UNL     1       2.543   1.752  18.968  0.00  0.00    +0.000 C 
BRANCH  14  15
ATOM     15  C   UNL     1       1.233   2.529  18.943  0.00  0.00    +0.000 C 
BRANCH  15  16
ATOM     16  C   UNL     1       0.908   3.070  20.330  0.00  0.00    +0.000 C 
BRANCH  16  18
ATOM     17  C   UNL     1       2.422   5.026  20.748  0.00  0.00    +0.000 C 
ATOM     18  C   UNL     1       1.018   4.590  20.366  0.00  0.00    +0.000 C 
ENDBRANCH  16  18
ENDBRANCH  15  16
ENDBRANCH  14  15
ENDBRANCH  13  14
ENDBRANCH  12  13
ENDBRANCH  11  12
ENDBRANCH  10  11
ENDBRANCH   9  10
ENDBRANCH   8   9
ENDBRANCH   7   8
ENDBRANCH   6   7
ENDBRANCH   5   6
ENDBRANCH   4   5
ENDBRANCH   3   4
ENDBRANCH   2   3
ENDBRANCH   1   2
BRANCH   1  19
ATOM     19  N   UNL     1       1.167  10.009  18.591  0.00  0.00    +0.000 NA
BRANCH  19  20
ATOM     20  C   UNL     1      -0.258   9.820  18.949  0.00  0.00    +0.000 C 
BRANCH  20  21
ATOM     21  C   UNL     1      -1.002  11.167  19.075  0.00  0.00    +0.000 C 
BRANCH  21  22
ATOM     22  C   UNL     1      -1.334  11.556  20.515  0.00  0.00    +0.000 C 
BRANCH  22  23
ATOM     23  N   UNL     1      -0.188  11.909  21.376  0.00  0.00    +0.000 NA
BRANCH  23  24
ATOM     24  C   UNL     1       0.251  10.719  22.142  0.00  0.00    +0.000 C 
BRANCH  24  25
ATOM     25  C   UNL     1      -0.792  10.141  23.107  0.00  0.00    +0.000 C 
BRANCH  25  26
ATOM     26  O   UNL     1      -0.916   8.736  22.942  0.00  0.00    +0.000 OA
ATOM     27  H   UNL     1      -0.634   8.309  23.761  0.00  0.00    +0.000 HD
ENDBRANCH  25  26
ENDBRANCH  24  25
ENDBRANCH  23  24
BRANCH  23  28
ATOM     28  C   UNL     1      -0.536  13.009  22.312  0.00  0.00    +0.000 C 
BRANCH  28  29
ATOM     29  C   UNL     1       0.085  14.375  21.994  0.00  0.00    +0.000 C 
BRANCH  29  30
ATOM     30  O   UNL     1       1.494  14.256  22.141  0.00  0.00    +0.000 OA
ATOM     31  H   UNL     1       1.714  13.322  22.300  0.00  0.00    +0.000 HD
ENDBRANCH  29  30
ENDBRANCH  28  29
ENDBRANCH  23  28
ENDBRANCH  22  23
ENDBRANCH  21  22
ENDBRANCH  20  21
ENDBRANCH  19  20
BRANCH  19  32
ATOM     32  C   UNL     1       1.407  11.311  17.906  0.00  0.00    +0.000 C 
BRANCH  32  33
ATOM     33  C   UNL     1       2.513  12.233  18.459  0.00  0.00    +0.000 C 
BRANCH  33  34
ATOM     34  O   UNL     1       2.125  12.757  19.738  0.00  0.00    +0.000 OA
ATOM     35  H   UNL     1       2.176  13.730  19.708  0.00  0.00    +0.000 HD
ENDBRANCH  33  34
ENDBRANCH  32  33
ENDBRANCH  19  32
ENDBRANCH   1  19
TORSDOF 30
ENDMDL
