MODEL 1
REMARK VINA RESULT:      -7.3      0.000      0.000
REMARK  Name = 
REMARK  9 active torsions:
REMARK  status: ('A' for Active; 'I' for Inactive)
REMARK    1  A    between atoms: C_1  and  C_2
REMARK    2  A    between atoms: C_2  and  C_3
REMARK    3  A    between atoms: C_3  and  S_4
REMARK    4  A    between atoms: S_4  and  C_5
REMARK    5  A    between atoms: N_8  and  C_9
REMARK    6  A    between atoms: C_9  and  C_10
REMARK    7  A    between atoms: C_23  and  C_24
REMARK    8  A    between atoms: C_23  and  C_25
REMARK    9  A    between atoms: C_25  and  C_26
REMARK                            x       y       z     vdW  Elec       q    Type
REMARK                         _______ _______ _______ _____ _____    ______ ____
ROOT
ATOM      1  C   UNL     1       1.936   3.572  18.121  0.00  0.00    +0.000 A 
ATOM      2  N   UNL     1       1.887   4.831  18.612  0.00  0.00    +0.000 NA
ATOM      3  C   UNL     1       2.917   5.668  18.366  0.00  0.00    +0.000 A 
ATOM      4  N   UNL     1       2.959   6.971  18.845  0.00  0.00    +0.000 N 
ATOM      5  C   UNL     1       4.015   5.182  17.627  0.00  0.00    +0.000 A 
ATOM      6  C   UNL     1       5.281   5.761  17.268  0.00  0.00    +0.000 A 
ATOM      7  C   UNL     1       6.085   4.886  16.570  0.00  0.00    +0.000 A 
ATOM      8  S   UNL     1       5.344   3.370  16.354  0.00  0.00    +0.000 S 
ATOM      9  C   UNL     1       3.937   3.871  17.188  0.00  0.00    +0.000 A 
ATOM     10  N   UNL     1       2.919   3.025  17.392  0.00  0.00    +0.000 NA
ATOM     11  C   UNL     1       7.479   5.186  16.113  0.00  0.00    +0.000 C 
ATOM     12  O   UNL     1       7.739   6.602  16.234  0.00  0.00    +0.000 OA
ATOM     13  C   UNL     1       7.318   7.218  17.472  0.00  0.00    +0.000 C 
ATOM     14  C   UNL     1       7.999   6.560  18.689  0.00  0.00    +0.000 C 
ATOM     15  C   UNL     1       5.773   7.137  17.588  0.00  0.00    +0.000 C 
ATOM     16  H   UNL     1       2.796   7.634  18.090  0.00  0.00    +0.000 HD
ENDROOT
BRANCH  13  17
ATOM     17  C   UNL     1       7.697   8.721  17.406  0.00  0.00    +0.000 C 
ATOM     18  C   UNL     1       8.619   9.201  18.519  0.00  0.00    +0.000 C 
ENDBRANCH  13  17
BRANCH   1  19
ATOM     19  S   UNL     1       0.572   2.503  18.536  0.00  0.00    +0.000 S 
BRANCH  19  20
ATOM     20  C   UNL     1       0.441   2.890  20.318  0.00  0.00    +0.000 C 
BRANCH  20  22
ATOM     21  C   UNL     1       2.339   3.546  21.863  0.00  0.00    +0.000 C 
ATOM     22  C   UNL     1       1.707   2.430  21.041  0.00  0.00    +0.000 C 
ENDBRANCH  20  22
ENDBRANCH  19  20
ENDBRANCH   1  19
BRANCH   4  23
ATOM     23  C   UNL     1       2.223   7.347  20.043  0.00  0.00    +0.000 C 
BRANCH  23  24
ATOM     24  C   UNL     1       1.401   8.584  19.817  0.00  0.00    +0.000 A 
ATOM     25  C   UNL     1       0.513   9.312  20.592  0.00  0.00    +0.000 A 
ATOM     26  C   UNL     1       0.093  10.412  19.806  0.00  0.00    +0.000 A 
ATOM     27  C   UNL     1       0.754  10.300  18.602  0.00  0.00    +0.000 A 
ATOM     28  O   UNL     1       1.551   9.198  18.601  0.00  0.00    +0.000 OA
ENDBRANCH  23  24
ENDBRANCH   4  23
TORSDOF 6
ENDMDL
MODEL 2
REMARK VINA RESULT:      -6.5      7.126      9.523
REMARK  Name = 
REMARK  9 active torsions:
REMARK  status: ('A' for Active; 'I' for Inactive)
REMARK    1  A    between atoms: C_1  and  C_2
REMARK    2  A    between atoms: C_2  and  C_3
REMARK    3  A    between atoms: C_3  and  S_4
REMARK    4  A    between atoms: S_4  and  C_5
REMARK    5  A    between atoms: N_8  and  C_9
REMARK    6  A    between atoms: C_9  and  C_10
REMARK    7  A    between atoms: C_23  and  C_24
REMARK    8  A    between atoms: C_23  and  C_25
REMARK    9  A    between atoms: C_25  and  C_26
REMARK                            x       y       z     vdW  Elec       q    Type
REMARK                         _______ _______ _______ _____ _____    ______ ____
ROOT
ATOM      1  C   UNL     1       0.816  10.766  20.487  0.00  0.00    +0.000 A 
ATOM      2  N   UNL     1      -0.229  11.037  19.673  0.00  0.00    +0.000 NA
ATOM      3  C   UNL     1      -0.405  12.301  19.236  0.00  0.00    +0.000 A 
ATOM      4  N   UNL     1      -1.460  12.672  18.412  0.00  0.00    +0.000 N 
ATOM      5  C   UNL     1       0.497  13.294  19.669  0.00  0.00    +0.000 A 
ATOM      6  C   UNL     1       0.550  14.716  19.471  0.00  0.00    +0.000 A 
ATOM      7  C   UNL     1       1.603  15.305  20.138  0.00  0.00    +0.000 A 
ATOM      8  S   UNL     1       2.519  14.171  21.014  0.00  0.00    +0.000 S 
ATOM      9  C   UNL     1       1.521  12.880  20.505  0.00  0.00    +0.000 A 
ATOM     10  N   UNL     1       1.738  11.629  20.935  0.00  0.00    +0.000 NA
ATOM     11  C   UNL     1       1.880  16.776  20.166  0.00  0.00    +0.000 C 
ATOM     12  O   UNL     1       1.085  17.443  19.160  0.00  0.00    +0.000 OA
ATOM     13  C   UNL     1      -0.303  17.048  19.089  0.00  0.00    +0.000 C 
ATOM     14  C   UNL     1      -1.029  17.293  20.427  0.00  0.00    +0.000 C 
ATOM     15  C   UNL     1      -0.393  15.557  18.671  0.00  0.00    +0.000 C 
ATOM     16  H   UNL     1      -1.130  12.844  17.465  0.00  0.00    +0.000 HD
ENDROOT
BRANCH  13  17
ATOM     17  C   UNL     1      -0.975  17.882  17.966  0.00  0.00    +0.000 C 
ATOM     18  C   UNL     1      -0.045  18.308  16.838  0.00  0.00    +0.000 C 
ENDBRANCH  13  17
BRANCH   1  19
ATOM     19  S   UNL     1       0.953   9.089  21.076  0.00  0.00    +0.000 S 
BRANCH  19  20
ATOM     20  C   UNL     1      -0.578   9.014  22.073  0.00  0.00    +0.000 C 
BRANCH  20  22
ATOM     21  C   UNL     1      -1.411  11.164  23.123  0.00  0.00    +0.000 C 
ATOM     22  C   UNL     1      -0.469   9.975  23.258  0.00  0.00    +0.000 C 
ENDBRANCH  20  22
ENDBRANCH  19  20
ENDBRANCH   1  19
BRANCH   4  23
ATOM     23  C   UNL     1      -2.703  11.914  18.408  0.00  0.00    +0.000 C 
BRANCH  23  24
ATOM     24  C   UNL     1      -2.845  11.100  17.153  0.00  0.00    +0.000 A 
ATOM     25  C   UNL     1      -2.236   9.956  16.666  0.00  0.00    +0.000 A 
ATOM     26  C   UNL     1      -2.847   9.666  15.422  0.00  0.00    +0.000 A 
ATOM     27  C   UNL     1      -3.799  10.642  15.225  0.00  0.00    +0.000 A 
ATOM     28  O   UNL     1      -3.808  11.512  16.269  0.00  0.00    +0.000 OA
ENDBRANCH  23  24
ENDBRANCH   4  23
TORSDOF 6
ENDMDL
MODEL 3
REMARK VINA RESULT:      -6.3      7.768     11.133
REMARK  Name = 
REMARK  9 active torsions:
REMARK  status: ('A' for Active; 'I' for Inactive)
REMARK    1  A    between atoms: C_1  and  C_2
REMARK    2  A    between atoms: C_2  and  C_3
REMARK    3  A    between atoms: C_3  and  S_4
REMARK    4  A    between atoms: S_4  and  C_5
REMARK    5  A    between atoms: N_8  and  C_9
REMARK    6  A    between atoms: C_9  and  C_10
REMARK    7  A    between atoms: C_23  and  C_24
REMARK    8  A    between atoms: C_23  and  C_25
REMARK    9  A    between atoms: C_25  and  C_26
REMARK                            x       y       z     vdW  Elec       q    Type
REMARK                         _______ _______ _______ _____ _____    ______ ____
ROOT
ATOM      1  C   UNL     1      -3.418  13.676  22.943  0.00  0.00    +0.000 A 
ATOM      2  N   UNL     1      -2.218  13.459  22.357  0.00  0.00    +0.000 NA
ATOM      3  C   UNL     1      -2.185  13.014  21.084  0.00  0.00    +0.000 A 
ATOM      4  N   UNL     1      -0.999  12.748  20.411  0.00  0.00    +0.000 N 
ATOM      5  C   UNL     1      -3.407  12.767  20.426  0.00  0.00    +0.000 A 
ATOM      6  C   UNL     1      -3.726  12.222  19.136  0.00  0.00    +0.000 A 
ATOM      7  C   UNL     1      -5.085  12.111  18.927  0.00  0.00    +0.000 A 
ATOM      8  S   UNL     1      -5.981  12.640  20.273  0.00  0.00    +0.000 S 
ATOM      9  C   UNL     1      -4.562  13.027  21.144  0.00  0.00    +0.000 A 
ATOM     10  N   UNL     1      -4.629  13.495  22.398  0.00  0.00    +0.000 NA
ATOM     11  C   UNL     1      -5.717  11.526  17.703  0.00  0.00    +0.000 C 
ATOM     12  O   UNL     1      -4.725  11.383  16.661  0.00  0.00    +0.000 OA
ATOM     13  C   UNL     1      -3.458  10.818  17.068  0.00  0.00    +0.000 C 
ATOM     14  C   UNL     1      -3.637   9.411  17.673  0.00  0.00    +0.000 C 
ATOM     15  C   UNL     1      -2.768  11.774  18.077  0.00  0.00    +0.000 C 
ATOM     16  H   UNL     1      -0.816  13.467  19.714  0.00  0.00    +0.000 HD
ENDROOT
BRANCH  13  17
ATOM     17  C   UNL     1      -2.550  10.739  15.813  0.00  0.00    +0.000 C 
ATOM     18  C   UNL     1      -3.217  10.158  14.573  0.00  0.00    +0.000 C 
ENDBRANCH  13  17
BRANCH   1  19
ATOM     19  S   UNL     1      -3.389  14.205  24.644  0.00  0.00    +0.000 S 
BRANCH  19  20
ATOM     20  C   UNL     1      -1.706  14.919  24.690  0.00  0.00    +0.000 C 
BRANCH  20  22
ATOM     21  C   UNL     1      -3.016  17.042  25.133  0.00  0.00    +0.000 C 
ATOM     22  C   UNL     1      -1.737  16.265  25.416  0.00  0.00    +0.000 C 
ENDBRANCH  20  22
ENDBRANCH  19  20
ENDBRANCH   1  19
BRANCH   4  23
ATOM     23  C   UNL     1       0.211  12.404  21.143  0.00  0.00    +0.000 C 
BRANCH  23  24
ATOM     24  C   UNL     1       0.211  10.960  21.557  0.00  0.00    +0.000 A 
ATOM     25  C   UNL     1       0.273   9.756  20.875  0.00  0.00    +0.000 A 
ATOM     26  C   UNL     1       0.270   8.733  21.853  0.00  0.00    +0.000 A 
ATOM     27  C   UNL     1       0.217   9.368  23.075  0.00  0.00    +0.000 A 
ATOM     28  O   UNL     1       0.185  10.717  22.906  0.00  0.00    +0.000 OA
ENDBRANCH  23  24
ENDBRANCH   4  23
TORSDOF 6
ENDMDL
MODEL 4
REMARK VINA RESULT:      -6.1      6.162     10.859
REMARK  Name = 
REMARK  9 active torsions:
REMARK  status: ('A' for Active; 'I' for Inactive)
REMARK    1  A    between atoms: C_1  and  C_2
REMARK    2  A    between atoms: C_2  and  C_3
REMARK    3  A    between atoms: C_3  and  S_4
REMARK    4  A    between atoms: S_4  and  C_5
REMARK    5  A    between atoms: N_8  and  C_9
REMARK    6  A    between atoms: C_9  and  C_10
REMARK    7  A    between atoms: C_23  and  C_24
REMARK    8  A    between atoms: C_23  and  C_25
REMARK    9  A    between atoms: C_25  and  C_26
REMARK                            x       y       z     vdW  Elec       q    Type
REMARK                         _______ _______ _______ _____ _____    ______ ____
ROOT
ATOM      1  C   UNL     1      -3.192  10.494  16.003  0.00  0.00    +0.000 A 
ATOM      2  N   UNL     1      -2.244  10.391  16.962  0.00  0.00    +0.000 NA
ATOM      3  C   UNL     1      -2.488  10.919  18.180  0.00  0.00    +0.000 A 
ATOM      4  N   UNL     1      -1.566  10.876  19.218  0.00  0.00    +0.000 N 
ATOM      5  C   UNL     1      -3.715  11.581  18.392  0.00  0.00    +0.000 A 
ATOM      6  C   UNL     1      -4.248  12.311  19.509  0.00  0.00    +0.000 A 
ATOM      7  C   UNL     1      -5.493  12.844  19.249  0.00  0.00    +0.000 A 
ATOM      8  S   UNL     1      -6.022  12.490  17.671  0.00  0.00    +0.000 S 
ATOM      9  C   UNL     1      -4.594  11.617  17.322  0.00  0.00    +0.000 A 
ATOM     10  N   UNL     1      -4.393  11.079  16.112  0.00  0.00    +0.000 NA
ATOM     11  C   UNL     1      -6.271  13.700  20.199  0.00  0.00    +0.000 C 
ATOM     12  O   UNL     1      -5.680  13.631  21.516  0.00  0.00    +0.000 OA
ATOM     13  C   UNL     1      -4.241  13.750  21.569  0.00  0.00    +0.000 C 
ATOM     14  C   UNL     1      -3.762  15.085  20.964  0.00  0.00    +0.000 C 
ATOM     15  C   UNL     1      -3.597  12.544  20.836  0.00  0.00    +0.000 C 
ATOM     16  H   UNL     1      -1.854  10.201  19.923  0.00  0.00    +0.000 HD
ENDROOT
BRANCH  13  17
ATOM     17  C   UNL     1      -3.813  13.665  23.058  0.00  0.00    +0.000 C 
ATOM     18  C   UNL     1      -3.157  12.351  23.464  0.00  0.00    +0.000 C 
ENDBRANCH  13  17
BRANCH   1  19
ATOM     19  S   UNL     1      -2.779   9.829  14.402  0.00  0.00    +0.000 S 
BRANCH  19  20
ATOM     20  C   UNL     1      -4.417   9.979  13.603  0.00  0.00    +0.000 C 
BRANCH  20  22
ATOM     21  C   UNL     1      -5.563   9.401  11.419  0.00  0.00    +0.000 C 
ATOM     22  C   UNL     1      -4.266   9.836  12.088  0.00  0.00    +0.000 C 
ENDBRANCH  20  22
ENDBRANCH  19  20
ENDBRANCH   1  19
BRANCH   4  23
ATOM     23  C   UNL     1      -0.141  10.772  18.942  0.00  0.00    +0.000 C 
BRANCH  23  24
ATOM     24  C   UNL     1       0.507   9.712  19.787  0.00  0.00    +0.000 A 
ATOM     25  C   UNL     1       0.353   9.289  21.097  0.00  0.00    +0.000 A 
ATOM     26  C   UNL     1       1.246   8.206  21.284  0.00  0.00    +0.000 A 
ATOM     27  C   UNL     1       1.886   8.023  20.077  0.00  0.00    +0.000 A 
ATOM     28  O   UNL     1       1.442   8.928  19.164  0.00  0.00    +0.000 OA
ENDBRANCH  23  24
ENDBRANCH   4  23
TORSDOF 6
ENDMDL
MODEL 5
REMARK VINA RESULT:      -6.1      7.105     10.866
REMARK  Name = 
REMARK  9 active torsions:
REMARK  status: ('A' for Active; 'I' for Inactive)
REMARK    1  A    between atoms: C_1  and  C_2
REMARK    2  A    between atoms: C_2  and  C_3
REMARK    3  A    between atoms: C_3  and  S_4
REMARK    4  A    between atoms: S_4  and  C_5
REMARK    5  A    between atoms: N_8  and  C_9
REMARK    6  A    between atoms: C_9  and  C_10
REMARK    7  A    between atoms: C_23  and  C_24
REMARK    8  A    between atoms: C_23  and  C_25
REMARK    9  A    between atoms: C_25  and  C_26
REMARK                            x       y       z     vdW  Elec       q    Type
REMARK                         _______ _______ _______ _____ _____    ______ ____
ROOT
ATOM      1  C   UNL     1      -2.048  13.828  22.439  0.00  0.00    +0.000 A 
ATOM      2  N   UNL     1      -0.993  13.437  21.688  0.00  0.00    +0.000 NA
ATOM      3  C   UNL     1      -1.222  12.909  20.468  0.00  0.00    +0.000 A 
ATOM      4  N   UNL     1      -0.201  12.465  19.637  0.00  0.00    +0.000 N 
ATOM      5  C   UNL     1      -2.556  12.763  20.038  0.00  0.00    +0.000 A 
ATOM      6  C   UNL     1      -3.143  12.176  18.865  0.00  0.00    +0.000 A 
ATOM      7  C   UNL     1      -4.521  12.210  18.888  0.00  0.00    +0.000 A 
ATOM      8  S   UNL     1      -5.119  12.924  20.311  0.00  0.00    +0.000 S 
ATOM      9  C   UNL     1      -3.540  13.201  20.908  0.00  0.00    +0.000 A 
ATOM     10  N   UNL     1      -3.346  13.753  22.113  0.00  0.00    +0.000 NA
ATOM     11  C   UNL     1      -5.408  11.624  17.834  0.00  0.00    +0.000 C 
ATOM     12  O   UNL     1      -4.627  11.300  16.662  0.00  0.00    +0.000 OA
ATOM     13  C   UNL     1      -3.375  10.619  16.905  0.00  0.00    +0.000 C 
ATOM     14  C   UNL     1      -3.594   9.285  17.645  0.00  0.00    +0.000 C 
ATOM     15  C   UNL     1      -2.430  11.552  17.707  0.00  0.00    +0.000 C 
ATOM     16  H   UNL     1      -0.065  13.111  18.863  0.00  0.00    +0.000 HD
ENDROOT
BRANCH  13  17
ATOM     17  C   UNL     1      -2.705  10.355  15.531  0.00  0.00    +0.000 C 
ATOM     18  C   UNL     1      -3.673  10.115  14.380  0.00  0.00    +0.000 C 
ENDBRANCH  13  17
BRANCH   1  19
ATOM     19  S   UNL     1      -1.677  14.459  24.064  0.00  0.00    +0.000 S 
BRANCH  19  20
ATOM     20  C   UNL     1      -3.385  14.696  24.672  0.00  0.00    +0.000 C 
BRANCH  20  22
ATOM     21  C   UNL     1      -4.201  16.911  23.753  0.00  0.00    +0.000 C 
ATOM     22  C   UNL     1      -3.630  16.177  24.960  0.00  0.00    +0.000 C 
ENDBRANCH  20  22
ENDBRANCH  19  20
ENDBRANCH   1  19
BRANCH   4  23
ATOM     23  C   UNL     1       1.074  12.032  20.191  0.00  0.00    +0.000 C 
BRANCH  23  24
ATOM     24  C   UNL     1       0.993  10.630  20.724  0.00  0.00    +0.000 A 
ATOM     25  C   UNL     1       0.840   9.380  20.146  0.00  0.00    +0.000 A 
ATOM     26  C   UNL     1       0.878   8.436  21.200  0.00  0.00    +0.000 A 
ATOM     27  C   UNL     1       1.061   9.159  22.359  0.00  0.00    +0.000 A 
ATOM     28  O   UNL     1       1.136  10.488  22.080  0.00  0.00    +0.000 OA
ENDBRANCH  23  24
ENDBRANCH   4  23
TORSDOF 6
ENDMDL
MODEL 6
REMARK VINA RESULT:      -6.1      8.847     11.211
REMARK  Name = 
REMARK  9 active torsions:
REMARK  status: ('A' for Active; 'I' for Inactive)
REMARK    1  A    between atoms: C_1  and  C_2
REMARK    2  A    between atoms: C_2  and  C_3
REMARK    3  A    between atoms: C_3  and  S_4
REMARK    4  A    between atoms: S_4  and  C_5
REMARK    5  A    between atoms: N_8  and  C_9
REMARK    6  A    between atoms: C_9  and  C_10
REMARK    7  A    between atoms: C_23  and  C_24
REMARK    8  A    between atoms: C_23  and  C_25
REMARK    9  A    between atoms: C_25  and  C_26
REMARK                            x       y       z     vdW  Elec       q    Type
REMARK                         _______ _______ _______ _____ _____    ______ ____
ROOT
ATOM      1  C   UNL     1      -2.549  10.810  17.633  0.00  0.00    +0.000 A 
ATOM      2  N   UNL     1      -3.792  11.305  17.830  0.00  0.00    +0.000 NA
ATOM      3  C   UNL     1      -4.038  12.026  18.943  0.00  0.00    +0.000 A 
ATOM      4  N   UNL     1      -5.288  12.556  19.235  0.00  0.00    +0.000 N 
ATOM      5  C   UNL     1      -2.991  12.211  19.869  0.00  0.00    +0.000 A 
ATOM      6  C   UNL     1      -2.933  12.835  21.163  0.00  0.00    +0.000 A 
ATOM      7  C   UNL     1      -1.687  12.734  21.745  0.00  0.00    +0.000 A 
ATOM      8  S   UNL     1      -0.590  11.884  20.761  0.00  0.00    +0.000 S 
ATOM      9  C   UNL     1      -1.769  11.647  19.545  0.00  0.00    +0.000 A 
ATOM     10  N   UNL     1      -1.486  10.950  18.437  0.00  0.00    +0.000 NA
ATOM     11  C   UNL     1      -1.340  13.237  23.111  0.00  0.00    +0.000 C 
ATOM     12  O   UNL     1      -2.391  14.101  23.597  0.00  0.00    +0.000 OA
ATOM     13  C   UNL     1      -3.741  13.620  23.409  0.00  0.00    +0.000 C 
ATOM     14  C   UNL     1      -3.958  12.262  24.107  0.00  0.00    +0.000 C 
ATOM     15  C   UNL     1      -4.046  13.520  21.891  0.00  0.00    +0.000 C 
ATOM     16  H   UNL     1      -5.289  13.564  19.096  0.00  0.00    +0.000 HD
ENDROOT
BRANCH  13  17
ATOM     17  C   UNL     1      -4.708  14.678  24.004  0.00  0.00    +0.000 C 
ATOM     18  C   UNL     1      -5.222  15.710  23.009  0.00  0.00    +0.000 C 
ENDBRANCH  13  17
BRANCH   1  19
ATOM     19  S   UNL     1      -2.310   9.816  16.173  0.00  0.00    +0.000 S 
BRANCH  19  20
ATOM     20  C   UNL     1      -3.250  10.834  14.980  0.00  0.00    +0.000 C 
BRANCH  20  22
ATOM     21  C   UNL     1      -3.465   9.701  12.725  0.00  0.00    +0.000 C 
ATOM     22  C   UNL     1      -4.102   9.930  14.089  0.00  0.00    +0.000 C 
ENDBRANCH  20  22
ENDBRANCH  19  20
ENDBRANCH   1  19
BRANCH   4  23
ATOM     23  C   UNL     1      -6.498  11.950  18.698  0.00  0.00    +0.000 C 
BRANCH  23  24
ATOM     24  C   UNL     1      -6.980  10.823  19.566  0.00  0.00    +0.000 A 
ATOM     25  C   UNL     1      -7.714  10.748  20.738  0.00  0.00    +0.000 A 
ATOM     26  C   UNL     1      -7.868   9.373  21.036  0.00  0.00    +0.000 A 
ATOM     27  C   UNL     1      -7.230   8.687  20.027  0.00  0.00    +0.000 A 
ATOM     28  O   UNL     1      -6.692   9.556  19.130  0.00  0.00    +0.000 OA
ENDBRANCH  23  24
ENDBRANCH   4  23
TORSDOF 6
ENDMDL
MODEL 7
REMARK VINA RESULT:      -6.0      6.906     11.566
REMARK  Name = 
REMARK  9 active torsions:
REMARK  status: ('A' for Active; 'I' for Inactive)
REMARK    1  A    between atoms: C_1  and  C_2
REMARK    2  A    between atoms: C_2  and  C_3
REMARK    3  A    between atoms: C_3  and  S_4
REMARK    4  A    between atoms: S_4  and  C_5
REMARK    5  A    between atoms: N_8  and  C_9
REMARK    6  A    between atoms: C_9  and  C_10
REMARK    7  A    between atoms: C_23  and  C_24
REMARK    8  A    between atoms: C_23  and  C_25
REMARK    9  A    between atoms: C_25  and  C_26
REMARK                            x       y       z     vdW  Elec       q    Type
REMARK                         _______ _______ _______ _____ _____    ______ ____
ROOT
ATOM      1  C   UNL     1      -1.603  11.275  18.934  0.00  0.00    +0.000 A 
ATOM      2  N   UNL     1      -2.902  11.513  18.645  0.00  0.00    +0.000 NA
ATOM      3  C   UNL     1      -3.645  12.224  19.518  0.00  0.00    +0.000 A 
ATOM      4  N   UNL     1      -4.990  12.500  19.312  0.00  0.00    +0.000 N 
ATOM      5  C   UNL     1      -3.038  12.667  20.712  0.00  0.00    +0.000 A 
ATOM      6  C   UNL     1      -3.547  13.354  21.866  0.00  0.00    +0.000 A 
ATOM      7  C   UNL     1      -2.587  13.541  22.838  0.00  0.00    +0.000 A 
ATOM      8  S   UNL     1      -1.084  12.885  22.385  0.00  0.00    +0.000 S 
ATOM      9  C   UNL     1      -1.702  12.350  20.883  0.00  0.00    +0.000 A 
ATOM     10  N   UNL     1      -0.930  11.670  20.024  0.00  0.00    +0.000 NA
ATOM     11  C   UNL     1      -2.834  14.174  24.172  0.00  0.00    +0.000 C 
ATOM     12  O   UNL     1      -4.123  14.827  24.173  0.00  0.00    +0.000 OA
ATOM     13  C   UNL     1      -5.215  14.070  23.605  0.00  0.00    +0.000 C 
ATOM     14  C   UNL     1      -5.421  12.734  24.347  0.00  0.00    +0.000 C 
ATOM     15  C   UNL     1      -4.946  13.833  22.096  0.00  0.00    +0.000 C 
ATOM     16  H   UNL     1      -5.119  13.479  19.062  0.00  0.00    +0.000 HD
ENDROOT
BRANCH  13  17
ATOM     17  C   UNL     1      -6.498  14.936  23.714  0.00  0.00    +0.000 C 
ATOM     18  C   UNL     1      -7.805  14.169  23.561  0.00  0.00    +0.000 C 
ENDBRANCH  13  17
BRANCH   1  19
ATOM     19  S   UNL     1      -0.698  10.278  17.766  0.00  0.00    +0.000 S 
BRANCH  19  20
ATOM     20  C   UNL     1       0.919  10.239  18.620  0.00  0.00    +0.000 C 
BRANCH  20  22
ATOM     21  C   UNL     1       2.158   8.044  18.368  0.00  0.00    +0.000 C 
ATOM     22  C   UNL     1       1.920   9.434  17.792  0.00  0.00    +0.000 C 
ENDBRANCH  20  22
ENDBRANCH  19  20
ENDBRANCH   1  19
BRANCH   4  23
ATOM     23  C   UNL     1      -5.809  11.632  18.478  0.00  0.00    +0.000 C 
BRANCH  23  24
ATOM     24  C   UNL     1      -6.625  10.683  19.308  0.00  0.00    +0.000 A 
ATOM     25  C   UNL     1      -6.876   9.322  19.258  0.00  0.00    +0.000 A 
ATOM     26  C   UNL     1      -7.710   9.020  20.361  0.00  0.00    +0.000 A 
ATOM     27  C   UNL     1      -7.914  10.209  21.026  0.00  0.00    +0.000 A 
ATOM     28  O   UNL     1      -7.257  11.221  20.398  0.00  0.00    +0.000 OA
ENDBRANCH  23  24
ENDBRANCH   4  23
TORSDOF 6
ENDMDL
MODEL 8
REMARK VINA RESULT:      -6.0      5.740      9.301
REMARK  Name = 
REMARK  9 active torsions:
REMARK  status: ('A' for Active; 'I' for Inactive)
REMARK    1  A    between atoms: C_1  and  C_2
REMARK    2  A    between atoms: C_2  and  C_3
REMARK    3  A    between atoms: C_3  and  S_4
REMARK    4  A    between atoms: S_4  and  C_5
REMARK    5  A    between atoms: N_8  and  C_9
REMARK    6  A    between atoms: C_9  and  C_10
REMARK    7  A    between atoms: C_23  and  C_24
REMARK    8  A    between atoms: C_23  and  C_25
REMARK    9  A    between atoms: C_25  and  C_26
REMARK                            x       y       z     vdW  Elec       q    Type
REMARK                         _______ _______ _______ _____ _____    ______ ____
ROOT
ATOM      1  C   UNL     1       0.579  10.967  20.897  0.00  0.00    +0.000 A 
ATOM      2  N   UNL     1      -0.399  11.213  19.997  0.00  0.00    +0.000 NA
ATOM      3  C   UNL     1      -0.471  12.435  19.429  0.00  0.00    +0.000 A 
ATOM      4  N   UNL     1      -1.452  12.781  18.509  0.00  0.00    +0.000 N 
ATOM      5  C   UNL     1       0.464  13.414  19.821  0.00  0.00    +0.000 A 
ATOM      6  C   UNL     1       0.616  14.804  19.491  0.00  0.00    +0.000 A 
ATOM      7  C   UNL     1       1.663  15.398  20.163  0.00  0.00    +0.000 A 
ATOM      8  S   UNL     1       2.456  14.308  21.201  0.00  0.00    +0.000 S 
ATOM      9  C   UNL     1       1.410  13.029  20.756  0.00  0.00    +0.000 A 
ATOM     10  N   UNL     1       1.525  11.818  21.318  0.00  0.00    +0.000 NA
ATOM     11  C   UNL     1       2.029  16.846  20.066  0.00  0.00    +0.000 C 
ATOM     12  O   UNL     1       1.336  17.453  18.953  0.00  0.00    +0.000 OA
ATOM     13  C   UNL     1      -0.068  17.131  18.831  0.00  0.00    +0.000 C 
ATOM     14  C   UNL     1      -0.853  17.548  20.091  0.00  0.00    +0.000 C 
ATOM     15  C   UNL     1      -0.226  15.613  18.554  0.00  0.00    +0.000 C 
ATOM     16  H   UNL     1      -1.058  12.837  17.572  0.00  0.00    +0.000 HD
ENDROOT
BRANCH  13  17
ATOM     17  C   UNL     1      -0.621  17.885  17.593  0.00  0.00    +0.000 C 
ATOM     18  C   UNL     1       0.436  18.552  16.722  0.00  0.00    +0.000 C 
ENDBRANCH  13  17
BRANCH   1  19
ATOM     19  S   UNL     1       0.577   9.353  21.653  0.00  0.00    +0.000 S 
BRANCH  19  20
ATOM     20  C   UNL     1       1.504   8.439  20.369  0.00  0.00    +0.000 C 
BRANCH  20  22
ATOM     21  C   UNL     1       2.389   6.150  19.739  0.00  0.00    +0.000 C 
ATOM     22  C   UNL     1       1.556   6.954  20.729  0.00  0.00    +0.000 C 
ENDBRANCH  20  22
ENDBRANCH  19  20
ENDBRANCH   1  19
BRANCH   4  23
ATOM     23  C   UNL     1      -2.737  12.096  18.498  0.00  0.00    +0.000 C 
BRANCH  23  24
ATOM     24  C   UNL     1      -2.822  11.104  17.373  0.00  0.00    +0.000 A 
ATOM     25  C   UNL     1      -3.109   9.752  17.294  0.00  0.00    +0.000 A 
ATOM     26  C   UNL     1      -3.064   9.405  15.923  0.00  0.00    +0.000 A 
ATOM     27  C   UNL     1      -2.762  10.564  15.242  0.00  0.00    +0.000 A 
ATOM     28  O   UNL     1      -2.618  11.599  16.112  0.00  0.00    +0.000 OA
ENDBRANCH  23  24
ENDBRANCH   4  23
TORSDOF 6
ENDMDL
MODEL 9
REMARK VINA RESULT:      -6.0      6.439     11.393
REMARK  Name = 
REMARK  9 active torsions:
REMARK  status: ('A' for Active; 'I' for Inactive)
REMARK    1  A    between atoms: C_1  and  C_2
REMARK    2  A    between atoms: C_2  and  C_3
REMARK    3  A    between atoms: C_3  and  S_4
REMARK    4  A    between atoms: S_4  and  C_5
REMARK    5  A    between atoms: N_8  and  C_9
REMARK    6  A    between atoms: C_9  and  C_10
REMARK    7  A    between atoms: C_23  and  C_24
REMARK    8  A    between atoms: C_23  and  C_25
REMARK    9  A    between atoms: C_25  and  C_26
REMARK                            x       y       z     vdW  Elec       q    Type
REMARK                         _______ _______ _______ _____ _____    ______ ____
ROOT
ATOM      1  C   UNL     1      -0.976  10.924  22.454  0.00  0.00    +0.000 A 
ATOM      2  N   UNL     1      -0.992  11.401  21.189  0.00  0.00    +0.000 NA
ATOM      3  C   UNL     1      -1.932  12.305  20.844  0.00  0.00    +0.000 A 
ATOM      4  N   UNL     1      -2.034  12.835  19.565  0.00  0.00    +0.000 N 
ATOM      5  C   UNL     1      -2.878  12.694  21.816  0.00  0.00    +0.000 A 
ATOM      6  C   UNL     1      -4.034  13.546  21.763  0.00  0.00    +0.000 A 
ATOM      7  C   UNL     1      -4.708  13.599  22.964  0.00  0.00    +0.000 A 
ATOM      8  S   UNL     1      -3.978  12.623  24.150  0.00  0.00    +0.000 S 
ATOM      9  C   UNL     1      -2.749  12.125  23.071  0.00  0.00    +0.000 A 
ATOM     10  N   UNL     1      -1.811  11.246  23.451  0.00  0.00    +0.000 NA
ATOM     11  C   UNL     1      -5.978  14.357  23.199  0.00  0.00    +0.000 C 
ATOM     12  O   UNL     1      -6.221  15.257  22.094  0.00  0.00    +0.000 OA
ATOM     13  C   UNL     1      -6.034  14.701  20.773  0.00  0.00    +0.000 C 
ATOM     14  C   UNL     1      -6.956  13.488  20.536  0.00  0.00    +0.000 C 
ATOM     15  C   UNL     1      -4.544  14.314  20.584  0.00  0.00    +0.000 C 
ATOM     16  H   UNL     1      -1.711  13.799  19.551  0.00  0.00    +0.000 HD
ENDROOT
BRANCH  13  17
ATOM     17  C   UNL     1      -6.355  15.815  19.742  0.00  0.00    +0.000 C 
ATOM     18  C   UNL     1      -6.711  15.316  18.347  0.00  0.00    +0.000 C 
ENDBRANCH  13  17
BRANCH   1  19
ATOM     19  S   UNL     1       0.254   9.688  22.823  0.00  0.00    +0.000 S 
BRANCH  19  20
ATOM     20  C   UNL     1      -0.010   8.589  21.385  0.00  0.00    +0.000 C 
BRANCH  20  22
ATOM     21  C   UNL     1       1.242   9.287  19.296  0.00  0.00    +0.000 C 
ATOM     22  C   UNL     1       1.286   8.472  20.582  0.00  0.00    +0.000 C 
ENDBRANCH  20  22
ENDBRANCH  19  20
ENDBRANCH   1  19
BRANCH   4  23
ATOM     23  C   UNL     1      -1.537  12.097  18.412  0.00  0.00    +0.000 C 
BRANCH  23  24
ATOM     24  C   UNL     1      -2.662  11.614  17.541  0.00  0.00    +0.000 A 
ATOM     25  C   UNL     1      -4.039  11.559  17.679  0.00  0.00    +0.000 A 
ATOM     26  C   UNL     1      -4.548  11.021  16.473  0.00  0.00    +0.000 A 
ATOM     27  C   UNL     1      -3.457  10.787  15.665  0.00  0.00    +0.000 A 
ATOM     28  O   UNL     1      -2.311  11.147  16.302  0.00  0.00    +0.000 OA
ENDBRANCH  23  24
ENDBRANCH   4  23
TORSDOF 6
ENDMDL
