MODEL 1
REMARK VINA RESULT:      -8.3      0.000      0.000
REMARK  Name = 
REMARK  11 active torsions:
REMARK  status: ('A' for Active; 'I' for Inactive)
REMARK    1  A    between atoms: C_1  and  C_2
REMARK    2  A    between atoms: C_2  and  C_3
REMARK    3  A    between atoms: C_2  and  O_4
REMARK    4  A    between atoms: O_4  and  C_5
REMARK    5  A    between atoms: C_8  and  C_9
REMARK    6  A    between atoms: C_9  and  O_10
REMARK    7  A    between atoms: O_10  and  C_11
REMARK    8  A    between atoms: C_23  and  C_24
REMARK    9  A    between atoms: C_24  and  C_25
REMARK   10  A    between atoms: C_25  and  O_27
REMARK   11  A    between atoms: C_29  and  C_30
REMARK                            x       y       z     vdW  Elec       q    Type
REMARK                         _______ _______ _______ _____ _____    ______ ____
ROOT
ATOM      1  C   UNL     1       1.253   8.867  19.487  0.00  0.00    +0.000 A 
ATOM      2  C   UNL     1       1.891   9.148  18.278  0.00  0.00    +0.000 A 
ATOM      3  C   UNL     1       2.754   8.223  17.673  0.00  0.00    +0.000 A 
ATOM      4  C   UNL     1       2.963   7.008  18.338  0.00  0.00    +0.000 A 
ATOM      5  C   UNL     1       2.353   6.702  19.564  0.00  0.00    +0.000 A 
ATOM      6  C   UNL     1       1.494   7.658  20.142  0.00  0.00    +0.000 A 
ATOM      7  C   UNL     1       2.796   5.400  19.970  0.00  0.00    +0.000 A 
ATOM      8 CL   UNL     1       2.342   4.611  21.402  0.00  0.00    +0.000 Cl
ATOM      9  C   UNL     1       3.637   4.948  18.992  0.00  0.00    +0.000 A 
ATOM     10  N   UNL     1       3.724   5.926  18.041  0.00  0.00    +0.000 N 
ATOM     11  C   UNL     1       4.618   5.587  16.950  0.00  0.00    +0.000 C 
ATOM     12  C   UNL     1       4.767   4.070  17.128  0.00  0.00    +0.000 C 
ATOM     13  C   UNL     1       4.500   3.788  18.641  0.00  0.00    +0.000 C 
ENDROOT
BRANCH   1  14
ATOM     14  O   UNL     1       0.445   9.858  19.981  0.00  0.00    +0.000 OA
BRANCH  14  15
ATOM     15  C   UNL     1       0.344  11.033  19.170  0.00  0.00    +0.000 C 
BRANCH  15  19
ATOM     16  C   UNL     1      -3.699  11.315  17.627  0.00  0.00    +0.000 A 
ATOM     17  C   UNL     1      -3.376  11.852  18.882  0.00  0.00    +0.000 A 
ATOM     18  C   UNL     1      -2.076  11.765  19.395  0.00  0.00    +0.000 A 
ATOM     19  C   UNL     1      -1.067  11.141  18.650  0.00  0.00    +0.000 A 
ATOM     20  C   UNL     1      -1.386  10.620  17.393  0.00  0.00    +0.000 A 
ATOM     21  C   UNL     1      -2.677  10.739  16.860  0.00  0.00    +0.000 A 
BRANCH  21  22
ATOM     22  C   UNL     1      -2.830  10.305  15.507  0.00  0.00    +0.000 C 
ATOM     23  N   UNL     1      -2.911   9.972  14.399  0.00  0.00    +0.000 NA
ENDBRANCH  21  22
BRANCH  16  24
ATOM     24  O   UNL     1      -5.004  11.509  17.263  0.00  0.00    +0.000 OA
BRANCH  24  26
ATOM     25  C   UNL     1      -6.934  12.866  17.730  0.00  0.00    +0.000 C 
ATOM     26  C   UNL     1      -5.959  11.830  18.285  0.00  0.00    +0.000 C 
ATOM     27  C   UNL     1      -6.718  10.557  18.651  0.00  0.00    +0.000 C 
ENDBRANCH  24  26
ENDBRANCH  16  24
ENDBRANCH  15  19
ENDBRANCH  14  15
ENDBRANCH   1  14
BRANCH  13  28
ATOM     28  C   UNL     1       3.844   2.433  18.893  0.00  0.00    +0.000 C 
BRANCH  28  29
ATOM     29  C   UNL     1       2.450   2.369  18.315  0.00  0.00    +0.000 C 
ATOM     30  O   UNL     1       2.166   2.523  17.139  0.00  0.00    +0.000 OA
BRANCH  29  31
ATOM     31  O   UNL     1       1.511   2.115  19.255  0.00  0.00    +0.000 OA
ATOM     32  H   UNL     1       0.769   1.568  18.938  0.00  0.00    +0.000 HD
ENDBRANCH  29  31
ENDBRANCH  28  29
ENDBRANCH  13  28
TORSDOF 9
ENDMDL
MODEL 2
REMARK VINA RESULT:      -8.3      1.049      1.201
REMARK  Name = 
REMARK  11 active torsions:
REMARK  status: ('A' for Active; 'I' for Inactive)
REMARK    1  A    between atoms: C_1  and  C_2
REMARK    2  A    between atoms: C_2  and  C_3
REMARK    3  A    between atoms: C_2  and  O_4
REMARK    4  A    between atoms: O_4  and  C_5
REMARK    5  A    between atoms: C_8  and  C_9
REMARK    6  A    between atoms: C_9  and  O_10
REMARK    7  A    between atoms: O_10  and  C_11
REMARK    8  A    between atoms: C_23  and  C_24
REMARK    9  A    between atoms: C_24  and  C_25
REMARK   10  A    between atoms: C_25  and  O_27
REMARK   11  A    between atoms: C_29  and  C_30
REMARK                            x       y       z     vdW  Elec       q    Type
REMARK                         _______ _______ _______ _____ _____    ______ ____
ROOT
ATOM      1  C   UNL     1       1.206   9.402  19.420  0.00  0.00    +0.000 A 
ATOM      2  C   UNL     1       1.895   9.696  18.242  0.00  0.00    +0.000 A 
ATOM      3  C   UNL     1       2.724   8.751  17.624  0.00  0.00    +0.000 A 
ATOM      4  C   UNL     1       2.847   7.500  18.241  0.00  0.00    +0.000 A 
ATOM      5  C   UNL     1       2.185   7.178  19.436  0.00  0.00    +0.000 A 
ATOM      6  C   UNL     1       1.361   8.155  20.030  0.00  0.00    +0.000 A 
ATOM      7  C   UNL     1       2.545   5.838  19.798  0.00  0.00    +0.000 A 
ATOM      8 CL   UNL     1       2.005   5.016  21.181  0.00  0.00    +0.000 Cl
ATOM      9  C   UNL     1       3.389   5.382  18.825  0.00  0.00    +0.000 A 
ATOM     10  N   UNL     1       3.558   6.392  17.920  0.00  0.00    +0.000 N 
ATOM     11  C   UNL     1       4.465   6.049  16.841  0.00  0.00    +0.000 C 
ATOM     12  C   UNL     1       4.527   4.520  16.958  0.00  0.00    +0.000 C 
ATOM     13  C   UNL     1       4.200   4.191  18.450  0.00  0.00    +0.000 C 
ENDROOT
BRANCH   1  14
ATOM     14  O   UNL     1       0.438  10.414  19.934  0.00  0.00    +0.000 OA
BRANCH  14  15
ATOM     15  C   UNL     1       0.186  11.508  19.045  0.00  0.00    +0.000 C 
BRANCH  15  19
ATOM     16  C   UNL     1      -3.979  11.404  17.843  0.00  0.00    +0.000 A 
ATOM     17  C   UNL     1      -3.613  11.906  19.102  0.00  0.00    +0.000 A 
ATOM     18  C   UNL     1      -2.273  11.942  19.504  0.00  0.00    +0.000 A 
ATOM     19  C   UNL     1      -1.268  11.480  18.645  0.00  0.00    +0.000 A 
ATOM     20  C   UNL     1      -1.632  10.995  17.386  0.00  0.00    +0.000 A 
ATOM     21  C   UNL     1      -2.969  10.993  16.964  0.00  0.00    +0.000 A 
BRANCH  21  22
ATOM     22  C   UNL     1      -3.187  10.618  15.603  0.00  0.00    +0.000 C 
ATOM     23  N   UNL     1      -3.324  10.287  14.500  0.00  0.00    +0.000 NA
ENDBRANCH  21  22
BRANCH  16  24
ATOM     24  O   UNL     1      -5.324  11.466  17.596  0.00  0.00    +0.000 OA
BRANCH  24  26
ATOM     25  C   UNL     1      -6.496  13.445  16.895  0.00  0.00    +0.000 C 
ATOM     26  C   UNL     1      -6.060  12.596  18.087  0.00  0.00    +0.000 C 
ATOM     27  C   UNL     1      -7.292  12.082  18.827  0.00  0.00    +0.000 C 
ENDBRANCH  24  26
ENDBRANCH  16  24
ENDBRANCH  15  19
ENDBRANCH  14  15
ENDBRANCH   1  14
BRANCH  13  28
ATOM     28  C   UNL     1       3.464   2.865  18.625  0.00  0.00    +0.000 C 
BRANCH  28  29
ATOM     29  C   UNL     1       4.322   1.835  19.321  0.00  0.00    +0.000 C 
ATOM     30  O   UNL     1       4.882   1.991  20.393  0.00  0.00    +0.000 OA
BRANCH  29  31
ATOM     31  O   UNL     1       4.414   0.681  18.621  0.00  0.00    +0.000 OA
ATOM     32  H   UNL     1       5.031   0.721  17.867  0.00  0.00    +0.000 HD
ENDBRANCH  29  31
ENDBRANCH  28  29
ENDBRANCH  13  28
TORSDOF 9
ENDMDL
MODEL 3
REMARK VINA RESULT:      -8.0      2.262      2.833
REMARK  Name = 
REMARK  11 active torsions:
REMARK  status: ('A' for Active; 'I' for Inactive)
REMARK    1  A    between atoms: C_1  and  C_2
REMARK    2  A    between atoms: C_2  and  C_3
REMARK    3  A    between atoms: C_2  and  O_4
REMARK    4  A    between atoms: O_4  and  C_5
REMARK    5  A    between atoms: C_8  and  C_9
REMARK    6  A    between atoms: C_9  and  O_10
REMARK    7  A    between atoms: O_10  and  C_11
REMARK    8  A    between atoms: C_23  and  C_24
REMARK    9  A    between atoms: C_24  and  C_25
REMARK   10  A    between atoms: C_25  and  O_27
REMARK   11  A    between atoms: C_29  and  C_30
REMARK                            x       y       z     vdW  Elec       q    Type
REMARK                         _______ _______ _______ _____ _____    ______ ____
ROOT
ATOM      1  C   UNL     1       1.570   9.330  18.630  0.00  0.00    +0.000 A 
ATOM      2  C   UNL     1       1.173   8.632  19.772  0.00  0.00    +0.000 A 
ATOM      3  C   UNL     1       1.722   7.383  20.094  0.00  0.00    +0.000 A 
ATOM      4  C   UNL     1       2.677   6.854  19.217  0.00  0.00    +0.000 A 
ATOM      5  C   UNL     1       3.084   7.520  18.051  0.00  0.00    +0.000 A 
ATOM      6  C   UNL     1       2.508   8.773  17.760  0.00  0.00    +0.000 A 
ATOM      7  C   UNL     1       4.049   6.697  17.381  0.00  0.00    +0.000 A 
ATOM      8 CL   UNL     1       4.812   7.077  15.914  0.00  0.00    +0.000 Cl
ATOM      9  C   UNL     1       4.212   5.579  18.149  0.00  0.00    +0.000 A 
ATOM     10  N   UNL     1       3.380   5.695  19.227  0.00  0.00    +0.000 N 
ATOM     11  C   UNL     1       3.431   4.550  20.117  0.00  0.00    +0.000 C 
ATOM     12  C   UNL     1       4.731   3.867  19.673  0.00  0.00    +0.000 C 
ATOM     13  C   UNL     1       4.950   4.287  18.185  0.00  0.00    +0.000 C 
ENDROOT
BRANCH   1  14
ATOM     14  O   UNL     1       0.950  10.534  18.419  0.00  0.00    +0.000 OA
BRANCH  14  15
ATOM     15  C   UNL     1       0.002  10.923  19.419  0.00  0.00    +0.000 C 
BRANCH  15  19
ATOM     16  C   UNL     1      -3.845  11.440  17.486  0.00  0.00    +0.000 A 
ATOM     17  C   UNL     1      -3.616  11.959  18.770  0.00  0.00    +0.000 A 
ATOM     18  C   UNL     1      -2.381  11.797  19.407  0.00  0.00    +0.000 A 
ATOM     19  C   UNL     1      -1.342  11.113  18.763  0.00  0.00    +0.000 A 
ATOM     20  C   UNL     1      -1.565  10.610  17.479  0.00  0.00    +0.000 A 
ATOM     21  C   UNL     1      -2.789  10.803  16.822  0.00  0.00    +0.000 A 
BRANCH  21  22
ATOM     22  C   UNL     1      -2.833  10.376  15.459  0.00  0.00    +0.000 C 
ATOM     23  N   UNL     1      -2.910  10.054  14.347  0.00  0.00    +0.000 NA
ENDBRANCH  21  22
BRANCH  16  24
ATOM     24  O   UNL     1      -5.094  11.710  16.997  0.00  0.00    +0.000 OA
BRANCH  24  26
ATOM     25  C   UNL     1      -6.623  13.566  16.938  0.00  0.00    +0.000 C 
ATOM     26  C   UNL     1      -5.997  12.477  17.807  0.00  0.00    +0.000 C 
ATOM     27  C   UNL     1      -7.088  11.545  18.326  0.00  0.00    +0.000 C 
ENDBRANCH  24  26
ENDBRANCH  16  24
ENDBRANCH  15  19
ENDBRANCH  14  15
ENDBRANCH   1  14
BRANCH  13  28
ATOM     28  C   UNL     1       6.423   4.409  17.805  0.00  0.00    +0.000 C 
BRANCH  28  29
ATOM     29  C   UNL     1       7.140   5.429  18.658  0.00  0.00    +0.000 C 
ATOM     30  O   UNL     1       7.305   5.349  19.864  0.00  0.00    +0.000 OA
BRANCH  29  31
ATOM     31  O   UNL     1       7.600   6.475  17.935  0.00  0.00    +0.000 OA
ATOM     32  H   UNL     1       7.418   6.409  16.979  0.00  0.00    +0.000 HD
ENDBRANCH  29  31
ENDBRANCH  28  29
ENDBRANCH  13  28
TORSDOF 9
ENDMDL
MODEL 4
REMARK VINA RESULT:      -7.9      1.951      2.653
REMARK  Name = 
REMARK  11 active torsions:
REMARK  status: ('A' for Active; 'I' for Inactive)
REMARK    1  A    between atoms: C_1  and  C_2
REMARK    2  A    between atoms: C_2  and  C_3
REMARK    3  A    between atoms: C_2  and  O_4
REMARK    4  A    between atoms: O_4  and  C_5
REMARK    5  A    between atoms: C_8  and  C_9
REMARK    6  A    between atoms: C_9  and  O_10
REMARK    7  A    between atoms: O_10  and  C_11
REMARK    8  A    between atoms: C_23  and  C_24
REMARK    9  A    between atoms: C_24  and  C_25
REMARK   10  A    between atoms: C_25  and  O_27
REMARK   11  A    between atoms: C_29  and  C_30
REMARK                            x       y       z     vdW  Elec       q    Type
REMARK                         _______ _______ _______ _____ _____    ______ ____
ROOT
ATOM      1  C   UNL     1       1.280   8.564  19.738  0.00  0.00    +0.000 A 
ATOM      2  C   UNL     1       1.026   7.576  20.691  0.00  0.00    +0.000 A 
ATOM      3  C   UNL     1       1.689   6.342  20.660  0.00  0.00    +0.000 A 
ATOM      4  C   UNL     1       2.611   6.131  19.626  0.00  0.00    +0.000 A 
ATOM      5  C   UNL     1       2.875   7.095  18.642  0.00  0.00    +0.000 A 
ATOM      6  C   UNL     1       2.188   8.324  18.704  0.00  0.00    +0.000 A 
ATOM      7  C   UNL     1       3.844   6.552  17.734  0.00  0.00    +0.000 A 
ATOM      8 CL   UNL     1       4.461   7.345  16.366  0.00  0.00    +0.000 Cl
ATOM      9  C   UNL     1       4.149   5.300  18.189  0.00  0.00    +0.000 A 
ATOM     10  N   UNL     1       3.396   5.074  19.307  0.00  0.00    +0.000 N 
ATOM     11  C   UNL     1       3.601   3.756  19.880  0.00  0.00    +0.000 C 
ATOM     12  C   UNL     1       4.911   3.323  19.207  0.00  0.00    +0.000 C 
ATOM     13  C   UNL     1       4.981   4.111  17.860  0.00  0.00    +0.000 C 
ENDROOT
BRANCH   1  14
ATOM     14  O   UNL     1       0.558   9.721  19.869  0.00  0.00    +0.000 OA
BRANCH  14  15
ATOM     15  C   UNL     1       0.534  10.566  18.713  0.00  0.00    +0.000 C 
BRANCH  15  19
ATOM     16  C   UNL     1      -3.589  11.422  17.676  0.00  0.00    +0.000 A 
ATOM     17  C   UNL     1      -3.050  11.877  18.889  0.00  0.00    +0.000 A 
ATOM     18  C   UNL     1      -1.722  11.605  19.239  0.00  0.00    +0.000 A 
ATOM     19  C   UNL     1      -0.902  10.874  18.370  0.00  0.00    +0.000 A 
ATOM     20  C   UNL     1      -1.434  10.435  17.155  0.00  0.00    +0.000 A 
ATOM     21  C   UNL     1      -2.752  10.737  16.784  0.00  0.00    +0.000 A 
BRANCH  21  22
ATOM     22  C   UNL     1      -3.122  10.364  15.456  0.00  0.00    +0.000 C 
ATOM     23  N   UNL     1      -3.375  10.053  14.367  0.00  0.00    +0.000 NA
ENDBRANCH  21  22
BRANCH  16  24
ATOM     24  O   UNL     1      -4.890  11.797  17.476  0.00  0.00    +0.000 OA
BRANCH  24  26
ATOM     25  C   UNL     1      -6.659  13.096  18.457  0.00  0.00    +0.000 C 
ATOM     26  C   UNL     1      -5.764  11.870  18.611  0.00  0.00    +0.000 C 
ATOM     27  C   UNL     1      -6.624  10.608  18.638  0.00  0.00    +0.000 C 
ENDBRANCH  24  26
ENDBRANCH  16  24
ENDBRANCH  15  19
ENDBRANCH  14  15
ENDBRANCH   1  14
BRANCH  13  28
ATOM     28  C   UNL     1       6.408   4.455  17.439  0.00  0.00    +0.000 C 
BRANCH  28  29
ATOM     29  C   UNL     1       6.575   4.419  15.938  0.00  0.00    +0.000 C 
ATOM     30  O   UNL     1       6.081   3.588  15.193  0.00  0.00    +0.000 OA
BRANCH  29  31
ATOM     31  O   UNL     1       7.348   5.429  15.479  0.00  0.00    +0.000 OA
ATOM     32  H   UNL     1       8.285   5.189  15.357  0.00  0.00    +0.000 HD
ENDBRANCH  29  31
ENDBRANCH  28  29
ENDBRANCH  13  28
TORSDOF 9
ENDMDL
MODEL 5
REMARK VINA RESULT:      -7.9      3.342      9.863
REMARK  Name = 
REMARK  11 active torsions:
REMARK  status: ('A' for Active; 'I' for Inactive)
REMARK    1  A    between atoms: C_1  and  C_2
REMARK    2  A    between atoms: C_2  and  C_3
REMARK    3  A    between atoms: C_2  and  O_4
REMARK    4  A    between atoms: O_4  and  C_5
REMARK    5  A    between atoms: C_8  and  C_9
REMARK    6  A    between atoms: C_9  and  O_10
REMARK    7  A    between atoms: O_10  and  C_11
REMARK    8  A    between atoms: C_23  and  C_24
REMARK    9  A    between atoms: C_24  and  C_25
REMARK   10  A    between atoms: C_25  and  O_27
REMARK   11  A    between atoms: C_29  and  C_30
REMARK                            x       y       z     vdW  Elec       q    Type
REMARK                         _______ _______ _______ _____ _____    ______ ____
ROOT
ATOM      1  C   UNL     1       2.132   7.651  19.733  0.00  0.00    +0.000 A 
ATOM      2  C   UNL     1       2.029   8.238  18.471  0.00  0.00    +0.000 A 
ATOM      3  C   UNL     1       1.234   9.372  18.254  0.00  0.00    +0.000 A 
ATOM      4  C   UNL     1       0.535   9.888  19.353  0.00  0.00    +0.000 A 
ATOM      5  C   UNL     1       0.601   9.310  20.629  0.00  0.00    +0.000 A 
ATOM      6  C   UNL     1       1.409   8.170  20.808  0.00  0.00    +0.000 A 
ATOM      7  C   UNL     1      -0.244  10.069  21.506  0.00  0.00    +0.000 A 
ATOM      8 CL   UNL     1      -0.502   9.737  23.150  0.00  0.00    +0.000 Cl
ATOM      9  C   UNL     1      -0.780  11.078  20.758  0.00  0.00    +0.000 A 
ATOM     10  N   UNL     1      -0.308  10.941  19.482  0.00  0.00    +0.000 N 
ATOM     11  C   UNL     1      -0.829  11.939  18.567  0.00  0.00    +0.000 C 
ATOM     12  C   UNL     1      -1.378  12.995  19.537  0.00  0.00    +0.000 C 
ATOM     13  C   UNL     1      -1.717  12.231  20.856  0.00  0.00    +0.000 C 
ENDROOT
BRANCH   1  14
ATOM     14  O   UNL     1       2.929   6.539  19.812  0.00  0.00    +0.000 OA
BRANCH  14  15
ATOM     15  C   UNL     1       2.518   5.427  19.009  0.00  0.00    +0.000 C 
BRANCH  15  19
ATOM     16  C   UNL     1       5.722   4.530  16.228  0.00  0.00    +0.000 A 
ATOM     17  C   UNL     1       4.572   3.728  16.273  0.00  0.00    +0.000 A 
ATOM     18  C   UNL     1       3.532   4.003  17.168  0.00  0.00    +0.000 A 
ATOM     19  C   UNL     1       3.622   5.100  18.035  0.00  0.00    +0.000 A 
ATOM     20  C   UNL     1       4.761   5.907  17.980  0.00  0.00    +0.000 A 
ATOM     21  C   UNL     1       5.788   5.657  17.058  0.00  0.00    +0.000 A 
BRANCH  21  22
ATOM     22  C   UNL     1       6.819   6.644  16.999  0.00  0.00    +0.000 C 
ATOM     23  N   UNL     1       7.653   7.451  16.999  0.00  0.00    +0.000 NA
ENDBRANCH  21  22
BRANCH  16  24
ATOM     24  O   UNL     1       6.629   4.141  15.280  0.00  0.00    +0.000 OA
BRANCH  24  26
ATOM     25  C   UNL     1       7.851   5.247  13.529  0.00  0.00    +0.000 C 
ATOM     26  C   UNL     1       6.503   4.670  13.952  0.00  0.00    +0.000 C 
ATOM     27  C   UNL     1       6.116   3.529  13.015  0.00  0.00    +0.000 C 
ENDBRANCH  24  26
ENDBRANCH  16  24
ENDBRANCH  15  19
ENDBRANCH  14  15
ENDBRANCH   1  14
BRANCH  13  28
ATOM     28  C   UNL     1      -1.520  13.080  22.109  0.00  0.00    +0.000 C 
BRANCH  28  29
ATOM     29  C   UNL     1      -2.778  13.152  22.941  0.00  0.00    +0.000 C 
ATOM     30  O   UNL     1      -3.858  12.677  22.630  0.00  0.00    +0.000 OA
BRANCH  29  31
ATOM     31  O   UNL     1      -2.591  13.815  24.105  0.00  0.00    +0.000 OA
ATOM     32  H   UNL     1      -3.228  14.538  24.258  0.00  0.00    +0.000 HD
ENDBRANCH  29  31
ENDBRANCH  28  29
ENDBRANCH  13  28
TORSDOF 9
ENDMDL
MODEL 6
REMARK VINA RESULT:      -7.8      3.562      9.855
REMARK  Name = 
REMARK  11 active torsions:
REMARK  status: ('A' for Active; 'I' for Inactive)
REMARK    1  A    between atoms: C_1  and  C_2
REMARK    2  A    between atoms: C_2  and  C_3
REMARK    3  A    between atoms: C_2  and  O_4
REMARK    4  A    between atoms: O_4  and  C_5
REMARK    5  A    between atoms: C_8  and  C_9
REMARK    6  A    between atoms: C_9  and  O_10
REMARK    7  A    between atoms: O_10  and  C_11
REMARK    8  A    between atoms: C_23  and  C_24
REMARK    9  A    between atoms: C_24  and  C_25
REMARK   10  A    between atoms: C_25  and  O_27
REMARK   11  A    between atoms: C_29  and  C_30
REMARK                            x       y       z     vdW  Elec       q    Type
REMARK                         _______ _______ _______ _____ _____    ______ ____
ROOT
ATOM      1  C   UNL     1       2.246   7.531  19.724  0.00  0.00    +0.000 A 
ATOM      2  C   UNL     1       2.136   8.160  18.483  0.00  0.00    +0.000 A 
ATOM      3  C   UNL     1       1.377   9.328  18.320  0.00  0.00    +0.000 A 
ATOM      4  C   UNL     1       0.722   9.833  19.450  0.00  0.00    +0.000 A 
ATOM      5  C   UNL     1       0.797   9.214  20.706  0.00  0.00    +0.000 A 
ATOM      6  C   UNL     1       1.567   8.041  20.832  0.00  0.00    +0.000 A 
ATOM      7  C   UNL     1      -0.000   9.974  21.626  0.00  0.00    +0.000 A 
ATOM      8 CL   UNL     1      -0.233   9.601  23.265  0.00  0.00    +0.000 Cl
ATOM      9  C   UNL     1      -0.518  11.025  20.921  0.00  0.00    +0.000 A 
ATOM     10  N   UNL     1      -0.080  10.911  19.631  0.00  0.00    +0.000 N 
ATOM     11  C   UNL     1      -0.585  11.955  18.760  0.00  0.00    +0.000 C 
ATOM     12  C   UNL     1      -1.074  12.998  19.773  0.00  0.00    +0.000 C 
ATOM     13  C   UNL     1      -1.410  12.206  21.077  0.00  0.00    +0.000 C 
ENDROOT
BRANCH   1  14
ATOM     14  O   UNL     1       3.005   6.390  19.750  0.00  0.00    +0.000 OA
BRANCH  14  15
ATOM     15  C   UNL     1       2.566   5.338  18.884  0.00  0.00    +0.000 C 
BRANCH  15  19
ATOM     16  C   UNL     1       5.782   4.464  16.109  0.00  0.00    +0.000 A 
ATOM     17  C   UNL     1       4.624   3.672  16.131  0.00  0.00    +0.000 A 
ATOM     18  C   UNL     1       3.580   3.940  17.023  0.00  0.00    +0.000 A 
ATOM     19  C   UNL     1       3.674   5.019  17.912  0.00  0.00    +0.000 A 
ATOM     20  C   UNL     1       4.821   5.816  17.880  0.00  0.00    +0.000 A 
ATOM     21  C   UNL     1       5.852   5.574  16.961  0.00  0.00    +0.000 A 
BRANCH  21  22
ATOM     22  C   UNL     1       6.893   6.552  16.928  0.00  0.00    +0.000 C 
ATOM     23  N   UNL     1       7.715   7.369  16.865  0.00  0.00    +0.000 NA
ENDBRANCH  21  22
BRANCH  16  24
ATOM     24  O   UNL     1       6.692   4.084  15.160  0.00  0.00    +0.000 OA
BRANCH  24  26
ATOM     25  C   UNL     1       7.911   5.135  13.373  0.00  0.00    +0.000 C 
ATOM     26  C   UNL     1       6.554   4.605  13.831  0.00  0.00    +0.000 C 
ATOM     27  C   UNL     1       6.111   3.469  12.913  0.00  0.00    +0.000 C 
ENDBRANCH  24  26
ENDBRANCH  16  24
ENDBRANCH  15  19
ENDBRANCH  14  15
ENDBRANCH   1  14
BRANCH  13  28
ATOM     28  C   UNL     1      -1.154  13.008  22.350  0.00  0.00    +0.000 C 
BRANCH  28  29
ATOM     29  C   UNL     1      -0.091  14.062  22.145  0.00  0.00    +0.000 C 
ATOM     30  O   UNL     1       1.102  13.844  22.014  0.00  0.00    +0.000 OA
BRANCH  29  31
ATOM     31  O   UNL     1      -0.603  15.314  22.118  0.00  0.00    +0.000 OA
ATOM     32  H   UNL     1      -0.275  15.893  22.830  0.00  0.00    +0.000 HD
ENDBRANCH  29  31
ENDBRANCH  28  29
ENDBRANCH  13  28
TORSDOF 9
ENDMDL
MODEL 7
REMARK VINA RESULT:      -7.8      1.790      2.375
REMARK  Name = 
REMARK  11 active torsions:
REMARK  status: ('A' for Active; 'I' for Inactive)
REMARK    1  A    between atoms: C_1  and  C_2
REMARK    2  A    between atoms: C_2  and  C_3
REMARK    3  A    between atoms: C_2  and  O_4
REMARK    4  A    between atoms: O_4  and  C_5
REMARK    5  A    between atoms: C_8  and  C_9
REMARK    6  A    between atoms: C_9  and  O_10
REMARK    7  A    between atoms: O_10  and  C_11
REMARK    8  A    between atoms: C_23  and  C_24
REMARK    9  A    between atoms: C_24  and  C_25
REMARK   10  A    between atoms: C_25  and  O_27
REMARK   11  A    between atoms: C_29  and  C_30
REMARK                            x       y       z     vdW  Elec       q    Type
REMARK                         _______ _______ _______ _____ _____    ______ ____
ROOT
ATOM      1  C   UNL     1       1.352   8.734  19.687  0.00  0.00    +0.000 A 
ATOM      2  C   UNL     1       1.946   9.057  18.466  0.00  0.00    +0.000 A 
ATOM      3  C   UNL     1       2.766   8.146  17.787  0.00  0.00    +0.000 A 
ATOM      4  C   UNL     1       2.978   6.898  18.388  0.00  0.00    +0.000 A 
ATOM      5  C   UNL     1       2.412   6.549  19.623  0.00  0.00    +0.000 A 
ATOM      6  C   UNL     1       1.595   7.492  20.277  0.00  0.00    +0.000 A 
ATOM      7  C   UNL     1       2.846   5.222  19.953  0.00  0.00    +0.000 A 
ATOM      8 CL   UNL     1       2.435   4.377  21.366  0.00  0.00    +0.000 Cl
ATOM      9  C   UNL     1       3.638   4.801  18.922  0.00  0.00    +0.000 A 
ATOM     10  N   UNL     1       3.706   5.819  18.012  0.00  0.00    +0.000 N 
ATOM     11  C   UNL     1       4.549   5.513  16.872  0.00  0.00    +0.000 C 
ATOM     12  C   UNL     1       4.676   3.987  16.977  0.00  0.00    +0.000 C 
ATOM     13  C   UNL     1       4.465   3.642  18.485  0.00  0.00    +0.000 C 
ENDROOT
BRANCH   1  14
ATOM     14  O   UNL     1       0.584   9.715  20.257  0.00  0.00    +0.000 OA
BRANCH  14  15
ATOM     15  C   UNL     1       0.505  10.941  19.522  0.00  0.00    +0.000 C 
BRANCH  15  19
ATOM     16  C   UNL     1      -3.657  12.126  19.239  0.00  0.00    +0.000 A 
ATOM     17  C   UNL     1      -3.078  11.316  18.251  0.00  0.00    +0.000 A 
ATOM     18  C   UNL     1      -1.735  10.928  18.327  0.00  0.00    +0.000 A 
ATOM     19  C   UNL     1      -0.944  11.343  19.407  0.00  0.00    +0.000 A 
ATOM     20  C   UNL     1      -1.526  12.136  20.399  0.00  0.00    +0.000 A 
ATOM     21  C   UNL     1      -2.880  12.495  20.345  0.00  0.00    +0.000 A 
BRANCH  21  22
ATOM     22  C   UNL     1      -3.385  13.175  21.496  0.00  0.00    +0.000 C 
ATOM     23  N   UNL     1      -3.824  13.689  22.438  0.00  0.00    +0.000 NA
ENDBRANCH  21  22
BRANCH  16  24
ATOM     24  O   UNL     1      -4.984  12.389  19.029  0.00  0.00    +0.000 OA
BRANCH  24  26
ATOM     25  C   UNL     1      -6.697  10.787  18.500  0.00  0.00    +0.000 C 
ATOM     26  C   UNL     1      -5.646  11.739  17.934  0.00  0.00    +0.000 C 
ATOM     27  C   UNL     1      -6.327  12.806  17.082  0.00  0.00    +0.000 C 
ENDBRANCH  24  26
ENDBRANCH  16  24
ENDBRANCH  15  19
ENDBRANCH  14  15
ENDBRANCH   1  14
BRANCH  13  28
ATOM     28  C   UNL     1       3.793   2.289  18.704  0.00  0.00    +0.000 C 
BRANCH  28  29
ATOM     29  C   UNL     1       2.381   2.271  18.168  0.00  0.00    +0.000 C 
ATOM     30  O   UNL     1       2.033   2.702  17.081  0.00  0.00    +0.000 OA
BRANCH  29  31
ATOM     31  O   UNL     1       1.506   1.711  19.035  0.00  0.00    +0.000 OA
ATOM     32  H   UNL     1       1.167   2.327  19.711  0.00  0.00    +0.000 HD
ENDBRANCH  29  31
ENDBRANCH  28  29
ENDBRANCH  13  28
TORSDOF 9
ENDMDL
MODEL 8
REMARK VINA RESULT:      -7.5      3.757      4.722
REMARK  Name = 
REMARK  11 active torsions:
REMARK  status: ('A' for Active; 'I' for Inactive)
REMARK    1  A    between atoms: C_1  and  C_2
REMARK    2  A    between atoms: C_2  and  C_3
REMARK    3  A    between atoms: C_2  and  O_4
REMARK    4  A    between atoms: O_4  and  C_5
REMARK    5  A    between atoms: C_8  and  C_9
REMARK    6  A    between atoms: C_9  and  O_10
REMARK    7  A    between atoms: O_10  and  C_11
REMARK    8  A    between atoms: C_23  and  C_24
REMARK    9  A    between atoms: C_24  and  C_25
REMARK   10  A    between atoms: C_25  and  O_27
REMARK   11  A    between atoms: C_29  and  C_30
REMARK                            x       y       z     vdW  Elec       q    Type
REMARK                         _______ _______ _______ _____ _____    ______ ____
ROOT
ATOM      1  C   UNL     1       0.874   8.880  20.458  0.00  0.00    +0.000 A 
ATOM      2  C   UNL     1       1.418   9.430  19.296  0.00  0.00    +0.000 A 
ATOM      3  C   UNL     1       2.255   8.683  18.455  0.00  0.00    +0.000 A 
ATOM      4  C   UNL     1       2.536   7.364  18.833  0.00  0.00    +0.000 A 
ATOM      5  C   UNL     1       2.022   6.787  20.004  0.00  0.00    +0.000 A 
ATOM      6  C   UNL     1       1.186   7.570  20.826  0.00  0.00    +0.000 A 
ATOM      7  C   UNL     1       2.519   5.445  20.096  0.00  0.00    +0.000 A 
ATOM      8 CL   UNL     1       2.185   4.358  21.355  0.00  0.00    +0.000 Cl
ATOM      9  C   UNL     1       3.297   5.239  18.991  0.00  0.00    +0.000 A 
ATOM     10  N   UNL     1       3.296   6.396  18.265  0.00  0.00    +0.000 N 
ATOM     11  C   UNL     1       4.116   6.325  17.070  0.00  0.00    +0.000 C 
ATOM     12  C   UNL     1       4.310   4.810  16.915  0.00  0.00    +0.000 C 
ATOM     13  C   UNL     1       4.158   4.209  18.348  0.00  0.00    +0.000 C 
ENDROOT
BRANCH   1  14
ATOM     14  O   UNL     1       0.083   9.716  21.202  0.00  0.00    +0.000 OA
BRANCH  14  15
ATOM     15  C   UNL     1      -0.403  10.876  20.518  0.00  0.00    +0.000 C 
BRANCH  15  19
ATOM     16  C   UNL     1      -1.567  13.824  23.477  0.00  0.00    +0.000 A 
ATOM     17  C   UNL     1      -0.470  14.055  22.633  0.00  0.00    +0.000 A 
ATOM     18  C   UNL     1      -0.081  13.112  21.676  0.00  0.00    +0.000 A 
ATOM     19  C   UNL     1      -0.793  11.913  21.541  0.00  0.00    +0.000 A 
ATOM     20  C   UNL     1      -1.894  11.689  22.371  0.00  0.00    +0.000 A 
ATOM     21  C   UNL     1      -2.310  12.649  23.305  0.00  0.00    +0.000 A 
BRANCH  21  22
ATOM     22  C   UNL     1      -3.537  12.363  23.979  0.00  0.00    +0.000 C 
ATOM     23  N   UNL     1      -4.552  12.172  24.508  0.00  0.00    +0.000 NA
ENDBRANCH  21  22
BRANCH  16  24
ATOM     24  O   UNL     1      -1.830  14.857  24.336  0.00  0.00    +0.000 OA
BRANCH  24  26
ATOM     25  C   UNL     1      -3.870  16.031  24.827  0.00  0.00    +0.000 C 
ATOM     26  C   UNL     1      -2.674  15.925  23.884  0.00  0.00    +0.000 C 
ATOM     27  C   UNL     1      -1.872  17.223  23.927  0.00  0.00    +0.000 C 
ENDBRANCH  24  26
ENDBRANCH  16  24
ENDBRANCH  15  19
ENDBRANCH  14  15
ENDBRANCH   1  14
BRANCH  13  28
ATOM     28  C   UNL     1       3.549   2.809  18.351  0.00  0.00    +0.000 C 
BRANCH  28  29
ATOM     29  C   UNL     1       4.329   1.860  19.229  0.00  0.00    +0.000 C 
ATOM     30  O   UNL     1       4.821   2.141  20.310  0.00  0.00    +0.000 OA
BRANCH  29  31
ATOM     31  O   UNL     1       4.435   0.624  18.689  0.00  0.00    +0.000 OA
ATOM     32  H   UNL     1       4.719   0.621  17.756  0.00  0.00    +0.000 HD
ENDBRANCH  29  31
ENDBRANCH  28  29
ENDBRANCH  13  28
TORSDOF 9
ENDMDL
MODEL 9
REMARK VINA RESULT:      -7.5      2.040      2.635
REMARK  Name = 
REMARK  11 active torsions:
REMARK  status: ('A' for Active; 'I' for Inactive)
REMARK    1  A    between atoms: C_1  and  C_2
REMARK    2  A    between atoms: C_2  and  C_3
REMARK    3  A    between atoms: C_2  and  O_4
REMARK    4  A    between atoms: O_4  and  C_5
REMARK    5  A    between atoms: C_8  and  C_9
REMARK    6  A    between atoms: C_9  and  O_10
REMARK    7  A    between atoms: O_10  and  C_11
REMARK    8  A    between atoms: C_23  and  C_24
REMARK    9  A    between atoms: C_24  and  C_25
REMARK   10  A    between atoms: C_25  and  O_27
REMARK   11  A    between atoms: C_29  and  C_30
REMARK                            x       y       z     vdW  Elec       q    Type
REMARK                         _______ _______ _______ _____ _____    ______ ____
ROOT
ATOM      1  C   UNL     1       1.517   8.416  20.042  0.00  0.00    +0.000 A 
ATOM      2  C   UNL     1       1.222   7.325  20.862  0.00  0.00    +0.000 A 
ATOM      3  C   UNL     1       1.689   6.038  20.564  0.00  0.00    +0.000 A 
ATOM      4  C   UNL     1       2.455   5.884  19.401  0.00  0.00    +0.000 A 
ATOM      5  C   UNL     1       2.753   6.955  18.545  0.00  0.00    +0.000 A 
ATOM      6  C   UNL     1       2.264   8.234  18.877  0.00  0.00    +0.000 A 
ATOM      7  C   UNL     1       3.529   6.448  17.450  0.00  0.00    +0.000 A 
ATOM      8 CL   UNL     1       4.109   7.369  16.149  0.00  0.00    +0.000 Cl
ATOM      9  C   UNL     1       3.693   5.109  17.672  0.00  0.00    +0.000 A 
ATOM     10  N   UNL     1       3.037   4.801  18.831  0.00  0.00    +0.000 N 
ATOM     11  C   UNL     1       3.105   3.392  19.170  0.00  0.00    +0.000 C 
ATOM     12  C   UNL     1       4.258   2.911  18.279  0.00  0.00    +0.000 C 
ATOM     13  C   UNL     1       4.301   3.894  17.066  0.00  0.00    +0.000 C 
ENDROOT
BRANCH   1  14
ATOM     14  O   UNL     1       0.992   9.619  20.435  0.00  0.00    +0.000 OA
BRANCH  14  15
ATOM     15  C   UNL     1       0.997  10.647  19.439  0.00  0.00    +0.000 C 
BRANCH  15  19
ATOM     16  C   UNL     1      -3.092  11.452  18.237  0.00  0.00    +0.000 A 
ATOM     17  C   UNL     1      -2.583  11.982  19.432  0.00  0.00    +0.000 A 
ATOM     18  C   UNL     1      -1.267  11.728  19.835  0.00  0.00    +0.000 A 
ATOM     19  C   UNL     1      -0.428  10.938  19.037  0.00  0.00    +0.000 A 
ATOM     20  C   UNL     1      -0.930  10.423  17.840  0.00  0.00    +0.000 A 
ATOM     21  C   UNL     1      -2.236  10.707  17.414  0.00  0.00    +0.000 A 
BRANCH  21  22
ATOM     22  C   UNL     1      -2.572  10.250  16.103  0.00  0.00    +0.000 C 
ATOM     23  N   UNL     1      -2.807   9.849  15.040  0.00  0.00    +0.000 NA
ENDBRANCH  21  22
BRANCH  16  24
ATOM     24  O   UNL     1      -4.385  11.818  17.978  0.00  0.00    +0.000 OA
BRANCH  24  26
ATOM     25  C   UNL     1      -6.076  13.098  19.112  0.00  0.00    +0.000 C 
ATOM     26  C   UNL     1      -5.340  11.762  19.047  0.00  0.00    +0.000 C 
ATOM     27  C   UNL     1      -6.334  10.644  18.745  0.00  0.00    +0.000 C 
ENDBRANCH  24  26
ENDBRANCH  16  24
ENDBRANCH  15  19
ENDBRANCH  14  15
ENDBRANCH   1  14
BRANCH  13  28
ATOM     28  C   UNL     1       5.710   4.116  16.523  0.00  0.00    +0.000 C 
BRANCH  28  29
ATOM     29  C   UNL     1       6.575   4.875  17.501  0.00  0.00    +0.000 C 
ATOM     30  O   UNL     1       6.976   6.017  17.349  0.00  0.00    +0.000 OA
BRANCH  29  31
ATOM     31  O   UNL     1       6.875   4.146  18.600  0.00  0.00    +0.000 OA
ATOM     32  H   UNL     1       7.155   3.232  18.407  0.00  0.00    +0.000 HD
ENDBRANCH  29  31
ENDBRANCH  28  29
ENDBRANCH  13  28
TORSDOF 9
ENDMDL
