MODEL 1
REMARK VINA RESULT:      -7.4      0.000      0.000
REMARK  Name = 
REMARK  4 active torsions:
REMARK  status: ('A' for Active; 'I' for Inactive)
REMARK    1  A    between atoms: C_1  and  N_2
REMARK    2  A    between atoms: C_6  and  C_7
REMARK    3  A    between atoms: C_9  and  C_10
REMARK    4  A    between atoms: C_10  and  C_11
REMARK                            x       y       z     vdW  Elec       q    Type
REMARK                         _______ _______ _______ _____ _____    ______ ____
ROOT
ATOM      1  C   UNL     1       2.552   3.972  18.366  0.00  0.00    +0.000 A 
ATOM      2  C   UNL     1       3.345   4.869  17.690  0.00  0.00    +0.000 A 
ATOM      3  C   UNL     1       4.320   4.069  17.047  0.00  0.00    +0.000 A 
ATOM      4  N   UNL     1       4.153   2.773  17.349  0.00  0.00    +0.000 NA
ATOM      5  O   UNL     1       3.043   2.716  18.169  0.00  0.00    +0.000 OA
ENDROOT
BRANCH   1  11
ATOM      6  C   UNL     1       2.193   6.179  20.299  0.00  0.00    +0.000 C 
ATOM      7  N   UNL     1       1.493   4.914  20.445  0.00  0.00    +0.000 NA
ATOM      8  C   UNL     1       2.103   4.026  21.432  0.00  0.00    +0.000 C 
ATOM      9  C   UNL     1       1.452   2.676  21.159  0.00  0.00    +0.000 C 
ATOM     10  C   UNL     1       0.827   2.791  19.770  0.00  0.00    +0.000 C 
ATOM     11  C   UNL     1       1.328   4.125  19.212  0.00  0.00    +0.000 C 
ENDBRANCH   1  11
BRANCH   3  12
ATOM     12  C   UNL     1       5.459   4.514  16.201  0.00  0.00    +0.000 C 
BRANCH  12  13
ATOM     13  C   UNL     1       6.336   5.401  17.051  0.00  0.00    +0.000 A 
ATOM     14  C   UNL     1       7.061   4.876  18.133  0.00  0.00    +0.000 A 
ATOM     15  C   UNL     1       7.920   5.691  18.876  0.00  0.00    +0.000 A 
ATOM     16  C   UNL     1       8.066   7.039  18.543  0.00  0.00    +0.000 A 
ATOM     17  C   UNL     1       7.340   7.575  17.484  0.00  0.00    +0.000 A 
ATOM     18  C   UNL     1       6.473   6.765  16.747  0.00  0.00    +0.000 A 
ENDBRANCH  12  13
ENDBRANCH   3  12
TORSDOF 3
ENDMDL
MODEL 2
REMARK VINA RESULT:      -7.4      0.093      1.141
REMARK  Name = 
REMARK  4 active torsions:
REMARK  status: ('A' for Active; 'I' for Inactive)
REMARK    1  A    between atoms: C_1  and  N_2
REMARK    2  A    between atoms: C_6  and  C_7
REMARK    3  A    between atoms: C_9  and  C_10
REMARK    4  A    between atoms: C_10  and  C_11
REMARK                            x       y       z     vdW  Elec       q    Type
REMARK                         _______ _______ _______ _____ _____    ______ ____
ROOT
ATOM      1  C   UNL     1       2.537   4.003  18.337  0.00  0.00    +0.000 A 
ATOM      2  C   UNL     1       3.280   4.900  17.606  0.00  0.00    +0.000 A 
ATOM      3  C   UNL     1       4.271   4.110  16.974  0.00  0.00    +0.000 A 
ATOM      4  N   UNL     1       4.162   2.823  17.335  0.00  0.00    +0.000 NA
ATOM      5  O   UNL     1       3.072   2.760  18.182  0.00  0.00    +0.000 OA
ENDROOT
BRANCH   1  11
ATOM      6  C   UNL     1       2.201   6.198  20.288  0.00  0.00    +0.000 C 
ATOM      7  N   UNL     1       1.508   4.930  20.438  0.00  0.00    +0.000 NA
ATOM      8  C   UNL     1       2.137   4.039  21.410  0.00  0.00    +0.000 C 
ATOM      9  C   UNL     1       1.488   2.688  21.140  0.00  0.00    +0.000 C 
ATOM     10  C   UNL     1       0.839   2.809  19.761  0.00  0.00    +0.000 C 
ATOM     11  C   UNL     1       1.326   4.147  19.203  0.00  0.00    +0.000 C 
ENDBRANCH   1  11
BRANCH   3  12
ATOM     12  C   UNL     1       5.375   4.560  16.085  0.00  0.00    +0.000 C 
BRANCH  12  13
ATOM     13  C   UNL     1       6.325   5.382  16.921  0.00  0.00    +0.000 A 
ATOM     14  C   UNL     1       6.511   6.751  16.668  0.00  0.00    +0.000 A 
ATOM     15  C   UNL     1       7.344   7.519  17.487  0.00  0.00    +0.000 A 
ATOM     16  C   UNL     1       7.997   6.928  18.569  0.00  0.00    +0.000 A 
ATOM     17  C   UNL     1       7.834   5.569  18.822  0.00  0.00    +0.000 A 
ATOM     18  C   UNL     1       7.011   4.797  17.998  0.00  0.00    +0.000 A 
ENDBRANCH  12  13
ENDBRANCH   3  12
TORSDOF 3
ENDMDL
MODEL 3
REMARK VINA RESULT:      -7.0      1.981      6.105
REMARK  Name = 
REMARK  4 active torsions:
REMARK  status: ('A' for Active; 'I' for Inactive)
REMARK    1  A    between atoms: C_1  and  N_2
REMARK    2  A    between atoms: C_6  and  C_7
REMARK    3  A    between atoms: C_9  and  C_10
REMARK    4  A    between atoms: C_10  and  C_11
REMARK                            x       y       z     vdW  Elec       q    Type
REMARK                         _______ _______ _______ _____ _____    ______ ____
ROOT
ATOM      1  C   UNL     1       4.902   6.688  17.655  0.00  0.00    +0.000 A 
ATOM      2  C   UNL     1       4.405   6.058  18.771  0.00  0.00    +0.000 A 
ATOM      3  C   UNL     1       3.077   6.534  18.888  0.00  0.00    +0.000 A 
ATOM      4  N   UNL     1       2.801   7.430  17.928  0.00  0.00    +0.000 NA
ATOM      5  O   UNL     1       3.943   7.518  17.156  0.00  0.00    +0.000 OA
ENDROOT
BRANCH   1  11
ATOM      6  C   UNL     1       5.385   4.929  15.330  0.00  0.00    +0.000 C 
ATOM      7  N   UNL     1       6.470   5.384  16.182  0.00  0.00    +0.000 NA
ATOM      8  C   UNL     1       6.906   4.379  17.149  0.00  0.00    +0.000 C 
ATOM      9  C   UNL     1       7.756   5.168  18.137  0.00  0.00    +0.000 C 
ATOM     10  C   UNL     1       7.407   6.637  17.902  0.00  0.00    +0.000 C 
ATOM     11  C   UNL     1       6.216   6.619  16.943  0.00  0.00    +0.000 C 
ENDBRANCH   1  11
BRANCH   3  12
ATOM     12  C   UNL     1       2.075   6.212  19.939  0.00  0.00    +0.000 C 
BRANCH  12  13
ATOM     13  C   UNL     1       1.812   4.727  19.874  0.00  0.00    +0.000 A 
ATOM     14  C   UNL     1       1.851   3.935  21.033  0.00  0.00    +0.000 A 
ATOM     15  C   UNL     1       1.543   2.573  20.976  0.00  0.00    +0.000 A 
ATOM     16  C   UNL     1       1.189   1.989  19.759  0.00  0.00    +0.000 A 
ATOM     17  C   UNL     1       1.162   2.759  18.599  0.00  0.00    +0.000 A 
ATOM     18  C   UNL     1       1.481   4.118  18.654  0.00  0.00    +0.000 A 
ENDBRANCH  12  13
ENDBRANCH   3  12
TORSDOF 3
ENDMDL
MODEL 4
REMARK VINA RESULT:      -7.0      1.917      6.000
REMARK  Name = 
REMARK  4 active torsions:
REMARK  status: ('A' for Active; 'I' for Inactive)
REMARK    1  A    between atoms: C_1  and  N_2
REMARK    2  A    between atoms: C_6  and  C_7
REMARK    3  A    between atoms: C_9  and  C_10
REMARK    4  A    between atoms: C_10  and  C_11
REMARK                            x       y       z     vdW  Elec       q    Type
REMARK                         _______ _______ _______ _____ _____    ______ ____
ROOT
ATOM      1  C   UNL     1       4.967   6.027  17.123  0.00  0.00    +0.000 A 
ATOM      2  C   UNL     1       4.225   4.870  17.142  0.00  0.00    +0.000 A 
ATOM      3  C   UNL     1       2.956   5.268  17.629  0.00  0.00    +0.000 A 
ATOM      4  N   UNL     1       2.945   6.576  17.928  0.00  0.00    +0.000 NA
ATOM      5  O   UNL     1       4.202   7.047  17.603  0.00  0.00    +0.000 OA
ENDROOT
BRANCH   1  11
ATOM      6  C   UNL     1       6.634   4.136  15.580  0.00  0.00    +0.000 C 
ATOM      7  N   UNL     1       7.224   5.173  16.409  0.00  0.00    +0.000 NA
ATOM      8  C   UNL     1       7.698   4.681  17.700  0.00  0.00    +0.000 C 
ATOM      9  C   UNL     1       7.925   5.949  18.513  0.00  0.00    +0.000 C 
ATOM     10  C   UNL     1       7.171   7.054  17.775  0.00  0.00    +0.000 C 
ATOM     11  C   UNL     1       6.365   6.336  16.691  0.00  0.00    +0.000 C 
ENDBRANCH   1  11
BRANCH   3  12
ATOM     12  C   UNL     1       1.764   4.417  17.889  0.00  0.00    +0.000 C 
BRANCH  12  13
ATOM     13  C   UNL     1       1.961   3.758  19.232  0.00  0.00    +0.000 A 
ATOM     14  C   UNL     1       0.918   3.705  20.171  0.00  0.00    +0.000 A 
ATOM     15  C   UNL     1       1.087   3.038  21.387  0.00  0.00    +0.000 A 
ATOM     16  C   UNL     1       2.301   2.412  21.676  0.00  0.00    +0.000 A 
ATOM     17  C   UNL     1       3.349   2.470  20.762  0.00  0.00    +0.000 A 
ATOM     18  C   UNL     1       3.184   3.147  19.551  0.00  0.00    +0.000 A 
ENDBRANCH  12  13
ENDBRANCH   3  12
TORSDOF 3
ENDMDL
MODEL 5
REMARK VINA RESULT:      -6.9      1.866      6.121
REMARK  Name = 
REMARK  4 active torsions:
REMARK  status: ('A' for Active; 'I' for Inactive)
REMARK    1  A    between atoms: C_1  and  N_2
REMARK    2  A    between atoms: C_6  and  C_7
REMARK    3  A    between atoms: C_9  and  C_10
REMARK    4  A    between atoms: C_10  and  C_11
REMARK                            x       y       z     vdW  Elec       q    Type
REMARK                         _______ _______ _______ _____ _____    ______ ____
ROOT
ATOM      1  C   UNL     1       4.474   6.636  17.689  0.00  0.00    +0.000 A 
ATOM      2  C   UNL     1       4.041   6.010  18.833  0.00  0.00    +0.000 A 
ATOM      3  C   UNL     1       2.780   6.595  19.104  0.00  0.00    +0.000 A 
ATOM      4  N   UNL     1       2.488   7.545  18.204  0.00  0.00    +0.000 NA
ATOM      5  O   UNL     1       3.548   7.563  17.318  0.00  0.00    +0.000 OA
ENDROOT
BRANCH   1  11
ATOM      6  C   UNL     1       5.099   4.160  16.200  0.00  0.00    +0.000 C 
ATOM      7  N   UNL     1       6.137   5.096  16.596  0.00  0.00    +0.000 NA
ATOM      8  C   UNL     1       6.872   4.675  17.786  0.00  0.00    +0.000 C 
ATOM      9  C   UNL     1       7.623   5.929  18.214  0.00  0.00    +0.000 C 
ATOM     10  C   UNL     1       6.943   7.087  17.485  0.00  0.00    +0.000 C 
ATOM     11  C   UNL     1       5.696   6.480  16.840  0.00  0.00    +0.000 C 
ENDBRANCH   1  11
BRANCH   3  12
ATOM     12  C   UNL     1       1.867   6.321  20.246  0.00  0.00    +0.000 C 
BRANCH  12  13
ATOM     13  C   UNL     1       1.709   4.824  20.352  0.00  0.00    +0.000 A 
ATOM     14  C   UNL     1       1.070   4.091  19.340  0.00  0.00    +0.000 A 
ATOM     15  C   UNL     1       0.984   2.698  19.414  0.00  0.00    +0.000 A 
ATOM     16  C   UNL     1       1.540   2.022  20.501  0.00  0.00    +0.000 A 
ATOM     17  C   UNL     1       2.163   2.737  21.520  0.00  0.00    +0.000 A 
ATOM     18  C   UNL     1       2.239   4.131  21.452  0.00  0.00    +0.000 A 
ENDBRANCH  12  13
ENDBRANCH   3  12
TORSDOF 3
ENDMDL
MODEL 6
REMARK VINA RESULT:      -6.9      2.027      5.959
REMARK  Name = 
REMARK  4 active torsions:
REMARK  status: ('A' for Active; 'I' for Inactive)
REMARK    1  A    between atoms: C_1  and  N_2
REMARK    2  A    between atoms: C_6  and  C_7
REMARK    3  A    between atoms: C_9  and  C_10
REMARK    4  A    between atoms: C_10  and  C_11
REMARK                            x       y       z     vdW  Elec       q    Type
REMARK                         _______ _______ _______ _____ _____    ______ ____
ROOT
ATOM      1  C   UNL     1       4.971   6.400  17.297  0.00  0.00    +0.000 A 
ATOM      2  C   UNL     1       4.163   5.289  17.344  0.00  0.00    +0.000 A 
ATOM      3  C   UNL     1       2.879   5.795  17.660  0.00  0.00    +0.000 A 
ATOM      4  N   UNL     1       2.917   7.124  17.836  0.00  0.00    +0.000 NA
ATOM      5  O   UNL     1       4.226   7.499  17.602  0.00  0.00    +0.000 OA
ENDROOT
BRANCH   1  11
ATOM      6  C   UNL     1       6.274   5.258  14.902  0.00  0.00    +0.000 C 
ATOM      7  N   UNL     1       7.030   5.590  16.098  0.00  0.00    +0.000 NA
ATOM      8  C   UNL     1       7.334   4.428  16.931  0.00  0.00    +0.000 C 
ATOM      9  C   UNL     1       7.784   5.035  18.253  0.00  0.00    +0.000 C 
ATOM     10  C   UNL     1       7.311   6.488  18.224  0.00  0.00    +0.000 C 
ATOM     11  C   UNL     1       6.421   6.596  16.984  0.00  0.00    +0.000 C 
ENDBRANCH   1  11
BRANCH   3  12
ATOM     12  C   UNL     1       1.619   5.034  17.872  0.00  0.00    +0.000 C 
BRANCH  12  13
ATOM     13  C   UNL     1       1.769   4.257  19.157  0.00  0.00    +0.000 A 
ATOM     14  C   UNL     1       1.636   2.859  19.175  0.00  0.00    +0.000 A 
ATOM     15  C   UNL     1       1.839   2.139  20.356  0.00  0.00    +0.000 A 
ATOM     16  C   UNL     1       2.181   2.810  21.531  0.00  0.00    +0.000 A 
ATOM     17  C   UNL     1       2.300   4.197  21.531  0.00  0.00    +0.000 A 
ATOM     18  C   UNL     1       2.087   4.918  20.354  0.00  0.00    +0.000 A 
ENDBRANCH  12  13
ENDBRANCH   3  12
TORSDOF 3
ENDMDL
MODEL 7
REMARK VINA RESULT:      -6.9      2.104      6.115
REMARK  Name = 
REMARK  4 active torsions:
REMARK  status: ('A' for Active; 'I' for Inactive)
REMARK    1  A    between atoms: C_1  and  N_2
REMARK    2  A    between atoms: C_6  and  C_7
REMARK    3  A    between atoms: C_9  and  C_10
REMARK    4  A    between atoms: C_10  and  C_11
REMARK                            x       y       z     vdW  Elec       q    Type
REMARK                         _______ _______ _______ _____ _____    ______ ____
ROOT
ATOM      1  C   UNL     1       5.412   6.620  17.514  0.00  0.00    +0.000 A 
ATOM      2  C   UNL     1       4.717   6.182  18.616  0.00  0.00    +0.000 A 
ATOM      3  C   UNL     1       3.373   6.546  18.357  0.00  0.00    +0.000 A 
ATOM      4  N   UNL     1       3.269   7.200  17.191  0.00  0.00    +0.000 NA
ATOM      5  O   UNL     1       4.545   7.238  16.664  0.00  0.00    +0.000 OA
ENDROOT
BRANCH   1  11
ATOM      6  C   UNL     1       6.519   4.366  15.955  0.00  0.00    +0.000 C 
ATOM      7  N   UNL     1       7.356   5.181  16.819  0.00  0.00    +0.000 NA
ATOM      8  C   UNL     1       7.643   4.551  18.106  0.00  0.00    +0.000 C 
ATOM      9  C   UNL     1       8.197   5.690  18.952  0.00  0.00    +0.000 C 
ATOM     10  C   UNL     1       7.800   6.976  18.228  0.00  0.00    +0.000 C 
ATOM     11  C   UNL     1       6.851   6.532  17.113  0.00  0.00    +0.000 C 
ENDBRANCH   1  11
BRANCH   3  12
ATOM     12  C   UNL     1       2.184   6.348  19.229  0.00  0.00    +0.000 C 
BRANCH  12  13
ATOM     13  C   UNL     1       1.932   4.864  19.322  0.00  0.00    +0.000 A 
ATOM     14  C   UNL     1       1.757   4.087  18.165  0.00  0.00    +0.000 A 
ATOM     15  C   UNL     1       1.587   2.702  18.256  0.00  0.00    +0.000 A 
ATOM     16  C   UNL     1       1.594   2.079  19.505  0.00  0.00    +0.000 A 
ATOM     17  C   UNL     1       1.750   2.839  20.660  0.00  0.00    +0.000 A 
ATOM     18  C   UNL     1       1.908   4.224  20.571  0.00  0.00    +0.000 A 
ENDBRANCH  12  13
ENDBRANCH   3  12
TORSDOF 3
ENDMDL
MODEL 8
REMARK VINA RESULT:      -6.7      1.959      2.859
REMARK  Name = 
REMARK  4 active torsions:
REMARK  status: ('A' for Active; 'I' for Inactive)
REMARK    1  A    between atoms: C_1  and  N_2
REMARK    2  A    between atoms: C_6  and  C_7
REMARK    3  A    between atoms: C_9  and  C_10
REMARK    4  A    between atoms: C_10  and  C_11
REMARK                            x       y       z     vdW  Elec       q    Type
REMARK                         _______ _______ _______ _____ _____    ______ ____
ROOT
ATOM      1  C   UNL     1       2.479   4.883  19.648  0.00  0.00    +0.000 A 
ATOM      2  C   UNL     1       3.217   5.084  18.506  0.00  0.00    +0.000 A 
ATOM      3  C   UNL     1       3.336   6.491  18.401  0.00  0.00    +0.000 A 
ATOM      4  N   UNL     1       2.674   7.104  19.394  0.00  0.00    +0.000 NA
ATOM      5  O   UNL     1       2.145   6.094  20.175  0.00  0.00    +0.000 OA
ENDROOT
BRANCH   1  11
ATOM      6  C   UNL     1       4.215   2.532  20.094  0.00  0.00    +0.000 C 
ATOM      7  N   UNL     1       2.767   2.418  20.066  0.00  0.00    +0.000 NA
ATOM      8  C   UNL     1       2.251   1.912  18.797  0.00  0.00    +0.000 C 
ATOM      9  C   UNL     1       0.760   2.216  18.862  0.00  0.00    +0.000 C 
ATOM     10  C   UNL     1       0.596   3.245  19.980  0.00  0.00    +0.000 C 
ATOM     11  C   UNL     1       2.020   3.652  20.364  0.00  0.00    +0.000 C 
ENDBRANCH   1  11
BRANCH   3  12
ATOM     12  C   UNL     1       4.007   7.279  17.334  0.00  0.00    +0.000 C 
BRANCH  12  13
ATOM     13  C   UNL     1       5.173   6.462  16.832  0.00  0.00    +0.000 A 
ATOM     14  C   UNL     1       6.274   6.190  17.660  0.00  0.00    +0.000 A 
ATOM     15  C   UNL     1       7.320   5.379  17.211  0.00  0.00    +0.000 A 
ATOM     16  C   UNL     1       7.275   4.828  15.930  0.00  0.00    +0.000 A 
ATOM     17  C   UNL     1       6.197   5.103  15.092  0.00  0.00    +0.000 A 
ATOM     18  C   UNL     1       5.157   5.922  15.536  0.00  0.00    +0.000 A 
ENDBRANCH  12  13
ENDBRANCH   3  12
TORSDOF 3
ENDMDL
MODEL 9
REMARK VINA RESULT:      -6.7      1.080      1.566
REMARK  Name = 
REMARK  4 active torsions:
REMARK  status: ('A' for Active; 'I' for Inactive)
REMARK    1  A    between atoms: C_1  and  N_2
REMARK    2  A    between atoms: C_6  and  C_7
REMARK    3  A    between atoms: C_9  and  C_10
REMARK    4  A    between atoms: C_10  and  C_11
REMARK                            x       y       z     vdW  Elec       q    Type
REMARK                         _______ _______ _______ _____ _____    ______ ____
ROOT
ATOM      1  C   UNL     1       2.501   4.203  18.554  0.00  0.00    +0.000 A 
ATOM      2  C   UNL     1       3.708   3.587  18.327  0.00  0.00    +0.000 A 
ATOM      3  C   UNL     1       4.391   4.456  17.441  0.00  0.00    +0.000 A 
ATOM      4  N   UNL     1       3.626   5.510  17.118  0.00  0.00    +0.000 NA
ATOM      5  O   UNL     1       2.448   5.351  17.822  0.00  0.00    +0.000 OA
ENDROOT
BRANCH   1  11
ATOM      6  C   UNL     1       1.550   5.926  20.759  0.00  0.00    +0.000 C 
ATOM      7  N   UNL     1       1.283   4.498  20.736  0.00  0.00    +0.000 NA
ATOM      8  C   UNL     1       2.177   3.729  21.600  0.00  0.00    +0.000 C 
ATOM      9  C   UNL     1       1.967   2.289  21.150  0.00  0.00    +0.000 C 
ATOM     10  C   UNL     1       1.283   2.376  19.787  0.00  0.00    +0.000 C 
ATOM     11  C   UNL     1       1.323   3.858  19.410  0.00  0.00    +0.000 C 
ENDBRANCH   1  11
BRANCH   3  12
ATOM     12  C   UNL     1       5.735   4.275  16.831  0.00  0.00    +0.000 C 
BRANCH  12  13
ATOM     13  C   UNL     1       6.647   5.321  17.424  0.00  0.00    +0.000 A 
ATOM     14  C   UNL     1       6.843   6.555  16.784  0.00  0.00    +0.000 A 
ATOM     15  C   UNL     1       7.638   7.544  17.370  0.00  0.00    +0.000 A 
ATOM     16  C   UNL     1       8.243   7.310  18.606  0.00  0.00    +0.000 A 
ATOM     17  C   UNL     1       8.070   6.085  19.245  0.00  0.00    +0.000 A 
ATOM     18  C   UNL     1       7.285   5.093  18.654  0.00  0.00    +0.000 A 
ENDBRANCH  12  13
ENDBRANCH   3  12
TORSDOF 3
ENDMDL
