MODEL 1
REMARK VINA RESULT:      -8.0      0.000      0.000
REMARK  Name = 
REMARK  10 active torsions:
REMARK  status: ('A' for Active; 'I' for Inactive)
REMARK    1  A    between atoms: C_1  and  C_2
REMARK    2  A    between atoms: C_2  and  O_3
REMARK    3  A    between atoms: O_3  and  C_4
REMARK    4  A    between atoms: C_4  and  C_6
REMARK    5  A    between atoms: C_9  and  C_10
REMARK    6  A    between atoms: C_12  and  N_13
REMARK    7  A    between atoms: C_17  and  N_18
REMARK    8  A    between atoms: C_21  and  O_22
REMARK    9  A    between atoms: O_22  and  C_23
REMARK   10  A    between atoms: C_23  and  C_24
REMARK                            x       y       z     vdW  Elec       q    Type
REMARK                         _______ _______ _______ _____ _____    ______ ____
ROOT
ATOM      1  C   UNL     1       3.806   5.969  18.586  0.00  0.00    +0.000 A 
ATOM      2  C   UNL     1       5.008   6.198  17.869  0.00  0.00    +0.000 A 
ATOM      3  C   UNL     1       5.932   5.168  17.652  0.00  0.00    +0.000 A 
ATOM      4  C   UNL     1       5.677   3.891  18.132  0.00  0.00    +0.000 A 
ATOM      5  C   UNL     1       4.474   3.668  18.814  0.00  0.00    +0.000 A 
ATOM      6  C   UNL     1       3.513   4.674  19.068  0.00  0.00    +0.000 A 
ENDROOT
BRANCH   1  10
ATOM      7  C   UNL     1       1.219   9.316  19.005  0.00  0.00    +0.000 A 
ATOM      8  C   UNL     1       1.876   9.012  17.875  0.00  0.00    +0.000 A 
ATOM      9  N   UNL     1       2.763   7.978  17.710  0.00  0.00    +0.000 NA
ATOM     10  C   UNL     1       2.914   7.157  18.694  0.00  0.00    +0.000 A 
ATOM     11  N   UNL     1       2.281   7.353  19.901  0.00  0.00    +0.000 N 
ATOM     12  C   UNL     1       1.480   8.437  20.160  0.00  0.00    +0.000 A 
ATOM     13  O   UNL     1       1.039   8.614  21.290  0.00  0.00    +0.000 OA
ATOM     14  H   UNL     1       2.423   6.750  20.699  0.00  0.00    +0.000 HD
BRANCH   7  15
ATOM     15  C   UNL     1       0.383  10.527  18.999  0.00  0.00    +0.000 C 
ATOM     16  O   UNL     1       0.834  11.662  19.090  0.00  0.00    +0.000 OA
BRANCH  15  17
ATOM     17  O   UNL     1      -0.929  10.208  19.015  0.00  0.00    +0.000 OA
BRANCH  17  19
ATOM     18  C   UNL     1      -2.613  11.395  17.819  0.00  0.00    +0.000 C 
ATOM     19  C   UNL     1      -1.599  10.268  17.749  0.00  0.00    +0.000 C 
ENDBRANCH  17  19
ENDBRANCH  15  17
ENDBRANCH   7  15
ENDBRANCH   1  10
BRANCH   3  20
ATOM     20  N   UNL     1       7.173   5.449  16.919  0.00  0.00    +0.000 N 
ATOM     21  O   UNL     1       7.412   6.630  16.635  0.00  0.00    +0.000 OA
ATOM     22  O   UNL     1       7.904   4.490  16.645  0.00  0.00    +0.000 OA
ENDBRANCH   3  20
BRANCH   5  23
ATOM     23  N   UNL     1       4.243   2.311  19.281  0.00  0.00    +0.000 N 
ATOM     24  O   UNL     1       3.561   1.580  18.549  0.00  0.00    +0.000 OA
ATOM     25  O   UNL     1       4.824   1.957  20.320  0.00  0.00    +0.000 OA
ENDBRANCH   5  23
BRANCH   6  26
ATOM     26  O   UNL     1       2.399   4.216  19.713  0.00  0.00    +0.000 OA
BRANCH  26  27
ATOM     27  C   UNL     1       2.272   4.259  21.129  0.00  0.00    +0.000 C 
ATOM     28  C   UNL     1       1.631   2.971  21.617  0.00  0.00    +0.000 C 
ENDBRANCH  26  27
ENDBRANCH   6  26
TORSDOF 8
ENDMDL
MODEL 2
REMARK VINA RESULT:      -8.0      2.689      6.799
REMARK  Name = 
REMARK  10 active torsions:
REMARK  status: ('A' for Active; 'I' for Inactive)
REMARK    1  A    between atoms: C_1  and  C_2
REMARK    2  A    between atoms: C_2  and  O_3
REMARK    3  A    between atoms: O_3  and  C_4
REMARK    4  A    between atoms: C_4  and  C_6
REMARK    5  A    between atoms: C_9  and  C_10
REMARK    6  A    between atoms: C_12  and  N_13
REMARK    7  A    between atoms: C_17  and  N_18
REMARK    8  A    between atoms: C_21  and  O_22
REMARK    9  A    between atoms: O_22  and  C_23
REMARK   10  A    between atoms: C_23  and  C_24
REMARK                            x       y       z     vdW  Elec       q    Type
REMARK                         _______ _______ _______ _____ _____    ______ ____
ROOT
ATOM      1  C   UNL     1       3.663   5.090  18.633  0.00  0.00    +0.000 A 
ATOM      2  C   UNL     1       3.149   6.389  18.878  0.00  0.00    +0.000 A 
ATOM      3  C   UNL     1       2.255   6.630  19.929  0.00  0.00    +0.000 A 
ATOM      4  C   UNL     1       1.864   5.591  20.763  0.00  0.00    +0.000 A 
ATOM      5  C   UNL     1       2.400   4.318  20.530  0.00  0.00    +0.000 A 
ATOM      6  C   UNL     1       3.296   4.020  19.478  0.00  0.00    +0.000 A 
ENDROOT
BRANCH   1  10
ATOM      7  C   UNL     1       6.522   4.864  15.495  0.00  0.00    +0.000 A 
ATOM      8  C   UNL     1       5.225   5.151  15.308  0.00  0.00    +0.000 A 
ATOM      9  N   UNL     1       4.257   5.179  16.280  0.00  0.00    +0.000 NA
ATOM     10  C   UNL     1       4.632   5.013  17.504  0.00  0.00    +0.000 A 
ATOM     11  N   UNL     1       5.941   4.726  17.824  0.00  0.00    +0.000 N 
ATOM     12  C   UNL     1       6.926   4.565  16.882  0.00  0.00    +0.000 A 
ATOM     13  O   UNL     1       8.043   4.199  17.224  0.00  0.00    +0.000 OA
ATOM     14  H   UNL     1       6.246   4.544  18.770  0.00  0.00    +0.000 HD
BRANCH   7  15
ATOM     15  C   UNL     1       7.380   4.793  14.301  0.00  0.00    +0.000 C 
ATOM     16  O   UNL     1       8.161   5.677  13.974  0.00  0.00    +0.000 OA
BRANCH  15  17
ATOM     17  O   UNL     1       7.088   3.700  13.562  0.00  0.00    +0.000 OA
BRANCH  17  19
ATOM     18  C   UNL     1       5.402   3.240  11.944  0.00  0.00    +0.000 C 
ATOM     19  C   UNL     1       6.718   3.950  12.201  0.00  0.00    +0.000 C 
ENDBRANCH  17  19
ENDBRANCH  15  17
ENDBRANCH   7  15
ENDBRANCH   1  10
BRANCH   3  20
ATOM     20  N   UNL     1       1.731   7.985  20.140  0.00  0.00    +0.000 N 
ATOM     21  O   UNL     1       1.680   8.736  19.158  0.00  0.00    +0.000 OA
ATOM     22  O   UNL     1       1.362   8.283  21.283  0.00  0.00    +0.000 OA
ENDBRANCH   3  20
BRANCH   5  23
ATOM     23  N   UNL     1       1.976   3.267  21.440  0.00  0.00    +0.000 N 
ATOM     24  O   UNL     1       2.696   3.062  22.426  0.00  0.00    +0.000 OA
ATOM     25  O   UNL     1       0.881   2.725  21.217  0.00  0.00    +0.000 OA
ENDBRANCH   5  23
BRANCH   6  26
ATOM     26  O   UNL     1       3.720   2.720  19.470  0.00  0.00    +0.000 OA
BRANCH  26  27
ATOM     27  C   UNL     1       3.446   1.841  18.387  0.00  0.00    +0.000 C 
ATOM     28  C   UNL     1       2.129   2.236  17.739  0.00  0.00    +0.000 C 
ENDBRANCH  26  27
ENDBRANCH   6  26
TORSDOF 8
ENDMDL
MODEL 3
REMARK VINA RESULT:      -7.9      0.924      1.000
REMARK  Name = 
REMARK  10 active torsions:
REMARK  status: ('A' for Active; 'I' for Inactive)
REMARK    1  A    between atoms: C_1  and  C_2
REMARK    2  A    between atoms: C_2  and  O_3
REMARK    3  A    between atoms: O_3  and  C_4
REMARK    4  A    between atoms: C_4  and  C_6
REMARK    5  A    between atoms: C_9  and  C_10
REMARK    6  A    between atoms: C_12  and  N_13
REMARK    7  A    between atoms: C_17  and  N_18
REMARK    8  A    between atoms: C_21  and  O_22
REMARK    9  A    between atoms: O_22  and  C_23
REMARK   10  A    between atoms: C_23  and  C_24
REMARK                            x       y       z     vdW  Elec       q    Type
REMARK                         _______ _______ _______ _____ _____    ______ ____
ROOT
ATOM      1  C   UNL     1       3.541   6.151  18.291  0.00  0.00    +0.000 A 
ATOM      2  C   UNL     1       4.435   6.296  17.200  0.00  0.00    +0.000 A 
ATOM      3  C   UNL     1       5.266   5.243  16.797  0.00  0.00    +0.000 A 
ATOM      4  C   UNL     1       5.218   4.024  17.460  0.00  0.00    +0.000 A 
ATOM      5  C   UNL     1       4.311   3.882  18.519  0.00  0.00    +0.000 A 
ATOM      6  C   UNL     1       3.459   4.916  18.971  0.00  0.00    +0.000 A 
ENDROOT
BRANCH   1  10
ATOM      7  C   UNL     1       1.107   9.520  19.181  0.00  0.00    +0.000 A 
ATOM      8  C   UNL     1       1.683   9.306  17.988  0.00  0.00    +0.000 A 
ATOM      9  N   UNL     1       2.521   8.266  17.673  0.00  0.00    +0.000 NA
ATOM     10  C   UNL     1       2.701   7.350  18.565  0.00  0.00    +0.000 A 
ATOM     11  N   UNL     1       2.149   7.450  19.823  0.00  0.00    +0.000 N 
ATOM     12  C   UNL     1       1.405   8.529  20.231  0.00  0.00    +0.000 A 
ATOM     13  O   UNL     1       1.039   8.611  21.398  0.00  0.00    +0.000 OA
ATOM     14  H   UNL     1       2.317   6.770  20.551  0.00  0.00    +0.000 HD
BRANCH   7  15
ATOM     15  C   UNL     1       0.317  10.752  19.340  0.00  0.00    +0.000 C 
ATOM     16  O   UNL     1       0.804  11.837  19.629  0.00  0.00    +0.000 OA
BRANCH  15  17
ATOM     17  O   UNL     1      -1.006  10.490  19.258  0.00  0.00    +0.000 OA
BRANCH  17  19
ATOM     18  C   UNL     1      -2.425   9.919  17.432  0.00  0.00    +0.000 C 
ATOM     19  C   UNL     1      -1.680  11.046  18.123  0.00  0.00    +0.000 C 
ENDBRANCH  17  19
ENDBRANCH  15  17
ENDBRANCH   7  15
ENDBRANCH   1  10
BRANCH   3  20
ATOM     20  N   UNL     1       6.191   5.436  15.673  0.00  0.00    +0.000 N 
ATOM     21  O   UNL     1       5.817   5.056  14.556  0.00  0.00    +0.000 OA
ATOM     22  O   UNL     1       7.277   5.978  15.913  0.00  0.00    +0.000 OA
ENDBRANCH   3  20
BRANCH   5  23
ATOM     23  N   UNL     1       4.283   2.583  19.170  0.00  0.00    +0.000 N 
ATOM     24  O   UNL     1       3.624   1.696  18.612  0.00  0.00    +0.000 OA
ATOM     25  O   UNL     1       4.997   2.432  20.176  0.00  0.00    +0.000 OA
ENDBRANCH   5  23
BRANCH   6  26
ATOM     26  O   UNL     1       2.629   4.536  19.989  0.00  0.00    +0.000 OA
BRANCH  26  27
ATOM     27  C   UNL     1       1.309   4.065  19.753  0.00  0.00    +0.000 C 
ATOM     28  C   UNL     1       0.983   2.962  20.748  0.00  0.00    +0.000 C 
ENDBRANCH  26  27
ENDBRANCH   6  26
TORSDOF 8
ENDMDL
MODEL 4
REMARK VINA RESULT:      -7.8      2.648      6.754
REMARK  Name = 
REMARK  10 active torsions:
REMARK  status: ('A' for Active; 'I' for Inactive)
REMARK    1  A    between atoms: C_1  and  C_2
REMARK    2  A    between atoms: C_2  and  O_3
REMARK    3  A    between atoms: O_3  and  C_4
REMARK    4  A    between atoms: C_4  and  C_6
REMARK    5  A    between atoms: C_9  and  C_10
REMARK    6  A    between atoms: C_12  and  N_13
REMARK    7  A    between atoms: C_17  and  N_18
REMARK    8  A    between atoms: C_21  and  O_22
REMARK    9  A    between atoms: O_22  and  C_23
REMARK   10  A    between atoms: C_23  and  C_24
REMARK                            x       y       z     vdW  Elec       q    Type
REMARK                         _______ _______ _______ _____ _____    ______ ____
ROOT
ATOM      1  C   UNL     1       3.487   5.266  18.600  0.00  0.00    +0.000 A 
ATOM      2  C   UNL     1       3.009   6.580  18.835  0.00  0.00    +0.000 A 
ATOM      3  C   UNL     1       2.137   6.857  19.896  0.00  0.00    +0.000 A 
ATOM      4  C   UNL     1       1.734   5.839  20.751  0.00  0.00    +0.000 A 
ATOM      5  C   UNL     1       2.235   4.550  20.527  0.00  0.00    +0.000 A 
ATOM      6  C   UNL     1       3.108   4.216  19.466  0.00  0.00    +0.000 A 
ENDROOT
BRANCH   1  10
ATOM      7  C   UNL     1       6.254   5.036  15.381  0.00  0.00    +0.000 A 
ATOM      8  C   UNL     1       5.139   4.293  15.467  0.00  0.00    +0.000 A 
ATOM      9  N   UNL     1       4.249   4.292  16.511  0.00  0.00    +0.000 NA
ATOM     10  C   UNL     1       4.436   5.149  17.458  0.00  0.00    +0.000 A 
ATOM     11  N   UNL     1       5.536   5.978  17.474  0.00  0.00    +0.000 N 
ATOM     12  C   UNL     1       6.521   5.936  16.519  0.00  0.00    +0.000 A 
ATOM     13  O   UNL     1       7.529   6.618  16.652  0.00  0.00    +0.000 OA
ATOM     14  H   UNL     1       5.726   6.621  18.229  0.00  0.00    +0.000 HD
BRANCH   7  15
ATOM     15  C   UNL     1       7.126   4.818  14.216  0.00  0.00    +0.000 C 
ATOM     16  O   UNL     1       7.940   5.640  13.815  0.00  0.00    +0.000 OA
BRANCH  15  17
ATOM     17  O   UNL     1       6.812   3.663  13.588  0.00  0.00    +0.000 OA
BRANCH  17  19
ATOM     18  C   UNL     1       5.237   3.189  11.865  0.00  0.00    +0.000 C 
ATOM     19  C   UNL     1       6.609   3.761  12.173  0.00  0.00    +0.000 C 
ENDBRANCH  17  19
ENDBRANCH  15  17
ENDBRANCH   7  15
ENDBRANCH   1  10
BRANCH   3  20
ATOM     20  N   UNL     1       1.650   8.227  20.097  0.00  0.00    +0.000 N 
ATOM     21  O   UNL     1       1.409   8.582  21.258  0.00  0.00    +0.000 OA
ATOM     22  O   UNL     1       1.524   8.941  19.095  0.00  0.00    +0.000 OA
ENDBRANCH   3  20
BRANCH   5  23
ATOM     23  N   UNL     1       1.800   3.523  21.459  0.00  0.00    +0.000 N 
ATOM     24  O   UNL     1       2.443   3.419  22.512  0.00  0.00    +0.000 OA
ATOM     25  O   UNL     1       0.764   2.897  21.177  0.00  0.00    +0.000 OA
ENDBRANCH   5  23
BRANCH   6  26
ATOM     26  O   UNL     1       3.499   2.907  19.470  0.00  0.00    +0.000 OA
BRANCH  26  27
ATOM     27  C   UNL     1       2.910   1.938  18.612  0.00  0.00    +0.000 C 
ATOM     28  C   UNL     1       3.993   1.015  18.077  0.00  0.00    +0.000 C 
ENDBRANCH  26  27
ENDBRANCH   6  26
TORSDOF 8
ENDMDL
MODEL 5
REMARK VINA RESULT:      -7.8      1.352      1.741
REMARK  Name = 
REMARK  10 active torsions:
REMARK  status: ('A' for Active; 'I' for Inactive)
REMARK    1  A    between atoms: C_1  and  C_2
REMARK    2  A    between atoms: C_2  and  O_3
REMARK    3  A    between atoms: O_3  and  C_4
REMARK    4  A    between atoms: C_4  and  C_6
REMARK    5  A    between atoms: C_9  and  C_10
REMARK    6  A    between atoms: C_12  and  N_13
REMARK    7  A    between atoms: C_17  and  N_18
REMARK    8  A    between atoms: C_21  and  O_22
REMARK    9  A    between atoms: O_22  and  C_23
REMARK   10  A    between atoms: C_23  and  C_24
REMARK                            x       y       z     vdW  Elec       q    Type
REMARK                         _______ _______ _______ _____ _____    ______ ____
ROOT
ATOM      1  C   UNL     1       3.509   6.160  18.530  0.00  0.00    +0.000 A 
ATOM      2  C   UNL     1       4.454   6.441  17.509  0.00  0.00    +0.000 A 
ATOM      3  C   UNL     1       5.335   5.457  17.045  0.00  0.00    +0.000 A 
ATOM      4  C   UNL     1       5.289   4.174  17.574  0.00  0.00    +0.000 A 
ATOM      5  C   UNL     1       4.334   3.899  18.562  0.00  0.00    +0.000 A 
ATOM      6  C   UNL     1       3.429   4.858  19.072  0.00  0.00    +0.000 A 
ENDROOT
BRANCH   1  10
ATOM      7  C   UNL     1       0.953   9.368  19.645  0.00  0.00    +0.000 A 
ATOM      8  C   UNL     1       1.406   9.169  18.398  0.00  0.00    +0.000 A 
ATOM      9  N   UNL     1       2.276   8.184  18.003  0.00  0.00    +0.000 NA
ATOM     10  C   UNL     1       2.621   7.303  18.881  0.00  0.00    +0.000 A 
ATOM     11  N   UNL     1       2.207   7.390  20.192  0.00  0.00    +0.000 N 
ATOM     12  C   UNL     1       1.437   8.422  20.668  0.00  0.00    +0.000 A 
ATOM     13  O   UNL     1       1.199   8.503  21.867  0.00  0.00    +0.000 OA
ATOM     14  H   UNL     1       2.504   6.740  20.905  0.00  0.00    +0.000 HD
BRANCH   7  15
ATOM     15  C   UNL     1       0.099  10.544  19.876  0.00  0.00    +0.000 C 
ATOM     16  O   UNL     1      -0.914  10.783  19.232  0.00  0.00    +0.000 OA
BRANCH  15  17
ATOM     17  O   UNL     1       0.656  11.372  20.787  0.00  0.00    +0.000 OA
BRANCH  17  19
ATOM     18  C   UNL     1      -0.798  11.209  22.668  0.00  0.00    +0.000 C 
ATOM     19  C   UNL     1      -0.265  12.128  21.584  0.00  0.00    +0.000 C 
ENDBRANCH  17  19
ENDBRANCH  15  17
ENDBRANCH   7  15
ENDBRANCH   1  10
BRANCH   3  20
ATOM     20  N   UNL     1       6.310   5.790  15.999  0.00  0.00    +0.000 N 
ATOM     21  O   UNL     1       5.961   5.627  14.822  0.00  0.00    +0.000 OA
ATOM     22  O   UNL     1       7.410   6.225  16.360  0.00  0.00    +0.000 OA
ENDBRANCH   3  20
BRANCH   5  23
ATOM     23  N   UNL     1       4.312   2.538  19.072  0.00  0.00    +0.000 N 
ATOM     24  O   UNL     1       3.761   1.687  18.360  0.00  0.00    +0.000 OA
ATOM     25  O   UNL     1       4.929   2.313  20.127  0.00  0.00    +0.000 OA
ENDBRANCH   5  23
BRANCH   6  26
ATOM     26  O   UNL     1       2.561   4.353  19.999  0.00  0.00    +0.000 OA
BRANCH  26  27
ATOM     27  C   UNL     1       1.184   4.147  19.712  0.00  0.00    +0.000 C 
ATOM     28  C   UNL     1       0.857   2.668  19.848  0.00  0.00    +0.000 C 
ENDBRANCH  26  27
ENDBRANCH   6  26
TORSDOF 8
ENDMDL
MODEL 6
REMARK VINA RESULT:      -7.7      1.293      1.783
REMARK  Name = 
REMARK  10 active torsions:
REMARK  status: ('A' for Active; 'I' for Inactive)
REMARK    1  A    between atoms: C_1  and  C_2
REMARK    2  A    between atoms: C_2  and  O_3
REMARK    3  A    between atoms: O_3  and  C_4
REMARK    4  A    between atoms: C_4  and  C_6
REMARK    5  A    between atoms: C_9  and  C_10
REMARK    6  A    between atoms: C_12  and  N_13
REMARK    7  A    between atoms: C_17  and  N_18
REMARK    8  A    between atoms: C_21  and  O_22
REMARK    9  A    between atoms: O_22  and  C_23
REMARK   10  A    between atoms: C_23  and  C_24
REMARK                            x       y       z     vdW  Elec       q    Type
REMARK                         _______ _______ _______ _____ _____    ______ ____
ROOT
ATOM      1  C   UNL     1       3.328   6.321  18.041  0.00  0.00    +0.000 A 
ATOM      2  C   UNL     1       4.450   6.536  17.201  0.00  0.00    +0.000 A 
ATOM      3  C   UNL     1       5.247   5.469  16.767  0.00  0.00    +0.000 A 
ATOM      4  C   UNL     1       4.940   4.170  17.148  0.00  0.00    +0.000 A 
ATOM      5  C   UNL     1       3.813   3.966  17.955  0.00  0.00    +0.000 A 
ATOM      6  C   UNL     1       2.982   5.008  18.428  0.00  0.00    +0.000 A 
ENDROOT
BRANCH   1  10
ATOM      7  C   UNL     1       1.112   9.787  19.114  0.00  0.00    +0.000 A 
ATOM      8  C   UNL     1       1.629   9.575  17.894  0.00  0.00    +0.000 A 
ATOM      9  N   UNL     1       2.397   8.502  17.518  0.00  0.00    +0.000 NA
ATOM     10  C   UNL     1       2.564   7.555  18.378  0.00  0.00    +0.000 A 
ATOM     11  N   UNL     1       2.068   7.649  19.660  0.00  0.00    +0.000 N 
ATOM     12  C   UNL     1       1.398   8.753  20.126  0.00  0.00    +0.000 A 
ATOM     13  O   UNL     1       1.084   8.823  21.308  0.00  0.00    +0.000 OA
ATOM     14  H   UNL     1       2.228   6.942  20.364  0.00  0.00    +0.000 HD
BRANCH   7  15
ATOM     15  C   UNL     1       0.395  11.053  19.336  0.00  0.00    +0.000 C 
ATOM     16  O   UNL     1      -0.770  11.238  19.012  0.00  0.00    +0.000 OA
BRANCH  15  17
ATOM     17  O   UNL     1       1.230  12.002  19.814  0.00  0.00    +0.000 OA
BRANCH  17  19
ATOM     18  C   UNL     1       2.483  13.204  18.183  0.00  0.00    +0.000 C 
ATOM     19  C   UNL     1       1.258  13.232  19.079  0.00  0.00    +0.000 C 
ENDBRANCH  17  19
ENDBRANCH  15  17
ENDBRANCH   7  15
ENDBRANCH   1  10
BRANCH   3  20
ATOM     20  N   UNL     1       6.411   5.733  15.912  0.00  0.00    +0.000 N 
ATOM     21  O   UNL     1       6.305   5.467  14.707  0.00  0.00    +0.000 OA
ATOM     22  O   UNL     1       7.416   6.217  16.447  0.00  0.00    +0.000 OA
ENDBRANCH   3  20
BRANCH   5  23
ATOM     23  N   UNL     1       3.521   2.587  18.312  0.00  0.00    +0.000 N 
ATOM     24  O   UNL     1       2.739   1.976  17.572  0.00  0.00    +0.000 OA
ATOM     25  O   UNL     1       4.149   2.099  19.266  0.00  0.00    +0.000 OA
ENDBRANCH   5  23
BRANCH   6  26
ATOM     26  O   UNL     1       1.917   4.568  19.163  0.00  0.00    +0.000 OA
BRANCH  26  27
ATOM     27  C   UNL     1       1.951   4.510  20.584  0.00  0.00    +0.000 C 
ATOM     28  C   UNL     1       1.283   3.227  21.051  0.00  0.00    +0.000 C 
ENDBRANCH  26  27
ENDBRANCH   6  26
TORSDOF 8
ENDMDL
MODEL 7
REMARK VINA RESULT:      -7.7      0.824      1.449
REMARK  Name = 
REMARK  10 active torsions:
REMARK  status: ('A' for Active; 'I' for Inactive)
REMARK    1  A    between atoms: C_1  and  C_2
REMARK    2  A    between atoms: C_2  and  O_3
REMARK    3  A    between atoms: O_3  and  C_4
REMARK    4  A    between atoms: C_4  and  C_6
REMARK    5  A    between atoms: C_9  and  C_10
REMARK    6  A    between atoms: C_12  and  N_13
REMARK    7  A    between atoms: C_17  and  N_18
REMARK    8  A    between atoms: C_21  and  O_22
REMARK    9  A    between atoms: O_22  and  C_23
REMARK   10  A    between atoms: C_23  and  C_24
REMARK                            x       y       z     vdW  Elec       q    Type
REMARK                         _______ _______ _______ _____ _____    ______ ____
ROOT
ATOM      1  C   UNL     1       3.663   6.061  18.611  0.00  0.00    +0.000 A 
ATOM      2  C   UNL     1       4.835   6.346  17.863  0.00  0.00    +0.000 A 
ATOM      3  C   UNL     1       5.774   5.347  17.576  0.00  0.00    +0.000 A 
ATOM      4  C   UNL     1       5.564   4.046  18.014  0.00  0.00    +0.000 A 
ATOM      5  C   UNL     1       4.390   3.769  18.727  0.00  0.00    +0.000 A 
ATOM      6  C   UNL     1       3.417   4.742  19.052  0.00  0.00    +0.000 A 
ENDROOT
BRANCH   1  10
ATOM      7  C   UNL     1       1.024   9.332  19.249  0.00  0.00    +0.000 A 
ATOM      8  C   UNL     1       1.594   9.047  18.067  0.00  0.00    +0.000 A 
ATOM      9  N   UNL     1       2.494   8.039  17.828  0.00  0.00    +0.000 NA
ATOM     10  C   UNL     1       2.750   7.223  18.794  0.00  0.00    +0.000 A 
ATOM     11  N   UNL     1       2.214   7.402  20.050  0.00  0.00    +0.000 N 
ATOM     12  C   UNL     1       1.406   8.462  20.377  0.00  0.00    +0.000 A 
ATOM     13  O   UNL     1       1.055   8.627  21.539  0.00  0.00    +0.000 OA
ATOM     14  H   UNL     1       2.439   6.803  20.833  0.00  0.00    +0.000 HD
BRANCH   7  15
ATOM     15  C   UNL     1       0.157  10.519  19.314  0.00  0.00    +0.000 C 
ATOM     16  O   UNL     1      -1.039  10.471  19.570  0.00  0.00    +0.000 OA
BRANCH  15  17
ATOM     17  O   UNL     1       0.826  11.627  18.927  0.00  0.00    +0.000 OA
BRANCH  17  19
ATOM     18  C   UNL     1      -0.213  13.732  18.520  0.00  0.00    +0.000 C 
ATOM     19  C   UNL     1       0.434  12.846  19.570  0.00  0.00    +0.000 C 
ENDBRANCH  17  19
ENDBRANCH  15  17
ENDBRANCH   7  15
ENDBRANCH   1  10
BRANCH   3  20
ATOM     20  N   UNL     1       6.982   5.684  16.814  0.00  0.00    +0.000 N 
ATOM     21  O   UNL     1       7.654   4.746  16.367  0.00  0.00    +0.000 OA
ATOM     22  O   UNL     1       7.243   6.883  16.656  0.00  0.00    +0.000 OA
ENDBRANCH   3  20
BRANCH   5  23
ATOM     23  N   UNL     1       4.206   2.391  19.148  0.00  0.00    +0.000 N 
ATOM     24  O   UNL     1       4.786   2.044  20.186  0.00  0.00    +0.000 OA
ATOM     25  O   UNL     1       3.407   1.696  18.498  0.00  0.00    +0.000 OA
ENDBRANCH   5  23
BRANCH   6  26
ATOM     26  O   UNL     1       2.335   4.234  19.716  0.00  0.00    +0.000 OA
BRANCH  26  27
ATOM     27  C   UNL     1       2.243   4.250  21.135  0.00  0.00    +0.000 C 
ATOM     28  C   UNL     1       1.634   2.942  21.614  0.00  0.00    +0.000 C 
ENDBRANCH  26  27
ENDBRANCH   6  26
TORSDOF 8
ENDMDL
MODEL 8
REMARK VINA RESULT:      -7.7      1.378      1.891
REMARK  Name = 
REMARK  10 active torsions:
REMARK  status: ('A' for Active; 'I' for Inactive)
REMARK    1  A    between atoms: C_1  and  C_2
REMARK    2  A    between atoms: C_2  and  O_3
REMARK    3  A    between atoms: O_3  and  C_4
REMARK    4  A    between atoms: C_4  and  C_6
REMARK    5  A    between atoms: C_9  and  C_10
REMARK    6  A    between atoms: C_12  and  N_13
REMARK    7  A    between atoms: C_17  and  N_18
REMARK    8  A    between atoms: C_21  and  O_22
REMARK    9  A    between atoms: O_22  and  C_23
REMARK   10  A    between atoms: C_23  and  C_24
REMARK                            x       y       z     vdW  Elec       q    Type
REMARK                         _______ _______ _______ _____ _____    ______ ____
ROOT
ATOM      1  C   UNL     1       3.356   6.049  18.478  0.00  0.00    +0.000 A 
ATOM      2  C   UNL     1       4.090   6.191  17.272  0.00  0.00    +0.000 A 
ATOM      3  C   UNL     1       4.853   5.135  16.759  0.00  0.00    +0.000 A 
ATOM      4  C   UNL     1       4.894   3.916  17.423  0.00  0.00    +0.000 A 
ATOM      5  C   UNL     1       4.143   3.778  18.598  0.00  0.00    +0.000 A 
ATOM      6  C   UNL     1       3.365   4.814  19.164  0.00  0.00    +0.000 A 
ENDROOT
BRANCH   1  10
ATOM      7  C   UNL     1       1.075   9.424  19.694  0.00  0.00    +0.000 A 
ATOM      8  C   UNL     1       1.513   9.227  18.441  0.00  0.00    +0.000 A 
ATOM      9  N   UNL     1       2.298   8.185  18.015  0.00  0.00    +0.000 NA
ATOM     10  C   UNL     1       2.566   7.251  18.865  0.00  0.00    +0.000 A 
ATOM     11  N   UNL     1       2.158   7.332  20.178  0.00  0.00    +0.000 N 
ATOM     12  C   UNL     1       1.476   8.410  20.687  0.00  0.00    +0.000 A 
ATOM     13  O   UNL     1       1.243   8.473  21.888  0.00  0.00    +0.000 OA
ATOM     14  H   UNL     1       2.398   6.636  20.870  0.00  0.00    +0.000 HD
BRANCH   7  15
ATOM     15  C   UNL     1       0.323  10.660  19.962  0.00  0.00    +0.000 C 
ATOM     16  O   UNL     1      -0.895  10.700  20.081  0.00  0.00    +0.000 OA
BRANCH  15  17
ATOM     17  O   UNL     1       1.137  11.738  19.924  0.00  0.00    +0.000 OA
BRANCH  17  19
ATOM     18  C   UNL     1       2.064  13.169  18.261  0.00  0.00    +0.000 C 
ATOM     19  C   UNL     1       0.789  12.745  18.966  0.00  0.00    +0.000 C 
ENDBRANCH  17  19
ENDBRANCH  15  17
ENDBRANCH   7  15
ENDBRANCH   1  10
BRANCH   3  20
ATOM     20  N   UNL     1       5.613   5.325  15.517  0.00  0.00    +0.000 N 
ATOM     21  O   UNL     1       6.234   4.350  15.074  0.00  0.00    +0.000 OA
ATOM     22  O   UNL     1       5.572   6.442  14.988  0.00  0.00    +0.000 OA
ENDBRANCH   3  20
BRANCH   5  23
ATOM     23  N   UNL     1       4.202   2.479  19.248  0.00  0.00    +0.000 N 
ATOM     24  O   UNL     1       4.954   2.382  20.228  0.00  0.00    +0.000 OA
ATOM     25  O   UNL     1       3.428   1.599  18.838  0.00  0.00    +0.000 OA
ENDBRANCH   5  23
BRANCH   6  26
ATOM     26  O   UNL     1       2.685   4.438  20.288  0.00  0.00    +0.000 OA
BRANCH  26  27
ATOM     27  C   UNL     1       1.345   3.964  20.238  0.00  0.00    +0.000 C 
ATOM     28  C   UNL     1       1.163   2.859  21.266  0.00  0.00    +0.000 C 
ENDBRANCH  26  27
ENDBRANCH   6  26
TORSDOF 8
ENDMDL
MODEL 9
REMARK VINA RESULT:      -7.7      0.743      1.122
REMARK  Name = 
REMARK  10 active torsions:
REMARK  status: ('A' for Active; 'I' for Inactive)
REMARK    1  A    between atoms: C_1  and  C_2
REMARK    2  A    between atoms: C_2  and  O_3
REMARK    3  A    between atoms: O_3  and  C_4
REMARK    4  A    between atoms: C_4  and  C_6
REMARK    5  A    between atoms: C_9  and  C_10
REMARK    6  A    between atoms: C_12  and  N_13
REMARK    7  A    between atoms: C_17  and  N_18
REMARK    8  A    between atoms: C_21  and  O_22
REMARK    9  A    between atoms: O_22  and  C_23
REMARK   10  A    between atoms: C_23  and  C_24
REMARK                            x       y       z     vdW  Elec       q    Type
REMARK                         _______ _______ _______ _____ _____    ______ ____
ROOT
ATOM      1  C   UNL     1       3.865   5.976  18.625  0.00  0.00    +0.000 A 
ATOM      2  C   UNL     1       5.031   6.200  17.849  0.00  0.00    +0.000 A 
ATOM      3  C   UNL     1       5.951   5.172  17.607  0.00  0.00    +0.000 A 
ATOM      4  C   UNL     1       5.727   3.901  18.119  0.00  0.00    +0.000 A 
ATOM      5  C   UNL     1       4.558   3.683  18.860  0.00  0.00    +0.000 A 
ATOM      6  C   UNL     1       3.604   4.688  19.142  0.00  0.00    +0.000 A 
ENDROOT
BRANCH   1  10
ATOM      7  C   UNL     1       1.270   9.309  19.100  0.00  0.00    +0.000 A 
ATOM      8  C   UNL     1       1.970   9.057  17.984  0.00  0.00    +0.000 A 
ATOM      9  N   UNL     1       2.861   8.029  17.805  0.00  0.00    +0.000 NA
ATOM     10  C   UNL     1       2.972   7.161  18.754  0.00  0.00    +0.000 A 
ATOM     11  N   UNL     1       2.293   7.303  19.944  0.00  0.00    +0.000 N 
ATOM     12  C   UNL     1       1.484   8.376  20.223  0.00  0.00    +0.000 A 
ATOM     13  O   UNL     1       1.000   8.501  21.341  0.00  0.00    +0.000 OA
ATOM     14  H   UNL     1       2.403   6.662  20.717  0.00  0.00    +0.000 HD
BRANCH   7  15
ATOM     15  C   UNL     1       0.437  10.522  19.119  0.00  0.00    +0.000 C 
ATOM     16  O   UNL     1       0.452  11.340  20.030  0.00  0.00    +0.000 OA
BRANCH  15  17
ATOM     17  O   UNL     1      -0.424  10.532  18.078  0.00  0.00    +0.000 OA
BRANCH  17  19
ATOM     18  C   UNL     1      -2.646  11.162  17.496  0.00  0.00    +0.000 C 
ATOM     19  C   UNL     1      -1.798  10.292  18.406  0.00  0.00    +0.000 C 
ENDBRANCH  17  19
ENDBRANCH  15  17
ENDBRANCH   7  15
ENDBRANCH   1  10
BRANCH   3  20
ATOM     20  N   UNL     1       7.155   5.447  16.813  0.00  0.00    +0.000 N 
ATOM     21  O   UNL     1       7.835   4.476  16.454  0.00  0.00    +0.000 OA
ATOM     22  O   UNL     1       7.404   6.628  16.543  0.00  0.00    +0.000 OA
ENDBRANCH   3  20
BRANCH   5  23
ATOM     23  N   UNL     1       4.357   2.333  19.359  0.00  0.00    +0.000 N 
ATOM     24  O   UNL     1       3.750   1.550  18.616  0.00  0.00    +0.000 OA
ATOM     25  O   UNL     1       4.891   2.039  20.442  0.00  0.00    +0.000 OA
ENDBRANCH   5  23
BRANCH   6  26
ATOM     26  O   UNL     1       2.523   4.235  19.845  0.00  0.00    +0.000 OA
BRANCH  26  27
ATOM     27  C   UNL     1       1.269   3.981  19.225  0.00  0.00    +0.000 C 
ATOM     28  C   UNL     1       1.442   3.996  17.715  0.00  0.00    +0.000 C 
ENDBRANCH  26  27
ENDBRANCH   6  26
TORSDOF 8
ENDMDL
