MODEL 1
REMARK VINA RESULT:      -8.8      0.000      0.000
REMARK  Name = 
REMARK  5 active torsions:
REMARK  status: ('A' for Active; 'I' for Inactive)
REMARK    1  A    between atoms: C_1  and  C_2
REMARK    2  A    between atoms: C_13  and  S_14
REMARK    3  A    between atoms: S_14  and  N_17
REMARK    4  A    between atoms: N_17  and  C_18
REMARK    5  A    between atoms: C_21  and  C_22
REMARK                            x       y       z     vdW  Elec       q    Type
REMARK                         _______ _______ _______ _____ _____    ______ ____
ROOT
ATOM      1  C   UNL     1       2.104   1.971  18.677  0.00  0.00    +0.000 C 
ATOM      2  C   UNL     1       3.089   3.095  18.526  0.00  0.00    +0.000 A 
ATOM      3  C   UNL     1       4.014   3.014  17.465  0.00  0.00    +0.000 A 
ATOM      4  C   UNL     1       4.956   4.021  17.258  0.00  0.00    +0.000 A 
ATOM      5  N   UNL     1       5.870   3.909  16.209  0.00  0.00    +0.000 N 
ATOM      6  C   UNL     1       6.843   4.849  15.951  0.00  0.00    +0.000 A 
ATOM      7  O   UNL     1       7.642   4.712  15.034  0.00  0.00    +0.000 OA
ATOM      8  C   UNL     1       6.878   6.089  16.882  0.00  0.00    +0.000 A 
ATOM      9  O   UNL     1       7.715   6.971  16.743  0.00  0.00    +0.000 OA
ATOM     10  N   UNL     1       5.930   6.142  17.880  0.00  0.00    +0.000 N 
ATOM     11  C   UNL     1       4.985   5.135  18.096  0.00  0.00    +0.000 A 
ATOM     12  C   UNL     1       4.080   5.245  19.146  0.00  0.00    +0.000 A 
ATOM     13  C   UNL     1       3.143   4.221  19.376  0.00  0.00    +0.000 A 
ATOM     14  H   UNL     1       5.860   3.108  15.591  0.00  0.00    +0.000 HD
ATOM     15  H   UNL     1       5.964   6.960  18.474  0.00  0.00    +0.000 HD
ENDROOT
BRANCH  13  16
ATOM     16  S   UNL     1       1.990   4.507  20.711  0.00  0.00    +0.000 S 
ATOM     17  O   UNL     1       0.669   4.339  20.138  0.00  0.00    +0.000 OA
ATOM     18  O   UNL     1       2.384   3.767  21.883  0.00  0.00    +0.000 OA
BRANCH  16  19
ATOM     19  N   UNL     1       2.127   6.152  21.024  0.00  0.00    +0.000 NA
ATOM     20  H   UNL     1       3.089   6.397  21.266  0.00  0.00    +0.000 HD
BRANCH  19  21
ATOM     21  C   UNL     1       1.326   7.181  20.327  0.00  0.00    +0.000 C 
ATOM     22  C   UNL     1       2.147   7.874  19.235  0.00  0.00    +0.000 C 
ATOM     23  C   UNL     1       1.435   9.085  18.641  0.00  0.00    +0.000 C 
ATOM     24  C   UNL     1       1.076  10.107  19.720  0.00  0.00    +0.000 C 
ATOM     25  C   UNL     1       0.384  11.318  19.099  0.00  0.00    +0.000 C 
ATOM     26  C   UNL     1       0.202   9.445  20.791  0.00  0.00    +0.000 C 
ATOM     27  C   UNL     1       0.878   8.209  21.388  0.00  0.00    +0.000 C 
ENDBRANCH  19  21
ENDBRANCH  16  19
ENDBRANCH  13  16
TORSDOF 3
ENDMDL
MODEL 2
REMARK VINA RESULT:      -8.4      2.347      3.526
REMARK  Name = 
REMARK  5 active torsions:
REMARK  status: ('A' for Active; 'I' for Inactive)
REMARK    1  A    between atoms: C_1  and  C_2
REMARK    2  A    between atoms: C_13  and  S_14
REMARK    3  A    between atoms: S_14  and  N_17
REMARK    4  A    between atoms: N_17  and  C_18
REMARK    5  A    between atoms: C_21  and  C_22
REMARK                            x       y       z     vdW  Elec       q    Type
REMARK                         _______ _______ _______ _____ _____    ______ ____
ROOT
ATOM      1  C   UNL     1       6.371   5.493  19.448  0.00  0.00    +0.000 C 
ATOM      2  C   UNL     1       6.189   4.955  18.056  0.00  0.00    +0.000 A 
ATOM      3  C   UNL     1       7.022   5.473  17.043  0.00  0.00    +0.000 A 
ATOM      4  C   UNL     1       6.916   5.020  15.729  0.00  0.00    +0.000 A 
ATOM      5  N   UNL     1       7.743   5.559  14.741  0.00  0.00    +0.000 N 
ATOM      6  C   UNL     1       7.685   5.181  13.417  0.00  0.00    +0.000 A 
ATOM      7  O   UNL     1       8.411   5.686  12.573  0.00  0.00    +0.000 OA
ATOM      8  C   UNL     1       6.652   4.084  13.051  0.00  0.00    +0.000 A 
ATOM      9  O   UNL     1       6.515   3.693  11.900  0.00  0.00    +0.000 OA
ATOM     10  N   UNL     1       5.887   3.582  14.082  0.00  0.00    +0.000 N 
ATOM     11  C   UNL     1       5.986   4.033  15.401  0.00  0.00    +0.000 A 
ATOM     12  C   UNL     1       5.157   3.500  16.381  0.00  0.00    +0.000 A 
ATOM     13  C   UNL     1       5.241   3.970  17.705  0.00  0.00    +0.000 A 
ATOM     14  H   UNL     1       8.424   6.274  14.963  0.00  0.00    +0.000 HD
ATOM     15  H   UNL     1       5.223   2.864  13.826  0.00  0.00    +0.000 HD
ENDROOT
BRANCH  13  16
ATOM     16  S   UNL     1       4.173   3.162  18.887  0.00  0.00    +0.000 S 
ATOM     17  O   UNL     1       3.684   1.967  18.228  0.00  0.00    +0.000 OA
ATOM     18  O   UNL     1       4.814   3.083  20.174  0.00  0.00    +0.000 OA
BRANCH  16  19
ATOM     19  N   UNL     1       2.840   4.179  18.995  0.00  0.00    +0.000 NA
ATOM     20  H   UNL     1       2.044   3.692  19.411  0.00  0.00    +0.000 HD
BRANCH  19  21
ATOM     21  C   UNL     1       2.945   5.632  19.248  0.00  0.00    +0.000 C 
ATOM     22  C   UNL     1       1.908   6.090  20.280  0.00  0.00    +0.000 C 
ATOM     23  C   UNL     1       1.835   7.608  20.408  0.00  0.00    +0.000 C 
ATOM     24  C   UNL     1       1.527   8.268  19.064  0.00  0.00    +0.000 C 
ATOM     25  C   UNL     1       1.437   9.784  19.223  0.00  0.00    +0.000 C 
ATOM     26  C   UNL     1       2.591   7.870  18.035  0.00  0.00    +0.000 C 
ATOM     27  C   UNL     1       2.707   6.350  17.903  0.00  0.00    +0.000 C 
ENDBRANCH  19  21
ENDBRANCH  16  19
ENDBRANCH  13  16
TORSDOF 3
ENDMDL
MODEL 3
REMARK VINA RESULT:      -8.3      2.210      3.185
REMARK  Name = 
REMARK  5 active torsions:
REMARK  status: ('A' for Active; 'I' for Inactive)
REMARK    1  A    between atoms: C_1  and  C_2
REMARK    2  A    between atoms: C_13  and  S_14
REMARK    3  A    between atoms: S_14  and  N_17
REMARK    4  A    between atoms: N_17  and  C_18
REMARK    5  A    between atoms: C_21  and  C_22
REMARK                            x       y       z     vdW  Elec       q    Type
REMARK                         _______ _______ _______ _____ _____    ______ ____
ROOT
ATOM      1  C   UNL     1       6.758   5.632  19.495  0.00  0.00    +0.000 C 
ATOM      2  C   UNL     1       6.356   5.108  18.144  0.00  0.00    +0.000 A 
ATOM      3  C   UNL     1       7.181   5.431  17.048  0.00  0.00    +0.000 A 
ATOM      4  C   UNL     1       6.877   4.977  15.765  0.00  0.00    +0.000 A 
ATOM      5  N   UNL     1       7.702   5.323  14.694  0.00  0.00    +0.000 N 
ATOM      6  C   UNL     1       7.458   4.932  13.395  0.00  0.00    +0.000 A 
ATOM      7  O   UNL     1       8.191   5.268  12.475  0.00  0.00    +0.000 OA
ATOM      8  C   UNL     1       6.206   4.049  13.157  0.00  0.00    +0.000 A 
ATOM      9  O   UNL     1       5.897   3.664  12.037  0.00  0.00    +0.000 OA
ATOM     10  N   UNL     1       5.453   3.728  14.265  0.00  0.00    +0.000 N 
ATOM     11  C   UNL     1       5.750   4.182  15.553  0.00  0.00    +0.000 A 
ATOM     12  C   UNL     1       4.923   3.842  16.618  0.00  0.00    +0.000 A 
ATOM     13  C   UNL     1       5.211   4.317  17.911  0.00  0.00    +0.000 A 
ATOM     14  H   UNL     1       8.523   5.897  14.832  0.00  0.00    +0.000 HD
ATOM     15  H   UNL     1       4.644   3.146  14.093  0.00  0.00    +0.000 HD
ENDROOT
BRANCH  13  16
ATOM     16  S   UNL     1       4.115   3.759  19.207  0.00  0.00    +0.000 S 
ATOM     17  O   UNL     1       2.928   3.265  18.537  0.00  0.00    +0.000 OA
ATOM     18  O   UNL     1       4.827   2.933  20.147  0.00  0.00    +0.000 OA
BRANCH  16  19
ATOM     19  N   UNL     1       3.630   5.175  19.971  0.00  0.00    +0.000 NA
ATOM     20  H   UNL     1       4.416   5.615  20.452  0.00  0.00    +0.000 HD
BRANCH  19  21
ATOM     21  C   UNL     1       2.583   6.070  19.434  0.00  0.00    +0.000 C 
ATOM     22  C   UNL     1       3.107   6.883  18.245  0.00  0.00    +0.000 C 
ATOM     23  C   UNL     1       2.135   7.971  17.802  0.00  0.00    +0.000 C 
ATOM     24  C   UNL     1       1.802   8.924  18.949  0.00  0.00    +0.000 C 
ATOM     25  C   UNL     1       0.845  10.016  18.475  0.00  0.00    +0.000 C 
ATOM     26  C   UNL     1       1.217   8.134  20.126  0.00  0.00    +0.000 C 
ATOM     27  C   UNL     1       2.159   7.016  20.577  0.00  0.00    +0.000 C 
ENDBRANCH  19  21
ENDBRANCH  16  19
ENDBRANCH  13  16
TORSDOF 3
ENDMDL
MODEL 4
REMARK VINA RESULT:      -7.9      3.228      7.429
REMARK  Name = 
REMARK  5 active torsions:
REMARK  status: ('A' for Active; 'I' for Inactive)
REMARK    1  A    between atoms: C_1  and  C_2
REMARK    2  A    between atoms: C_13  and  S_14
REMARK    3  A    between atoms: S_14  and  N_17
REMARK    4  A    between atoms: N_17  and  C_18
REMARK    5  A    between atoms: C_21  and  C_22
REMARK                            x       y       z     vdW  Elec       q    Type
REMARK                         _______ _______ _______ _____ _____    ______ ____
ROOT
ATOM      1  C   UNL     1       4.663   7.157  16.179  0.00  0.00    +0.000 C 
ATOM      2  C   UNL     1       4.587   6.137  17.281  0.00  0.00    +0.000 A 
ATOM      3  C   UNL     1       3.313   5.836  17.805  0.00  0.00    +0.000 A 
ATOM      4  C   UNL     1       3.162   4.898  18.825  0.00  0.00    +0.000 A 
ATOM      5  N   UNL     1       1.892   4.629  19.336  0.00  0.00    +0.000 N 
ATOM      6  C   UNL     1       1.662   3.732  20.357  0.00  0.00    +0.000 A 
ATOM      7  O   UNL     1       0.537   3.532  20.795  0.00  0.00    +0.000 OA
ATOM      8  C   UNL     1       2.900   2.990  20.924  0.00  0.00    +0.000 A 
ATOM      9  O   UNL     1       2.800   2.187  21.842  0.00  0.00    +0.000 OA
ATOM     10  N   UNL     1       4.118   3.290  20.354  0.00  0.00    +0.000 N 
ATOM     11  C   UNL     1       4.277   4.232  19.334  0.00  0.00    +0.000 A 
ATOM     12  C   UNL     1       5.545   4.503  18.831  0.00  0.00    +0.000 A 
ATOM     13  C   UNL     1       5.707   5.467  17.818  0.00  0.00    +0.000 A 
ATOM     14  H   UNL     1       1.073   5.102  18.976  0.00  0.00    +0.000 HD
ATOM     15  H   UNL     1       4.913   2.793  20.732  0.00  0.00    +0.000 HD
ENDROOT
BRANCH  13  16
ATOM     16  S   UNL     1       7.373   5.680  17.208  0.00  0.00    +0.000 S 
ATOM     17  O   UNL     1       7.795   6.993  17.655  0.00  0.00    +0.000 OA
ATOM     18  O   UNL     1       8.167   4.514  17.495  0.00  0.00    +0.000 OA
BRANCH  16  19
ATOM     19  N   UNL     1       7.183   5.824  15.544  0.00  0.00    +0.000 NA
ATOM     20  H   UNL     1       7.669   6.651  15.193  0.00  0.00    +0.000 HD
BRANCH  19  21
ATOM     21  C   UNL     1       7.089   4.663  14.634  0.00  0.00    +0.000 C 
ATOM     22  C   UNL     1       7.451   5.055  13.198  0.00  0.00    +0.000 C 
ATOM     23  C   UNL     1       7.158   3.947  12.192  0.00  0.00    +0.000 C 
ATOM     24  C   UNL     1       5.689   3.526  12.238  0.00  0.00    +0.000 C 
ATOM     25  C   UNL     1       5.416   2.432  11.208  0.00  0.00    +0.000 C 
ATOM     26  C   UNL     1       5.325   3.070  13.656  0.00  0.00    +0.000 C 
ATOM     27  C   UNL     1       5.634   4.152  14.693  0.00  0.00    +0.000 C 
ENDBRANCH  19  21
ENDBRANCH  16  19
ENDBRANCH  13  16
TORSDOF 3
ENDMDL
MODEL 5
REMARK VINA RESULT:      -7.8      2.608      5.871
REMARK  Name = 
REMARK  5 active torsions:
REMARK  status: ('A' for Active; 'I' for Inactive)
REMARK    1  A    between atoms: C_1  and  C_2
REMARK    2  A    between atoms: C_13  and  S_14
REMARK    3  A    between atoms: S_14  and  N_17
REMARK    4  A    between atoms: N_17  and  C_18
REMARK    5  A    between atoms: C_21  and  C_22
REMARK                            x       y       z     vdW  Elec       q    Type
REMARK                         _______ _______ _______ _____ _____    ______ ____
ROOT
ATOM      1  C   UNL     1       2.269   3.337  21.576  0.00  0.00    +0.000 C 
ATOM      2  C   UNL     1       2.372   4.464  20.587  0.00  0.00    +0.000 A 
ATOM      3  C   UNL     1       1.791   5.699  20.944  0.00  0.00    +0.000 A 
ATOM      4  C   UNL     1       1.851   6.793  20.082  0.00  0.00    +0.000 A 
ATOM      5  N   UNL     1       1.255   8.000  20.452  0.00  0.00    +0.000 N 
ATOM      6  C   UNL     1       1.252   9.119  19.648  0.00  0.00    +0.000 A 
ATOM      7  O   UNL     1       0.705  10.157  19.994  0.00  0.00    +0.000 OA
ATOM      8  C   UNL     1       1.973   8.997  18.281  0.00  0.00    +0.000 A 
ATOM      9  O   UNL     1       2.011   9.931  17.491  0.00  0.00    +0.000 OA
ATOM     10  N   UNL     1       2.558   7.782  17.994  0.00  0.00    +0.000 N 
ATOM     11  C   UNL     1       2.500   6.681  18.852  0.00  0.00    +0.000 A 
ATOM     12  C   UNL     1       3.088   5.477  18.478  0.00  0.00    +0.000 A 
ATOM     13  C   UNL     1       3.011   4.362  19.333  0.00  0.00    +0.000 A 
ATOM     14  H   UNL     1       0.782   8.097  21.341  0.00  0.00    +0.000 HD
ATOM     15  H   UNL     1       3.030   7.723  17.102  0.00  0.00    +0.000 HD
ENDROOT
BRANCH  13  16
ATOM     16  S   UNL     1       3.860   2.893  18.774  0.00  0.00    +0.000 S 
ATOM     17  O   UNL     1       4.859   2.603  19.783  0.00  0.00    +0.000 OA
ATOM     18  O   UNL     1       2.912   1.888  18.366  0.00  0.00    +0.000 OA
BRANCH  16  19
ATOM     19  N   UNL     1       4.729   3.409  17.431  0.00  0.00    +0.000 NA
ATOM     20  H   UNL     1       4.104   3.611  16.649  0.00  0.00    +0.000 HD
BRANCH  19  21
ATOM     21  C   UNL     1       5.969   4.209  17.525  0.00  0.00    +0.000 C 
ATOM     22  C   UNL     1       6.087   4.888  18.894  0.00  0.00    +0.000 C 
ATOM     23  C   UNL     1       7.232   5.893  18.957  0.00  0.00    +0.000 C 
ATOM     24  C   UNL     1       7.094   6.966  17.878  0.00  0.00    +0.000 C 
ATOM     25  C   UNL     1       8.240   7.971  17.976  0.00  0.00    +0.000 C 
ATOM     26  C   UNL     1       7.037   6.308  16.495  0.00  0.00    +0.000 C 
ATOM     27  C   UNL     1       5.913   5.273  16.409  0.00  0.00    +0.000 C 
ENDBRANCH  19  21
ENDBRANCH  16  19
ENDBRANCH  13  16
TORSDOF 3
ENDMDL
MODEL 6
REMARK VINA RESULT:      -7.7      3.215      7.266
REMARK  Name = 
REMARK  5 active torsions:
REMARK  status: ('A' for Active; 'I' for Inactive)
REMARK    1  A    between atoms: C_1  and  C_2
REMARK    2  A    between atoms: C_13  and  S_14
REMARK    3  A    between atoms: S_14  and  N_17
REMARK    4  A    between atoms: N_17  and  C_18
REMARK    5  A    between atoms: C_21  and  C_22
REMARK                            x       y       z     vdW  Elec       q    Type
REMARK                         _______ _______ _______ _____ _____    ______ ____
ROOT
ATOM      1  C   UNL     1       4.393   7.361  16.337  0.00  0.00    +0.000 C 
ATOM      2  C   UNL     1       4.372   6.349  17.448  0.00  0.00    +0.000 A 
ATOM      3  C   UNL     1       3.117   5.851  17.854  0.00  0.00    +0.000 A 
ATOM      4  C   UNL     1       3.018   4.906  18.875  0.00  0.00    +0.000 A 
ATOM      5  N   UNL     1       1.763   4.440  19.268  0.00  0.00    +0.000 N 
ATOM      6  C   UNL     1       1.579   3.524  20.281  0.00  0.00    +0.000 A 
ATOM      7  O   UNL     1       0.463   3.150  20.614  0.00  0.00    +0.000 OA
ATOM      8  C   UNL     1       2.857   2.994  20.980  0.00  0.00    +0.000 A 
ATOM      9  O   UNL     1       2.797   2.190  21.901  0.00  0.00    +0.000 OA
ATOM     10  N   UNL     1       4.063   3.481  20.523  0.00  0.00    +0.000 N 
ATOM     11  C   UNL     1       4.169   4.430  19.502  0.00  0.00    +0.000 A 
ATOM     12  C   UNL     1       5.421   4.899  19.117  0.00  0.00    +0.000 A 
ATOM     13  C   UNL     1       5.527   5.870  18.105  0.00  0.00    +0.000 A 
ATOM     14  H   UNL     1       0.918   4.774  18.821  0.00  0.00    +0.000 HD
ATOM     15  H   UNL     1       4.886   3.120  20.986  0.00  0.00    +0.000 HD
ENDROOT
BRANCH  13  16
ATOM     16  S   UNL     1       7.189   6.343  17.652  0.00  0.00    +0.000 S 
ATOM     17  O   UNL     1       7.076   7.653  17.041  0.00  0.00    +0.000 OA
ATOM     18  O   UNL     1       8.093   6.119  18.750  0.00  0.00    +0.000 OA
BRANCH  16  19
ATOM     19  N   UNL     1       7.581   5.304  16.391  0.00  0.00    +0.000 NA
ATOM     20  H   UNL     1       8.046   4.466  16.743  0.00  0.00    +0.000 HD
BRANCH  19  21
ATOM     21  C   UNL     1       6.754   5.154  15.175  0.00  0.00    +0.000 C 
ATOM     22  C   UNL     1       5.862   3.910  15.263  0.00  0.00    +0.000 C 
ATOM     23  C   UNL     1       5.157   3.596  13.948  0.00  0.00    +0.000 C 
ATOM     24  C   UNL     1       6.158   3.412  12.808  0.00  0.00    +0.000 C 
ATOM     25  C   UNL     1       5.429   3.077  11.508  0.00  0.00    +0.000 C 
ATOM     26  C   UNL     1       7.018   4.672  12.664  0.00  0.00    +0.000 C 
ATOM     27  C   UNL     1       7.718   5.030  13.977  0.00  0.00    +0.000 C 
ENDBRANCH  19  21
ENDBRANCH  16  19
ENDBRANCH  13  16
TORSDOF 3
ENDMDL
MODEL 7
REMARK VINA RESULT:      -7.7      1.177      1.210
REMARK  Name = 
REMARK  5 active torsions:
REMARK  status: ('A' for Active; 'I' for Inactive)
REMARK    1  A    between atoms: C_1  and  C_2
REMARK    2  A    between atoms: C_13  and  S_14
REMARK    3  A    between atoms: S_14  and  N_17
REMARK    4  A    between atoms: N_17  and  C_18
REMARK    5  A    between atoms: C_21  and  C_22
REMARK                            x       y       z     vdW  Elec       q    Type
REMARK                         _______ _______ _______ _____ _____    ______ ____
ROOT
ATOM      1  C   UNL     1       1.032   4.399  17.628  0.00  0.00    +0.000 C 
ATOM      2  C   UNL     1       2.496   4.371  17.968  0.00  0.00    +0.000 A 
ATOM      3  C   UNL     1       3.415   4.412  16.900  0.00  0.00    +0.000 A 
ATOM      4  C   UNL     1       4.789   4.394  17.136  0.00  0.00    +0.000 A 
ATOM      5  N   UNL     1       5.677   4.421  16.061  0.00  0.00    +0.000 N 
ATOM      6  C   UNL     1       7.047   4.385  16.210  0.00  0.00    +0.000 A 
ATOM      7  O   UNL     1       7.799   4.391  15.245  0.00  0.00    +0.000 OA
ATOM      8  C   UNL     1       7.588   4.333  17.662  0.00  0.00    +0.000 A 
ATOM      9  O   UNL     1       8.788   4.283  17.897  0.00  0.00    +0.000 OA
ATOM     10  N   UNL     1       6.652   4.333  18.673  0.00  0.00    +0.000 N 
ATOM     11  C   UNL     1       5.273   4.348  18.444  0.00  0.00    +0.000 A 
ATOM     12  C   UNL     1       4.390   4.314  19.517  0.00  0.00    +0.000 A 
ATOM     13  C   UNL     1       3.002   4.307  19.284  0.00  0.00    +0.000 A 
ATOM     14  H   UNL     1       5.342   4.457  15.107  0.00  0.00    +0.000 HD
ATOM     15  H   UNL     1       7.022   4.305  19.614  0.00  0.00    +0.000 HD
ENDROOT
BRANCH  13  16
ATOM     16  S   UNL     1       1.969   4.330  20.742  0.00  0.00    +0.000 S 
ATOM     17  O   UNL     1       0.622   4.061  20.279  0.00  0.00    +0.000 OA
ATOM     18  O   UNL     1       2.559   3.536  21.790  0.00  0.00    +0.000 OA
BRANCH  16  19
ATOM     19  N   UNL     1       1.958   5.943  21.211  0.00  0.00    +0.000 NA
ATOM     20  H   UNL     1       2.845   6.200  21.649  0.00  0.00    +0.000 HD
BRANCH  19  21
ATOM     21  C   UNL     1       1.246   7.001  20.463  0.00  0.00    +0.000 C 
ATOM     22  C   UNL     1       2.178   7.696  19.464  0.00  0.00    +0.000 C 
ATOM     23  C   UNL     1       1.548   8.932  18.832  0.00  0.00    +0.000 C 
ATOM     24  C   UNL     1       1.113   9.942  19.893  0.00  0.00    +0.000 C 
ATOM     25  C   UNL     1       0.506  11.179  19.234  0.00  0.00    +0.000 C 
ATOM     26  C   UNL     1       0.130   9.281  20.866  0.00  0.00    +0.000 C 
ATOM     27  C   UNL     1       0.723   8.021  21.498  0.00  0.00    +0.000 C 
ENDBRANCH  19  21
ENDBRANCH  16  19
ENDBRANCH  13  16
TORSDOF 3
ENDMDL
MODEL 8
REMARK VINA RESULT:      -7.7      2.645      5.943
REMARK  Name = 
REMARK  5 active torsions:
REMARK  status: ('A' for Active; 'I' for Inactive)
REMARK    1  A    between atoms: C_1  and  C_2
REMARK    2  A    between atoms: C_13  and  S_14
REMARK    3  A    between atoms: S_14  and  N_17
REMARK    4  A    between atoms: N_17  and  C_18
REMARK    5  A    between atoms: C_21  and  C_22
REMARK                            x       y       z     vdW  Elec       q    Type
REMARK                         _______ _______ _______ _____ _____    ______ ____
ROOT
ATOM      1  C   UNL     1       2.471   2.898  21.088  0.00  0.00    +0.000 C 
ATOM      2  C   UNL     1       2.361   4.202  20.349  0.00  0.00    +0.000 A 
ATOM      3  C   UNL     1       1.897   5.322  21.067  0.00  0.00    +0.000 A 
ATOM      4  C   UNL     1       1.773   6.567  20.451  0.00  0.00    +0.000 A 
ATOM      5  N   UNL     1       1.297   7.657  21.181  0.00  0.00    +0.000 N 
ATOM      6  C   UNL     1       1.127   8.913  20.640  0.00  0.00    +0.000 A 
ATOM      7  O   UNL     1       0.689   9.844  21.303  0.00  0.00    +0.000 OA
ATOM      8  C   UNL     1       1.514   9.087  19.149  0.00  0.00    +0.000 A 
ATOM      9  O   UNL     1       1.384  10.160  18.575  0.00  0.00    +0.000 OA
ATOM     10  N   UNL     1       1.999   7.973  18.500  0.00  0.00    +0.000 N 
ATOM     11  C   UNL     1       2.123   6.722  19.110  0.00  0.00    +0.000 A 
ATOM     12  C   UNL     1       2.591   5.635  18.379  0.00  0.00    +0.000 A 
ATOM     13  C   UNL     1       2.695   4.371  18.988  0.00  0.00    +0.000 A 
ATOM     14  H   UNL     1       1.041   7.561  22.155  0.00  0.00    +0.000 HD
ATOM     15  H   UNL     1       2.253   8.106  17.530  0.00  0.00    +0.000 HD
ENDROOT
BRANCH  13  16
ATOM     16  S   UNL     1       3.372   3.070  17.967  0.00  0.00    +0.000 S 
ATOM     17  O   UNL     1       3.656   1.968  18.865  0.00  0.00    +0.000 OA
ATOM     18  O   UNL     1       2.556   2.873  16.796  0.00  0.00    +0.000 OA
BRANCH  16  19
ATOM     19  N   UNL     1       4.876   3.655  17.502  0.00  0.00    +0.000 NA
ATOM     20  H   UNL     1       5.104   3.356  16.552  0.00  0.00    +0.000 HD
BRANCH  19  21
ATOM     21  C   UNL     1       5.411   4.961  17.942  0.00  0.00    +0.000 C 
ATOM     22  C   UNL     1       5.296   6.010  16.830  0.00  0.00    +0.000 C 
ATOM     23  C   UNL     1       6.030   7.304  17.161  0.00  0.00    +0.000 C 
ATOM     24  C   UNL     1       7.508   7.049  17.454  0.00  0.00    +0.000 C 
ATOM     25  C   UNL     1       8.225   8.361  17.761  0.00  0.00    +0.000 C 
ATOM     26  C   UNL     1       7.643   6.049  18.608  0.00  0.00    +0.000 C 
ATOM     27  C   UNL     1       6.893   4.747  18.316  0.00  0.00    +0.000 C 
ENDBRANCH  19  21
ENDBRANCH  16  19
ENDBRANCH  13  16
TORSDOF 3
ENDMDL
MODEL 9
REMARK VINA RESULT:      -7.6      2.859      7.128
REMARK  Name = 
REMARK  5 active torsions:
REMARK  status: ('A' for Active; 'I' for Inactive)
REMARK    1  A    between atoms: C_1  and  C_2
REMARK    2  A    between atoms: C_13  and  S_14
REMARK    3  A    between atoms: S_14  and  N_17
REMARK    4  A    between atoms: N_17  and  C_18
REMARK    5  A    between atoms: C_21  and  C_22
REMARK                            x       y       z     vdW  Elec       q    Type
REMARK                         _______ _______ _______ _____ _____    ______ ____
ROOT
ATOM      1  C   UNL     1       3.111   7.811  17.492  0.00  0.00    +0.000 C 
ATOM      2  C   UNL     1       3.720   6.557  18.055  0.00  0.00    +0.000 A 
ATOM      3  C   UNL     1       2.964   5.830  18.997  0.00  0.00    +0.000 A 
ATOM      4  C   UNL     1       3.460   4.655  19.559  0.00  0.00    +0.000 A 
ATOM      5  N   UNL     1       2.697   3.963  20.501  0.00  0.00    +0.000 N 
ATOM      6  C   UNL     1       3.125   2.807  21.118  0.00  0.00    +0.000 A 
ATOM      7  O   UNL     1       2.440   2.233  21.954  0.00  0.00    +0.000 OA
ATOM      8  C   UNL     1       4.519   2.271  20.703  0.00  0.00    +0.000 A 
ATOM      9  O   UNL     1       4.992   1.260  21.205  0.00  0.00    +0.000 OA
ATOM     10  N   UNL     1       5.204   2.994  19.750  0.00  0.00    +0.000 N 
ATOM     11  C   UNL     1       4.714   4.175  19.184  0.00  0.00    +0.000 A 
ATOM     12  C   UNL     1       5.479   4.867  18.251  0.00  0.00    +0.000 A 
ATOM     13  C   UNL     1       4.995   6.067  17.698  0.00  0.00    +0.000 A 
ATOM     14  H   UNL     1       1.785   4.297  20.782  0.00  0.00    +0.000 HD
ATOM     15  H   UNL     1       6.108   2.627  19.487  0.00  0.00    +0.000 HD
ENDROOT
BRANCH  13  16
ATOM     16  S   UNL     1       6.036   6.829  16.463  0.00  0.00    +0.000 S 
ATOM     17  O   UNL     1       5.226   6.924  15.264  0.00  0.00    +0.000 OA
ATOM     18  O   UNL     1       6.690   7.993  17.004  0.00  0.00    +0.000 OA
BRANCH  16  19
ATOM     19  N   UNL     1       7.190   5.656  16.120  0.00  0.00    +0.000 NA
ATOM     20  H   UNL     1       7.710   5.402  16.962  0.00  0.00    +0.000 HD
BRANCH  19  21
ATOM     21  C   UNL     1       6.998   4.600  15.104  0.00  0.00    +0.000 C 
ATOM     22  C   UNL     1       7.417   5.089  13.713  0.00  0.00    +0.000 C 
ATOM     23  C   UNL     1       7.032   4.114  12.605  0.00  0.00    +0.000 C 
ATOM     24  C   UNL     1       5.530   3.833  12.604  0.00  0.00    +0.000 C 
ATOM     25  C   UNL     1       5.168   2.872  11.473  0.00  0.00    +0.000 C 
ATOM     26  C   UNL     1       5.104   3.284  13.970  0.00  0.00    +0.000 C 
ATOM     27  C   UNL     1       5.500   4.228  15.106  0.00  0.00    +0.000 C 
ENDBRANCH  19  21
ENDBRANCH  16  19
ENDBRANCH  13  16
TORSDOF 3
ENDMDL
