MODEL 1
REMARK VINA RESULT:      -8.5      0.000      0.000
REMARK  Name = 
REMARK  12 active torsions:
REMARK  status: ('A' for Active; 'I' for Inactive)
REMARK    1  A    between atoms: C_1  and  O_2
REMARK    2  A    between atoms: O_2  and  C_3
REMARK    3  A    between atoms: C_6  and  C_7
REMARK    4  A    between atoms: C_7  and  C_8
REMARK    5  A    between atoms: C_7  and  C_26
REMARK    6  A    between atoms: C_11  and  O_12
REMARK    7  A    between atoms: O_12  and  C_13
REMARK    8  A    between atoms: C_13  and  C_14
REMARK    9  A    between atoms: C_14  and  O_15
REMARK   10  A    between atoms: C_14  and  C_16
REMARK   11  A    between atoms: C_16  and  N_17
REMARK   12  A    between atoms: N_17  and  C_18
REMARK                            x       y       z     vdW  Elec       q    Type
REMARK                         _______ _______ _______ _____ _____    ______ ____
ROOT
ATOM      1  C   UNL     1       2.823   6.635  18.990  0.00  0.00    +0.000 A 
ATOM      2  C   UNL     1       2.788   7.444  17.844  0.00  0.00    +0.000 A 
ATOM      3  C   UNL     1       2.129   8.664  17.851  0.00  0.00    +0.000 A 
ATOM      4  C   UNL     1       1.507   9.130  19.004  0.00  0.00    +0.000 A 
ATOM      5  C   UNL     1       1.530   8.338  20.156  0.00  0.00    +0.000 A 
ATOM      6  C   UNL     1       2.186   7.097  20.153  0.00  0.00    +0.000 A 
ENDROOT
BRANCH   1   7
ATOM      7  C   UNL     1       3.627   5.325  18.977  0.00  0.00    +0.000 C 
BRANCH   7  11
ATOM      8  C   UNL     1       6.669   5.425  15.858  0.00  0.00    +0.000 A 
ATOM      9  C   UNL     1       5.515   4.654  15.705  0.00  0.00    +0.000 A 
ATOM     10  C   UNL     1       4.526   4.637  16.695  0.00  0.00    +0.000 A 
ATOM     11  C   UNL     1       4.688   5.380  17.869  0.00  0.00    +0.000 A 
ATOM     12  C   UNL     1       5.863   6.141  18.017  0.00  0.00    +0.000 A 
ATOM     13  C   UNL     1       6.844   6.165  17.023  0.00  0.00    +0.000 A 
BRANCH   8  15
ATOM     14  C   UNL     1       7.098   4.729  13.640  0.00  0.00    +0.000 C 
ATOM     15  O   UNL     1       7.572   5.345  14.834  0.00  0.00    +0.000 OA
ENDBRANCH   8  15
ENDBRANCH   7  11
BRANCH   7  16
ATOM     16  C   UNL     1       2.730   4.075  18.899  0.00  0.00    +0.000 A 
ATOM     17  C   UNL     1       1.454   3.924  18.379  0.00  0.00    +0.000 A 
ATOM     18  C   UNL     1       0.885   2.650  18.669  0.00  0.00    +0.000 A 
ATOM     19  C   UNL     1       1.761   1.839  19.351  0.00  0.00    +0.000 A 
ATOM     20  S   UNL     1       3.286   2.577  19.560  0.00  0.00    +0.000 S 
ENDBRANCH   7  16
ENDBRANCH   1   7
BRANCH   4  21
ATOM     21  O   UNL     1       0.868  10.343  19.092  0.00  0.00    +0.000 OA
BRANCH  21  22
ATOM     22  C   UNL     1      -0.302  10.326  19.928  0.00  0.00    +0.000 C 
BRANCH  22  23
ATOM     23  C   UNL     1      -0.796  11.740  20.219  0.00  0.00    +0.000 C 
BRANCH  23  24
ATOM     24  O   UNL     1       0.298  12.533  20.700  0.00  0.00    +0.000 OA
ATOM     25  H   UNL     1       0.648  13.009  19.921  0.00  0.00    +0.000 HD
ENDBRANCH  23  24
BRANCH  23  26
ATOM     26  C   UNL     1      -1.408  12.436  18.989  0.00  0.00    +0.000 C 
BRANCH  26  27
ATOM     27  N   UNL     1      -1.374  11.621  17.759  0.00  0.00    +0.000 NA
ATOM     28  H   UNL     1      -0.437  11.248  17.636  0.00  0.00    +0.000 HD
BRANCH  27  29
ATOM     29  C   UNL     1      -2.328  10.498  17.822  0.00  0.00    +0.000 C 
ATOM     30  C   UNL     1      -3.799  10.930  17.986  0.00  0.00    +0.000 C 
ATOM     31  C   UNL     1      -4.371  11.633  16.760  0.00  0.00    +0.000 C 
ATOM     32  C   UNL     1      -4.181  10.820  15.482  0.00  0.00    +0.000 C 
ATOM     33  C   UNL     1      -2.748  10.332  15.298  0.00  0.00    +0.000 C 
ATOM     34  C   UNL     1      -2.207   9.638  16.550  0.00  0.00    +0.000 C 
ENDBRANCH  27  29
ENDBRANCH  26  27
ENDBRANCH  23  26
ENDBRANCH  22  23
ENDBRANCH  21  22
ENDBRANCH   4  21
TORSDOF 11
ENDMDL
MODEL 2
REMARK VINA RESULT:      -8.4      0.999      1.021
REMARK  Name = 
REMARK  12 active torsions:
REMARK  status: ('A' for Active; 'I' for Inactive)
REMARK    1  A    between atoms: C_1  and  O_2
REMARK    2  A    between atoms: O_2  and  C_3
REMARK    3  A    between atoms: C_6  and  C_7
REMARK    4  A    between atoms: C_7  and  C_8
REMARK    5  A    between atoms: C_7  and  C_26
REMARK    6  A    between atoms: C_11  and  O_12
REMARK    7  A    between atoms: O_12  and  C_13
REMARK    8  A    between atoms: C_13  and  C_14
REMARK    9  A    between atoms: C_14  and  O_15
REMARK   10  A    between atoms: C_14  and  C_16
REMARK   11  A    between atoms: C_16  and  N_17
REMARK   12  A    between atoms: N_17  and  C_18
REMARK                            x       y       z     vdW  Elec       q    Type
REMARK                         _______ _______ _______ _____ _____    ______ ____
ROOT
ATOM      1  C   UNL     1       2.505   6.857  19.569  0.00  0.00    +0.000 A 
ATOM      2  C   UNL     1       2.489   7.676  18.429  0.00  0.00    +0.000 A 
ATOM      3  C   UNL     1       1.797   8.878  18.424  0.00  0.00    +0.000 A 
ATOM      4  C   UNL     1       1.123   9.317  19.559  0.00  0.00    +0.000 A 
ATOM      5  C   UNL     1       1.129   8.514  20.704  0.00  0.00    +0.000 A 
ATOM      6  C   UNL     1       1.817   7.291  20.713  0.00  0.00    +0.000 A 
ENDROOT
BRANCH   1   7
ATOM      7  C   UNL     1       3.344   5.569  19.572  0.00  0.00    +0.000 C 
BRANCH   7  11
ATOM      8  C   UNL     1       6.464   5.777  16.536  0.00  0.00    +0.000 A 
ATOM      9  C   UNL     1       5.119   5.933  16.189  0.00  0.00    +0.000 A 
ATOM     10  C   UNL     1       4.117   5.889  17.165  0.00  0.00    +0.000 A 
ATOM     11  C   UNL     1       4.445   5.666  18.507  0.00  0.00    +0.000 A 
ATOM     12  C   UNL     1       5.804   5.496  18.839  0.00  0.00    +0.000 A 
ATOM     13  C   UNL     1       6.803   5.551  17.865  0.00  0.00    +0.000 A 
BRANCH   8  15
ATOM     14  C   UNL     1       7.111   4.886  14.444  0.00  0.00    +0.000 C 
ATOM     15  O   UNL     1       7.349   5.819  15.493  0.00  0.00    +0.000 OA
ENDBRANCH   8  15
ENDBRANCH   7  11
BRANCH   7  16
ATOM     16  C   UNL     1       2.485   4.297  19.444  0.00  0.00    +0.000 A 
ATOM     17  C   UNL     1       1.564   3.937  18.471  0.00  0.00    +0.000 A 
ATOM     18  C   UNL     1       0.833   2.762  18.811  0.00  0.00    +0.000 A 
ATOM     19  C   UNL     1       1.252   2.221  20.003  0.00  0.00    +0.000 A 
ATOM     20  S   UNL     1       2.577   3.073  20.662  0.00  0.00    +0.000 S 
ENDBRANCH   7  16
ENDBRANCH   1   7
BRANCH   4  21
ATOM     21  O   UNL     1       0.450  10.511  19.636  0.00  0.00    +0.000 OA
BRANCH  21  22
ATOM     22  C   UNL     1       1.058  11.573  18.881  0.00  0.00    +0.000 C 
BRANCH  22  23
ATOM     23  C   UNL     1       0.383  12.912  19.164  0.00  0.00    +0.000 C 
BRANCH  23  24
ATOM     24  O   UNL     1       1.066  13.947  18.442  0.00  0.00    +0.000 OA
ATOM     25  H   UNL     1       1.945  14.031  18.861  0.00  0.00    +0.000 HD
ENDBRANCH  23  24
BRANCH  23  26
ATOM     26  C   UNL     1      -1.106  12.937  18.774  0.00  0.00    +0.000 C 
BRANCH  26  27
ATOM     27  N   UNL     1      -1.423  12.148  17.567  0.00  0.00    +0.000 NA
ATOM     28  H   UNL     1      -0.558  11.813  17.154  0.00  0.00    +0.000 HD
BRANCH  27  29
ATOM     29  C   UNL     1      -2.280  10.989  17.882  0.00  0.00    +0.000 C 
ATOM     30  C   UNL     1      -3.785  11.319  17.952  0.00  0.00    +0.000 C 
ATOM     31  C   UNL     1      -4.396  11.680  16.602  0.00  0.00    +0.000 C 
ATOM     32  C   UNL     1      -4.118  10.623  15.536  0.00  0.00    +0.000 C 
ATOM     33  C   UNL     1      -2.646  10.231  15.460  0.00  0.00    +0.000 C 
ATOM     34  C   UNL     1      -2.067   9.882  16.834  0.00  0.00    +0.000 C 
ENDBRANCH  27  29
ENDBRANCH  26  27
ENDBRANCH  23  26
ENDBRANCH  22  23
ENDBRANCH  21  22
ENDBRANCH   4  21
TORSDOF 11
ENDMDL
MODEL 3
REMARK VINA RESULT:      -8.3      1.164      1.440
REMARK  Name = 
REMARK  12 active torsions:
REMARK  status: ('A' for Active; 'I' for Inactive)
REMARK    1  A    between atoms: C_1  and  O_2
REMARK    2  A    between atoms: O_2  and  C_3
REMARK    3  A    between atoms: C_6  and  C_7
REMARK    4  A    between atoms: C_7  and  C_8
REMARK    5  A    between atoms: C_7  and  C_26
REMARK    6  A    between atoms: C_11  and  O_12
REMARK    7  A    between atoms: O_12  and  C_13
REMARK    8  A    between atoms: C_13  and  C_14
REMARK    9  A    between atoms: C_14  and  O_15
REMARK   10  A    between atoms: C_14  and  C_16
REMARK   11  A    between atoms: C_16  and  N_17
REMARK   12  A    between atoms: N_17  and  C_18
REMARK                            x       y       z     vdW  Elec       q    Type
REMARK                         _______ _______ _______ _____ _____    ______ ____
ROOT
ATOM      1  C   UNL     1       2.268   7.207  19.600  0.00  0.00    +0.000 A 
ATOM      2  C   UNL     1       2.199   7.903  18.383  0.00  0.00    +0.000 A 
ATOM      3  C   UNL     1       1.587   9.144  18.304  0.00  0.00    +0.000 A 
ATOM      4  C   UNL     1       1.048   9.745  19.437  0.00  0.00    +0.000 A 
ATOM      5  C   UNL     1       1.108   9.067  20.659  0.00  0.00    +0.000 A 
ATOM      6  C   UNL     1       1.716   7.806  20.744  0.00  0.00    +0.000 A 
ENDROOT
BRANCH   1   7
ATOM      7  C   UNL     1       3.022   5.869  19.673  0.00  0.00    +0.000 C 
BRANCH   7  11
ATOM      8  C   UNL     1       6.324   5.836  16.830  0.00  0.00    +0.000 A 
ATOM      9  C   UNL     1       5.078   6.354  16.470  0.00  0.00    +0.000 A 
ATOM     10  C   UNL     1       4.022   6.386  17.388  0.00  0.00    +0.000 A 
ATOM     11  C   UNL     1       4.192   5.879  18.681  0.00  0.00    +0.000 A 
ATOM     12  C   UNL     1       5.450   5.345  19.024  0.00  0.00    +0.000 A 
ATOM     13  C   UNL     1       6.505   5.324  18.110  0.00  0.00    +0.000 A 
BRANCH   8  15
ATOM     14  C   UNL     1       7.131   4.828  14.849  0.00  0.00    +0.000 C 
ATOM     15  O   UNL     1       7.271   5.839  15.842  0.00  0.00    +0.000 OA
ENDBRANCH   8  15
ENDBRANCH   7  11
BRANCH   7  16
ATOM     16  C   UNL     1       2.093   4.651  19.506  0.00  0.00    +0.000 A 
ATOM     17  C   UNL     1       1.223   4.063  20.411  0.00  0.00    +0.000 A 
ATOM     18  C   UNL     1       0.682   2.833  19.938  0.00  0.00    +0.000 A 
ATOM     19  C   UNL     1       1.104   2.541  18.662  0.00  0.00    +0.000 A 
ATOM     20  S   UNL     1       2.073   3.786  18.009  0.00  0.00    +0.000 S 
ENDBRANCH   7  16
ENDBRANCH   1   7
BRANCH   4  21
ATOM     21  O   UNL     1       0.461  10.987  19.439  0.00  0.00    +0.000 OA
BRANCH  21  22
ATOM     22  C   UNL     1      -0.706  11.078  20.274  0.00  0.00    +0.000 C 
BRANCH  22  23
ATOM     23  C   UNL     1      -1.367  12.448  20.156  0.00  0.00    +0.000 C 
BRANCH  23  24
ATOM     24  O   UNL     1      -0.676  13.222  19.165  0.00  0.00    +0.000 OA
ATOM     25  H   UNL     1      -0.044  13.783  19.656  0.00  0.00    +0.000 HD
ENDBRANCH  23  24
BRANCH  23  26
ATOM     26  C   UNL     1      -2.857  12.373  19.775  0.00  0.00    +0.000 C 
BRANCH  26  27
ATOM     27  N   UNL     1      -3.100  12.273  18.322  0.00  0.00    +0.000 NA
ATOM     28  H   UNL     1      -2.208  12.235  17.839  0.00  0.00    +0.000 HD
BRANCH  27  29
ATOM     29  C   UNL     1      -3.877  11.067  17.981  0.00  0.00    +0.000 C 
ATOM     30  C   UNL     1      -4.580  11.137  16.610  0.00  0.00    +0.000 C 
ATOM     31  C   UNL     1      -3.617  11.117  15.427  0.00  0.00    +0.000 C 
ATOM     32  C   UNL     1      -2.650   9.938  15.484  0.00  0.00    +0.000 C 
ATOM     33  C   UNL     1      -1.962   9.801  16.839  0.00  0.00    +0.000 C 
ATOM     34  C   UNL     1      -2.959   9.831  18.000  0.00  0.00    +0.000 C 
ENDBRANCH  27  29
ENDBRANCH  26  27
ENDBRANCH  23  26
ENDBRANCH  22  23
ENDBRANCH  21  22
ENDBRANCH   4  21
TORSDOF 11
ENDMDL
MODEL 4
REMARK VINA RESULT:      -8.3      3.463      9.187
REMARK  Name = 
REMARK  12 active torsions:
REMARK  status: ('A' for Active; 'I' for Inactive)
REMARK    1  A    between atoms: C_1  and  O_2
REMARK    2  A    between atoms: O_2  and  C_3
REMARK    3  A    between atoms: C_6  and  C_7
REMARK    4  A    between atoms: C_7  and  C_8
REMARK    5  A    between atoms: C_7  and  C_26
REMARK    6  A    between atoms: C_11  and  O_12
REMARK    7  A    between atoms: O_12  and  C_13
REMARK    8  A    between atoms: C_13  and  C_14
REMARK    9  A    between atoms: C_14  and  O_15
REMARK   10  A    between atoms: C_14  and  C_16
REMARK   11  A    between atoms: C_16  and  N_17
REMARK   12  A    between atoms: N_17  and  C_18
REMARK                            x       y       z     vdW  Elec       q    Type
REMARK                         _______ _______ _______ _____ _____    ______ ____
ROOT
ATOM      1  C   UNL     1       1.117   9.669  19.417  0.00  0.00    +0.000 A 
ATOM      2  C   UNL     1       1.203   8.722  20.449  0.00  0.00    +0.000 A 
ATOM      3  C   UNL     1       1.904   7.538  20.275  0.00  0.00    +0.000 A 
ATOM      4  C   UNL     1       2.564   7.271  19.081  0.00  0.00    +0.000 A 
ATOM      5  C   UNL     1       2.491   8.204  18.041  0.00  0.00    +0.000 A 
ATOM      6  C   UNL     1       1.774   9.399  18.206  0.00  0.00    +0.000 A 
ENDROOT
BRANCH   1   7
ATOM      7  C   UNL     1       0.399  11.006  19.665  0.00  0.00    +0.000 C 
BRANCH   7  11
ATOM      8  C   UNL     1      -3.442  10.993  17.606  0.00  0.00    +0.000 A 
ATOM      9  C   UNL     1      -3.203  11.871  18.666  0.00  0.00    +0.000 A 
ATOM     10  C   UNL     1      -1.964  11.892  19.315  0.00  0.00    +0.000 A 
ATOM     11  C   UNL     1      -0.945  11.017  18.923  0.00  0.00    +0.000 A 
ATOM     12  C   UNL     1      -1.204  10.128  17.863  0.00  0.00    +0.000 A 
ATOM     13  C   UNL     1      -2.439  10.115  17.210  0.00  0.00    +0.000 A 
BRANCH   8  15
ATOM     14  C   UNL     1      -5.773  11.026  17.999  0.00  0.00    +0.000 C 
ATOM     15  O   UNL     1      -4.697  11.050  17.066  0.00  0.00    +0.000 OA
ENDBRANCH   8  15
ENDBRANCH   7  11
BRANCH   7  16
ATOM     16  C   UNL     1       1.282  12.226  19.342  0.00  0.00    +0.000 A 
ATOM     17  C   UNL     1       1.786  12.666  18.127  0.00  0.00    +0.000 A 
ATOM     18  C   UNL     1       2.723  13.730  18.271  0.00  0.00    +0.000 A 
ATOM     19  C   UNL     1       2.868  14.116  19.582  0.00  0.00    +0.000 A 
ATOM     20  S   UNL     1       1.815  13.262  20.620  0.00  0.00    +0.000 S 
ENDBRANCH   7  16
ENDBRANCH   1   7
BRANCH   4  21
ATOM     21  O   UNL     1       3.307   6.138  18.853  0.00  0.00    +0.000 OA
BRANCH  21  22
ATOM     22  C   UNL     1       3.837   6.047  17.520  0.00  0.00    +0.000 C 
BRANCH  22  23
ATOM     23  C   UNL     1       5.043   5.114  17.465  0.00  0.00    +0.000 C 
BRANCH  23  24
ATOM     24  O   UNL     1       6.099   5.658  18.269  0.00  0.00    +0.000 OA
ATOM     25  H   UNL     1       6.011   6.630  18.205  0.00  0.00    +0.000 HD
ENDBRANCH  23  24
BRANCH  23  26
ATOM     26  C   UNL     1       4.732   3.688  17.958  0.00  0.00    +0.000 C 
BRANCH  26  27
ATOM     27  N   UNL     1       4.383   3.612  19.390  0.00  0.00    +0.000 NA
ATOM     28  H   UNL     1       3.933   4.479  19.668  0.00  0.00    +0.000 HD
BRANCH  27  29
ATOM     29  C   UNL     1       3.465   2.491  19.669  0.00  0.00    +0.000 C 
ATOM     30  C   UNL     1       2.829   2.532  21.074  0.00  0.00    +0.000 C 
ATOM     31  C   UNL     1       1.838   3.676  21.263  0.00  0.00    +0.000 C 
ATOM     32  C   UNL     1       0.765   3.702  20.177  0.00  0.00    +0.000 C 
ATOM     33  C   UNL     1       1.346   3.618  18.769  0.00  0.00    +0.000 C 
ATOM     34  C   UNL     1       2.339   2.463  18.620  0.00  0.00    +0.000 C 
ENDBRANCH  27  29
ENDBRANCH  26  27
ENDBRANCH  23  26
ENDBRANCH  22  23
ENDBRANCH  21  22
ENDBRANCH   4  21
TORSDOF 11
ENDMDL
MODEL 5
REMARK VINA RESULT:      -8.3      0.864      1.365
REMARK  Name = 
REMARK  12 active torsions:
REMARK  status: ('A' for Active; 'I' for Inactive)
REMARK    1  A    between atoms: C_1  and  O_2
REMARK    2  A    between atoms: O_2  and  C_3
REMARK    3  A    between atoms: C_6  and  C_7
REMARK    4  A    between atoms: C_7  and  C_8
REMARK    5  A    between atoms: C_7  and  C_26
REMARK    6  A    between atoms: C_11  and  O_12
REMARK    7  A    between atoms: O_12  and  C_13
REMARK    8  A    between atoms: C_13  and  C_14
REMARK    9  A    between atoms: C_14  and  O_15
REMARK   10  A    between atoms: C_14  and  C_16
REMARK   11  A    between atoms: C_16  and  N_17
REMARK   12  A    between atoms: N_17  and  C_18
REMARK                            x       y       z     vdW  Elec       q    Type
REMARK                         _______ _______ _______ _____ _____    ______ ____
ROOT
ATOM      1  C   UNL     1       3.217   6.507  18.700  0.00  0.00    +0.000 A 
ATOM      2  C   UNL     1       2.381   6.898  19.759  0.00  0.00    +0.000 A 
ATOM      3  C   UNL     1       1.743   8.129  19.747  0.00  0.00    +0.000 A 
ATOM      4  C   UNL     1       1.894   8.999  18.672  0.00  0.00    +0.000 A 
ATOM      5  C   UNL     1       2.723   8.627  17.608  0.00  0.00    +0.000 A 
ATOM      6  C   UNL     1       3.380   7.387  17.618  0.00  0.00    +0.000 A 
ENDROOT
BRANCH   1   7
ATOM      7  C   UNL     1       3.848   5.105  18.703  0.00  0.00    +0.000 C 
BRANCH   7  11
ATOM      8  C   UNL     1       6.574   4.643  15.334  0.00  0.00    +0.000 A 
ATOM      9  C   UNL     1       5.197   4.480  15.166  0.00  0.00    +0.000 A 
ATOM     10  C   UNL     1       4.317   4.650  16.241  0.00  0.00    +0.000 A 
ATOM     11  C   UNL     1       4.807   4.967  17.513  0.00  0.00    +0.000 A 
ATOM     12  C   UNL     1       6.198   5.113  17.671  0.00  0.00    +0.000 A 
ATOM     13  C   UNL     1       7.073   4.954  16.594  0.00  0.00    +0.000 A 
BRANCH   8  15
ATOM     14  C   UNL     1       6.639   3.902  13.091  0.00  0.00    +0.000 C 
ATOM     15  O   UNL     1       7.333   4.432  14.216  0.00  0.00    +0.000 OA
ENDBRANCH   8  15
ENDBRANCH   7  11
BRANCH   7  16
ATOM     16  C   UNL     1       2.800   3.979  18.775  0.00  0.00    +0.000 A 
ATOM     17  C   UNL     1       1.498   3.941  18.298  0.00  0.00    +0.000 A 
ATOM     18  C   UNL     1       0.784   2.787  18.732  0.00  0.00    +0.000 A 
ATOM     19  C   UNL     1       1.573   1.944  19.480  0.00  0.00    +0.000 A 
ATOM     20  S   UNL     1       3.185   2.498  19.580  0.00  0.00    +0.000 S 
ENDBRANCH   7  16
ENDBRANCH   1   7
BRANCH   4  21
ATOM     21  O   UNL     1       1.265  10.216  18.578  0.00  0.00    +0.000 OA
BRANCH  21  22
ATOM     22  C   UNL     1       0.101  10.337  19.414  0.00  0.00    +0.000 C 
BRANCH  22  23
ATOM     23  C   UNL     1      -0.488  11.742  19.345  0.00  0.00    +0.000 C 
BRANCH  23  24
ATOM     24  O   UNL     1      -0.152  12.335  18.082  0.00  0.00    +0.000 OA
ATOM     25  H   UNL     1       0.620  12.910  18.253  0.00  0.00    +0.000 HD
ENDBRANCH  23  24
BRANCH  23  26
ATOM     26  C   UNL     1      -2.019  11.769  19.512  0.00  0.00    +0.000 C 
BRANCH  26  27
ATOM     27  N   UNL     1      -2.751  12.100  18.274  0.00  0.00    +0.000 NA
ATOM     28  H   UNL     1      -2.091  12.153  17.503  0.00  0.00    +0.000 HD
BRANCH  27  29
ATOM     29  C   UNL     1      -3.772  11.084  17.956  0.00  0.00    +0.000 C 
ATOM     30  C   UNL     1      -4.548  11.357  16.651  0.00  0.00    +0.000 C 
ATOM     31  C   UNL     1      -3.698  11.213  15.393  0.00  0.00    +0.000 C 
ATOM     32  C   UNL     1      -2.979   9.868  15.328  0.00  0.00    +0.000 C 
ATOM     33  C   UNL     1      -2.232   9.533  16.615  0.00  0.00    +0.000 C 
ATOM     34  C   UNL     1      -3.114   9.695  17.855  0.00  0.00    +0.000 C 
ENDBRANCH  27  29
ENDBRANCH  26  27
ENDBRANCH  23  26
ENDBRANCH  22  23
ENDBRANCH  21  22
ENDBRANCH   4  21
TORSDOF 11
ENDMDL
MODEL 6
REMARK VINA RESULT:      -8.3      2.255      2.953
REMARK  Name = 
REMARK  12 active torsions:
REMARK  status: ('A' for Active; 'I' for Inactive)
REMARK    1  A    between atoms: C_1  and  O_2
REMARK    2  A    between atoms: O_2  and  C_3
REMARK    3  A    between atoms: C_6  and  C_7
REMARK    4  A    between atoms: C_7  and  C_8
REMARK    5  A    between atoms: C_7  and  C_26
REMARK    6  A    between atoms: C_11  and  O_12
REMARK    7  A    between atoms: O_12  and  C_13
REMARK    8  A    between atoms: C_13  and  C_14
REMARK    9  A    between atoms: C_14  and  O_15
REMARK   10  A    between atoms: C_14  and  C_16
REMARK   11  A    between atoms: C_16  and  N_17
REMARK   12  A    between atoms: N_17  and  C_18
REMARK                            x       y       z     vdW  Elec       q    Type
REMARK                         _______ _______ _______ _____ _____    ______ ____
ROOT
ATOM      1  C   UNL     1       2.732   6.853  18.997  0.00  0.00    +0.000 A 
ATOM      2  C   UNL     1       2.702   7.586  17.800  0.00  0.00    +0.000 A 
ATOM      3  C   UNL     1       2.018   8.790  17.718  0.00  0.00    +0.000 A 
ATOM      4  C   UNL     1       1.365   9.315  18.829  0.00  0.00    +0.000 A 
ATOM      5  C   UNL     1       1.384   8.598  20.030  0.00  0.00    +0.000 A 
ATOM      6  C   UNL     1       2.065   7.374  20.117  0.00  0.00    +0.000 A 
ENDROOT
BRANCH   1   7
ATOM      7  C   UNL     1       3.563   5.562  19.081  0.00  0.00    +0.000 C 
BRANCH   7  11
ATOM      8  C   UNL     1       6.659   5.529  16.014  0.00  0.00    +0.000 A 
ATOM      9  C   UNL     1       5.490   4.781  15.856  0.00  0.00    +0.000 A 
ATOM     10  C   UNL     1       4.484   4.807  16.828  0.00  0.00    +0.000 A 
ATOM     11  C   UNL     1       4.643   5.570  17.990  0.00  0.00    +0.000 A 
ATOM     12  C   UNL     1       5.833   6.307  18.143  0.00  0.00    +0.000 A 
ATOM     13  C   UNL     1       6.830   6.289  17.166  0.00  0.00    +0.000 A 
BRANCH   8  15
ATOM     14  C   UNL     1       7.104   4.790  13.813  0.00  0.00    +0.000 C 
ATOM     15  O   UNL     1       7.576   5.407  15.007  0.00  0.00    +0.000 OA
ENDBRANCH   8  15
ENDBRANCH   7  11
BRANCH   7  16
ATOM     16  C   UNL     1       2.693   4.291  19.066  0.00  0.00    +0.000 A 
ATOM     17  C   UNL     1       1.502   4.033  18.405  0.00  0.00    +0.000 A 
ATOM     18  C   UNL     1       0.907   2.799  18.800  0.00  0.00    +0.000 A 
ATOM     19  C   UNL     1       1.685   2.119  19.707  0.00  0.00    +0.000 A 
ATOM     20  S   UNL     1       3.162   2.920  20.010  0.00  0.00    +0.000 S 
ENDBRANCH   7  16
ENDBRANCH   1   7
BRANCH   4  21
ATOM     21  O   UNL     1       0.700  10.517  18.828  0.00  0.00    +0.000 OA
BRANCH  21  22
ATOM     22  C   UNL     1       1.319  11.526  19.644  0.00  0.00    +0.000 C 
BRANCH  22  23
ATOM     23  C   UNL     1       1.161  12.912  19.028  0.00  0.00    +0.000 C 
BRANCH  23  24
ATOM     24  O   UNL     1       1.741  12.915  17.716  0.00  0.00    +0.000 OA
ATOM     25  H   UNL     1       1.779  13.853  17.442  0.00  0.00    +0.000 HD
ENDBRANCH  23  24
BRANCH  23  26
ATOM     26  C   UNL     1      -0.307  13.366  18.920  0.00  0.00    +0.000 C 
BRANCH  26  27
ATOM     27  N   UNL     1      -1.193  12.777  19.942  0.00  0.00    +0.000 NA
ATOM     28  H   UNL     1      -0.763  11.931  20.305  0.00  0.00    +0.000 HD
BRANCH  27  29
ATOM     29  C   UNL     1      -1.429  13.709  21.062  0.00  0.00    +0.000 C 
ATOM     30  C   UNL     1      -2.917  13.902  21.418  0.00  0.00    +0.000 C 
ATOM     31  C   UNL     1      -3.567  12.663  22.025  0.00  0.00    +0.000 C 
ATOM     32  C   UNL     1      -2.786  12.123  23.221  0.00  0.00    +0.000 C 
ATOM     33  C   UNL     1      -1.297  11.957  22.930  0.00  0.00    +0.000 C 
ATOM     34  C   UNL     1      -0.683  13.218  22.316  0.00  0.00    +0.000 C 
ENDBRANCH  27  29
ENDBRANCH  26  27
ENDBRANCH  23  26
ENDBRANCH  22  23
ENDBRANCH  21  22
ENDBRANCH   4  21
TORSDOF 11
ENDMDL
MODEL 7
REMARK VINA RESULT:      -8.2      1.152      1.518
REMARK  Name = 
REMARK  12 active torsions:
REMARK  status: ('A' for Active; 'I' for Inactive)
REMARK    1  A    between atoms: C_1  and  O_2
REMARK    2  A    between atoms: O_2  and  C_3
REMARK    3  A    between atoms: C_6  and  C_7
REMARK    4  A    between atoms: C_7  and  C_8
REMARK    5  A    between atoms: C_7  and  C_26
REMARK    6  A    between atoms: C_11  and  O_12
REMARK    7  A    between atoms: O_12  and  C_13
REMARK    8  A    between atoms: C_13  and  C_14
REMARK    9  A    between atoms: C_14  and  O_15
REMARK   10  A    between atoms: C_14  and  C_16
REMARK   11  A    between atoms: C_16  and  N_17
REMARK   12  A    between atoms: N_17  and  C_18
REMARK                            x       y       z     vdW  Elec       q    Type
REMARK                         _______ _______ _______ _____ _____    ______ ____
ROOT
ATOM      1  C   UNL     1       2.462   7.304  19.347  0.00  0.00    +0.000 A 
ATOM      2  C   UNL     1       1.845   7.884  20.466  0.00  0.00    +0.000 A 
ATOM      3  C   UNL     1       1.157   9.083  20.359  0.00  0.00    +0.000 A 
ATOM      4  C   UNL     1       1.037   9.729  19.133  0.00  0.00    +0.000 A 
ATOM      5  C   UNL     1       1.646   9.166  18.007  0.00  0.00    +0.000 A 
ATOM      6  C   UNL     1       2.354   7.958  18.109  0.00  0.00    +0.000 A 
ENDROOT
BRANCH   1   7
ATOM      7  C   UNL     1       3.151   5.935  19.478  0.00  0.00    +0.000 C 
BRANCH   7  11
ATOM      8  C   UNL     1       6.413   5.620  16.605  0.00  0.00    +0.000 A 
ATOM      9  C   UNL     1       5.326   6.463  16.361  0.00  0.00    +0.000 A 
ATOM     10  C   UNL     1       4.288   6.583  17.292  0.00  0.00    +0.000 A 
ATOM     11  C   UNL     1       4.312   5.842  18.478  0.00  0.00    +0.000 A 
ATOM     12  C   UNL     1       5.407   4.985  18.704  0.00  0.00    +0.000 A 
ATOM     13  C   UNL     1       6.447   4.875  17.779  0.00  0.00    +0.000 A 
BRANCH   8  15
ATOM     14  C   UNL     1       7.022   4.765  14.487  0.00  0.00    +0.000 C 
ATOM     15  O   UNL     1       7.354   5.571  15.613  0.00  0.00    +0.000 OA
ENDBRANCH   8  15
ENDBRANCH   7  11
BRANCH   7  16
ATOM     16  C   UNL     1       2.164   4.758  19.376  0.00  0.00    +0.000 A 
ATOM     17  C   UNL     1       1.433   4.118  20.365  0.00  0.00    +0.000 A 
ATOM     18  C   UNL     1       0.776   2.944  19.895  0.00  0.00    +0.000 A 
ATOM     19  C   UNL     1       0.972   2.748  18.549  0.00  0.00    +0.000 A 
ATOM     20  S   UNL     1       1.866   4.019  17.841  0.00  0.00    +0.000 S 
ENDBRANCH   7  16
ENDBRANCH   1   7
BRANCH   4  21
ATOM     21  O   UNL     1       0.341  10.898  18.948  0.00  0.00    +0.000 OA
BRANCH  21  22
ATOM     22  C   UNL     1       0.370  11.780  20.084  0.00  0.00    +0.000 C 
BRANCH  22  23
ATOM     23  C   UNL     1      -0.324  13.103  19.777  0.00  0.00    +0.000 C 
BRANCH  23  24
ATOM     24  O   UNL     1       0.356  13.754  18.694  0.00  0.00    +0.000 OA
ATOM     25  H   UNL     1       0.806  14.528  19.087  0.00  0.00    +0.000 HD
ENDBRANCH  23  24
BRANCH  23  26
ATOM     26  C   UNL     1      -1.809  12.939  19.400  0.00  0.00    +0.000 C 
BRANCH  26  27
ATOM     27  N   UNL     1      -2.028  12.288  18.094  0.00  0.00    +0.000 NA
ATOM     28  H   UNL     1      -1.128  12.032  17.698  0.00  0.00    +0.000 HD
BRANCH  27  29
ATOM     29  C   UNL     1      -2.855  11.074  18.221  0.00  0.00    +0.000 C 
ATOM     30  C   UNL     1      -4.348  11.293  17.899  0.00  0.00    +0.000 C 
ATOM     31  C   UNL     1      -4.620  11.589  16.428  0.00  0.00    +0.000 C 
ATOM     32  C   UNL     1      -4.011  10.540  15.501  0.00  0.00    +0.000 C 
ATOM     33  C   UNL     1      -2.544  10.256  15.811  0.00  0.00    +0.000 C 
ATOM     34  C   UNL     1      -2.310   9.971  17.296  0.00  0.00    +0.000 C 
ENDBRANCH  27  29
ENDBRANCH  26  27
ENDBRANCH  23  26
ENDBRANCH  22  23
ENDBRANCH  21  22
ENDBRANCH   4  21
TORSDOF 11
ENDMDL
MODEL 8
REMARK VINA RESULT:      -8.2      3.609      9.477
REMARK  Name = 
REMARK  12 active torsions:
REMARK  status: ('A' for Active; 'I' for Inactive)
REMARK    1  A    between atoms: C_1  and  O_2
REMARK    2  A    between atoms: O_2  and  C_3
REMARK    3  A    between atoms: C_6  and  C_7
REMARK    4  A    between atoms: C_7  and  C_8
REMARK    5  A    between atoms: C_7  and  C_26
REMARK    6  A    between atoms: C_11  and  O_12
REMARK    7  A    between atoms: O_12  and  C_13
REMARK    8  A    between atoms: C_13  and  C_14
REMARK    9  A    between atoms: C_14  and  O_15
REMARK   10  A    between atoms: C_14  and  C_16
REMARK   11  A    between atoms: C_16  and  N_17
REMARK   12  A    between atoms: N_17  and  C_18
REMARK                            x       y       z     vdW  Elec       q    Type
REMARK                         _______ _______ _______ _____ _____    ______ ____
ROOT
ATOM      1  C   UNL     1       1.114   9.541  19.538  0.00  0.00    +0.000 A 
ATOM      2  C   UNL     1       1.185   8.590  20.568  0.00  0.00    +0.000 A 
ATOM      3  C   UNL     1       1.788   7.359  20.363  0.00  0.00    +0.000 A 
ATOM      4  C   UNL     1       2.364   7.044  19.136  0.00  0.00    +0.000 A 
ATOM      5  C   UNL     1       2.303   7.979  18.097  0.00  0.00    +0.000 A 
ATOM      6  C   UNL     1       1.684   9.223  18.295  0.00  0.00    +0.000 A 
ENDROOT
BRANCH   1   7
ATOM      7  C   UNL     1       0.509  10.927  19.817  0.00  0.00    +0.000 C 
BRANCH   7  11
ATOM      8  C   UNL     1      -3.429  11.234  17.976  0.00  0.00    +0.000 A 
ATOM      9  C   UNL     1      -2.497  10.300  17.517  0.00  0.00    +0.000 A 
ATOM     10  C   UNL     1      -1.240  10.184  18.121  0.00  0.00    +0.000 A 
ATOM     11  C   UNL     1      -0.887  11.019  19.186  0.00  0.00    +0.000 A 
ATOM     12  C   UNL     1      -1.830  11.967  19.628  0.00  0.00    +0.000 A 
ATOM     13  C   UNL     1      -3.088  12.074  19.031  0.00  0.00    +0.000 A 
BRANCH   8  15
ATOM     14  C   UNL     1      -5.784  11.050  18.076  0.00  0.00    +0.000 C 
ATOM     15  O   UNL     1      -4.614  11.268  17.294  0.00  0.00    +0.000 OA
ENDBRANCH   8  15
ENDBRANCH   7  11
BRANCH   7  16
ATOM     16  C   UNL     1       1.442  12.079  19.403  0.00  0.00    +0.000 A 
ATOM     17  C   UNL     1       2.010  12.368  18.171  0.00  0.00    +0.000 A 
ATOM     18  C   UNL     1       2.973  13.416  18.239  0.00  0.00    +0.000 A 
ATOM     19  C   UNL     1       3.075  13.942  19.505  0.00  0.00    +0.000 A 
ATOM     20  S   UNL     1       1.953  13.237  20.582  0.00  0.00    +0.000 S 
ENDBRANCH   7  16
ENDBRANCH   1   7
BRANCH   4  21
ATOM     21  O   UNL     1       3.008   5.860  18.874  0.00  0.00    +0.000 OA
BRANCH  21  22
ATOM     22  C   UNL     1       2.143   4.712  18.877  0.00  0.00    +0.000 C 
BRANCH  22  23
ATOM     23  C   UNL     1       2.907   3.440  18.523  0.00  0.00    +0.000 C 
BRANCH  23  24
ATOM     24  O   UNL     1       1.982   2.444  18.066  0.00  0.00    +0.000 OA
ATOM     25  H   UNL     1       1.942   2.541  17.094  0.00  0.00    +0.000 HD
ENDBRANCH  23  24
BRANCH  23  26
ATOM     26  C   UNL     1       3.978   3.656  17.437  0.00  0.00    +0.000 C 
BRANCH  26  27
ATOM     27  N   UNL     1       5.324   3.939  17.971  0.00  0.00    +0.000 NA
ATOM     28  H   UNL     1       5.686   3.103  18.420  0.00  0.00    +0.000 HD
BRANCH  27  29
ATOM     29  C   UNL     1       6.259   4.349  16.906  0.00  0.00    +0.000 C 
ATOM     30  C   UNL     1       5.792   5.577  16.097  0.00  0.00    +0.000 C 
ATOM     31  C   UNL     1       5.794   6.874  16.898  0.00  0.00    +0.000 C 
ATOM     32  C   UNL     1       7.139   7.142  17.569  0.00  0.00    +0.000 C 
ATOM     33  C   UNL     1       7.663   5.939  18.346  0.00  0.00    +0.000 C 
ATOM     34  C   UNL     1       7.641   4.656  17.512  0.00  0.00    +0.000 C 
ENDBRANCH  27  29
ENDBRANCH  26  27
ENDBRANCH  23  26
ENDBRANCH  22  23
ENDBRANCH  21  22
ENDBRANCH   4  21
TORSDOF 11
ENDMDL
MODEL 9
REMARK VINA RESULT:      -8.2      1.777      2.646
REMARK  Name = 
REMARK  12 active torsions:
REMARK  status: ('A' for Active; 'I' for Inactive)
REMARK    1  A    between atoms: C_1  and  O_2
REMARK    2  A    between atoms: O_2  and  C_3
REMARK    3  A    between atoms: C_6  and  C_7
REMARK    4  A    between atoms: C_7  and  C_8
REMARK    5  A    between atoms: C_7  and  C_26
REMARK    6  A    between atoms: C_11  and  O_12
REMARK    7  A    between atoms: O_12  and  C_13
REMARK    8  A    between atoms: C_13  and  C_14
REMARK    9  A    between atoms: C_14  and  O_15
REMARK   10  A    between atoms: C_14  and  C_16
REMARK   11  A    between atoms: C_16  and  N_17
REMARK   12  A    between atoms: N_17  and  C_18
REMARK                            x       y       z     vdW  Elec       q    Type
REMARK                         _______ _______ _______ _____ _____    ______ ____
ROOT
ATOM      1  C   UNL     1       2.770   6.966  19.208  0.00  0.00    +0.000 A 
ATOM      2  C   UNL     1       1.979   7.535  20.219  0.00  0.00    +0.000 A 
ATOM      3  C   UNL     1       1.260   8.699  19.992  0.00  0.00    +0.000 A 
ATOM      4  C   UNL     1       1.282   9.318  18.746  0.00  0.00    +0.000 A 
ATOM      5  C   UNL     1       2.063   8.765  17.727  0.00  0.00    +0.000 A 
ATOM      6  C   UNL     1       2.803   7.593  17.953  0.00  0.00    +0.000 A 
ENDROOT
BRANCH   1   7
ATOM      7  C   UNL     1       3.494   5.634  19.464  0.00  0.00    +0.000 C 
BRANCH   7  11
ATOM      8  C   UNL     1       6.438   5.007  16.313  0.00  0.00    +0.000 A 
ATOM      9  C   UNL     1       6.764   5.736  17.460  0.00  0.00    +0.000 A 
ATOM     10  C   UNL     1       5.828   5.920  18.483  0.00  0.00    +0.000 A 
ATOM     11  C   UNL     1       4.537   5.392  18.365  0.00  0.00    +0.000 A 
ATOM     12  C   UNL     1       4.218   4.673  17.197  0.00  0.00    +0.000 A 
ATOM     13  C   UNL     1       5.158   4.481  16.182  0.00  0.00    +0.000 A 
BRANCH   8  15
ATOM     14  C   UNL     1       6.991   4.801  14.024  0.00  0.00    +0.000 C 
ATOM     15  O   UNL     1       7.429   4.913  15.375  0.00  0.00    +0.000 OA
ENDBRANCH   8  15
ENDBRANCH   7  11
BRANCH   7  16
ATOM     16  C   UNL     1       2.523   4.453  19.651  0.00  0.00    +0.000 A 
ATOM     17  C   UNL     1       1.462   4.038  18.861  0.00  0.00    +0.000 A 
ATOM     18  C   UNL     1       0.683   3.015  19.475  0.00  0.00    +0.000 A 
ATOM     19  C   UNL     1       1.200   2.633  20.691  0.00  0.00    +0.000 A 
ATOM     20  S   UNL     1       2.663   3.439  21.045  0.00  0.00    +0.000 S 
ENDBRANCH   7  16
ENDBRANCH   1   7
BRANCH   4  21
ATOM     21  O   UNL     1       0.566  10.450  18.441  0.00  0.00    +0.000 OA
BRANCH  21  22
ATOM     22  C   UNL     1      -0.734  10.185  17.888  0.00  0.00    +0.000 C 
BRANCH  22  23
ATOM     23  C   UNL     1      -1.698  11.337  18.161  0.00  0.00    +0.000 C 
BRANCH  23  24
ATOM     24  O   UNL     1      -1.435  12.402  17.237  0.00  0.00    +0.000 OA
ATOM     25  H   UNL     1      -1.977  12.210  16.446  0.00  0.00    +0.000 HD
ENDBRANCH  23  24
BRANCH  23  26
ATOM     26  C   UNL     1      -3.179  10.932  18.041  0.00  0.00    +0.000 C 
BRANCH  26  27
ATOM     27  N   UNL     1      -4.108  12.076  17.963  0.00  0.00    +0.000 NA
ATOM     28  H   UNL     1      -4.246  12.323  16.987  0.00  0.00    +0.000 HD
BRANCH  27  29
ATOM     29  C   UNL     1      -5.418  11.757  18.561  0.00  0.00    +0.000 C 
ATOM     30  C   UNL     1      -5.667  12.431  19.926  0.00  0.00    +0.000 C 
ATOM     31  C   UNL     1      -5.830  13.945  19.840  0.00  0.00    +0.000 C 
ATOM     32  C   UNL     1      -6.893  14.359  18.825  0.00  0.00    +0.000 C 
ATOM     33  C   UNL     1      -6.714  13.682  17.470  0.00  0.00    +0.000 C 
ATOM     34  C   UNL     1      -6.547  12.166  17.598  0.00  0.00    +0.000 C 
ENDBRANCH  27  29
ENDBRANCH  26  27
ENDBRANCH  23  26
ENDBRANCH  22  23
ENDBRANCH  21  22
ENDBRANCH   4  21
TORSDOF 11
ENDMDL
