MODEL 1
REMARK VINA RESULT:      -8.2      0.000      0.000
REMARK  Name = 
REMARK  5 active torsions:
REMARK  status: ('A' for Active; 'I' for Inactive)
REMARK    1  A    between atoms: C_1  and  C_2
REMARK    2  A    between atoms: C_8  and  C_9
REMARK    3  A    between atoms: C_14  and  C_15
REMARK    4  A    between atoms: C_19  and  C_20
REMARK    5  A    between atoms: C_20  and  N_21
REMARK                            x       y       z     vdW  Elec       q    Type
REMARK                         _______ _______ _______ _____ _____    ______ ____
ROOT
ATOM      1  C   UNL     1       3.821   6.081  18.415  0.00  0.00    +0.000 A 
ATOM      2  C   UNL     1       3.356   5.098  19.306  0.00  0.00    +0.000 A 
ATOM      3  C   UNL     1       2.391   5.392  20.282  0.00  0.00    +0.000 A 
ATOM      4  C   UNL     1       1.878   6.692  20.334  0.00  0.00    +0.000 A 
ATOM      5  N   UNL     1       0.957   7.263  21.171  0.00  0.00    +0.000 NA
ATOM      6  C   UNL     1       0.871   8.510  20.742  0.00  0.00    +0.000 A 
ATOM      7  O   UNL     1       1.681   8.799  19.669  0.00  0.00    +0.000 OA
ATOM      8  C   UNL     1       2.329   7.627  19.418  0.00  0.00    +0.000 A 
ATOM      9  C   UNL     1       3.286   7.382  18.440  0.00  0.00    +0.000 A 
ENDROOT
BRANCH   1  17
ATOM     10  C   UNL     1       6.802   5.482  19.052  0.00  0.00    +0.000 C 
ATOM     11  C   UNL     1       6.073   4.890  17.837  0.00  0.00    +0.000 C 
ATOM     12  C   UNL     1       7.082   4.613  16.726  0.00  0.00    +0.000 C 
ATOM     13  C   UNL     1       6.821   5.264  15.403  0.00  0.00    +0.000 C 
ATOM     14  O   UNL     1       7.577   5.095  14.447  0.00  0.00    +0.000 OA
ATOM     15  N   UNL     1       5.717   6.052  15.292  0.00  0.00    +0.000 N 
ATOM     16  N   UNL     1       4.786   6.301  16.235  0.00  0.00    +0.000 NA
ATOM     17  C   UNL     1       4.903   5.778  17.417  0.00  0.00    +0.000 C 
ATOM     18  H   UNL     1       5.559   6.474  14.382  0.00  0.00    +0.000 HD
ENDBRANCH   1  17
BRANCH   6  19
ATOM     19  C   UNL     1       0.059   9.606  21.267  0.00  0.00    +0.000 A 
ATOM     20  C   UNL     1      -0.309   9.669  22.619  0.00  0.00    +0.000 A 
ATOM     21  C   UNL     1      -1.098  10.718  23.094  0.00  0.00    +0.000 A 
ATOM     22  C   UNL     1      -1.530  11.715  22.223  0.00  0.00    +0.000 A 
ATOM     23  C   UNL     1      -1.179  11.681  20.866  0.00  0.00    +0.000 A 
ATOM     24  C   UNL     1      -0.379  10.624  20.402  0.00  0.00    +0.000 A 
BRANCH  23  25
ATOM     25  C   UNL     1      -1.651  12.765  19.931  0.00  0.00    +0.000 C 
BRANCH  25  26
ATOM     26  N   UNL     1      -2.696  12.278  19.039  0.00  0.00    +0.000 NA
ATOM     27  H   UNL     1      -3.435  11.856  19.601  0.00  0.00    +0.000 HD
ATOM     28  H   UNL     1      -2.319  11.537  18.452  0.00  0.00    +0.000 HD
ENDBRANCH  25  26
ENDBRANCH  23  25
ENDBRANCH   6  19
TORSDOF 4
ENDMDL
MODEL 2
REMARK VINA RESULT:      -8.1      1.125      1.328
REMARK  Name = 
REMARK  5 active torsions:
REMARK  status: ('A' for Active; 'I' for Inactive)
REMARK    1  A    between atoms: C_1  and  C_2
REMARK    2  A    between atoms: C_8  and  C_9
REMARK    3  A    between atoms: C_14  and  C_15
REMARK    4  A    between atoms: C_19  and  C_20
REMARK    5  A    between atoms: C_20  and  N_21
REMARK                            x       y       z     vdW  Elec       q    Type
REMARK                         _______ _______ _______ _____ _____    ______ ____
ROOT
ATOM      1  C   UNL     1       4.034   6.197  17.985  0.00  0.00    +0.000 A 
ATOM      2  C   UNL     1       3.768   5.362  19.085  0.00  0.00    +0.000 A 
ATOM      3  C   UNL     1       2.875   5.746  20.097  0.00  0.00    +0.000 A 
ATOM      4  C   UNL     1       2.228   6.980  19.975  0.00  0.00    +0.000 A 
ATOM      5  N   UNL     1       1.334   7.612  20.797  0.00  0.00    +0.000 NA
ATOM      6  C   UNL     1       1.071   8.743  20.166  0.00  0.00    +0.000 A 
ATOM      7  O   UNL     1       1.736   8.897  18.972  0.00  0.00    +0.000 OA
ATOM      8  C   UNL     1       2.483   7.762  18.862  0.00  0.00    +0.000 A 
ATOM      9  C   UNL     1       3.363   7.425  17.840  0.00  0.00    +0.000 A 
ENDROOT
BRANCH   1  17
ATOM     10  C   UNL     1       4.427   3.370  16.758  0.00  0.00    +0.000 C 
ATOM     11  C   UNL     1       4.720   4.663  15.984  0.00  0.00    +0.000 C 
ATOM     12  C   UNL     1       5.797   4.396  14.938  0.00  0.00    +0.000 C 
ATOM     13  C   UNL     1       7.025   5.250  15.003  0.00  0.00    +0.000 C 
ATOM     14  O   UNL     1       7.945   5.109  14.198  0.00  0.00    +0.000 OA
ATOM     15  N   UNL     1       7.091   6.188  15.985  0.00  0.00    +0.000 N 
ATOM     16  N   UNL     1       6.154   6.478  16.911  0.00  0.00    +0.000 NA
ATOM     17  C   UNL     1       5.042   5.810  16.940  0.00  0.00    +0.000 C 
ATOM     18  H   UNL     1       7.931   6.759  16.002  0.00  0.00    +0.000 HD
ENDBRANCH   1  17
BRANCH   6  19
ATOM     19  C   UNL     1       0.196   9.839  20.576  0.00  0.00    +0.000 A 
ATOM     20  C   UNL     1       0.050  10.201  21.924  0.00  0.00    +0.000 A 
ATOM     21  C   UNL     1      -0.802  11.242  22.293  0.00  0.00    +0.000 A 
ATOM     22  C   UNL     1      -1.521  11.934  21.320  0.00  0.00    +0.000 A 
ATOM     23  C   UNL     1      -1.396  11.597  19.964  0.00  0.00    +0.000 A 
ATOM     24  C   UNL     1      -0.530  10.552  19.606  0.00  0.00    +0.000 A 
BRANCH  23  25
ATOM     25  C   UNL     1      -2.177  12.352  18.920  0.00  0.00    +0.000 C 
BRANCH  25  26
ATOM     26  N   UNL     1      -1.442  12.435  17.664  0.00  0.00    +0.000 NA
ATOM     27  H   UNL     1      -1.978  13.001  17.008  0.00  0.00    +0.000 HD
ATOM     28  H   UNL     1      -1.371  11.506  17.254  0.00  0.00    +0.000 HD
ENDBRANCH  25  26
ENDBRANCH  23  25
ENDBRANCH   6  19
TORSDOF 4
ENDMDL
MODEL 3
REMARK VINA RESULT:      -7.9      1.191      1.191
REMARK  Name = 
REMARK  5 active torsions:
REMARK  status: ('A' for Active; 'I' for Inactive)
REMARK    1  A    between atoms: C_1  and  C_2
REMARK    2  A    between atoms: C_8  and  C_9
REMARK    3  A    between atoms: C_14  and  C_15
REMARK    4  A    between atoms: C_19  and  C_20
REMARK    5  A    between atoms: C_20  and  N_21
REMARK                            x       y       z     vdW  Elec       q    Type
REMARK                         _______ _______ _______ _____ _____    ______ ____
ROOT
ATOM      1  C   UNL     1       3.964   5.903  18.147  0.00  0.00    +0.000 A 
ATOM      2  C   UNL     1       3.390   4.851  18.882  0.00  0.00    +0.000 A 
ATOM      3  C   UNL     1       2.439   5.092  19.886  0.00  0.00    +0.000 A 
ATOM      4  C   UNL     1       2.051   6.414  20.125  0.00  0.00    +0.000 A 
ATOM      5  N   UNL     1       1.173   6.943  21.032  0.00  0.00    +0.000 NA
ATOM      6  C   UNL     1       1.215   8.242  20.791  0.00  0.00    +0.000 A 
ATOM      7  O   UNL     1       2.069   8.604  19.776  0.00  0.00    +0.000 OA
ATOM      8  C   UNL     1       2.607   7.424  19.359  0.00  0.00    +0.000 A 
ATOM      9  C   UNL     1       3.555   7.232  18.361  0.00  0.00    +0.000 A 
ENDROOT
BRANCH   1  17
ATOM     10  C   UNL     1       6.955   5.280  18.713  0.00  0.00    +0.000 C 
ATOM     11  C   UNL     1       6.209   4.741  17.484  0.00  0.00    +0.000 C 
ATOM     12  C   UNL     1       7.200   4.514  16.348  0.00  0.00    +0.000 C 
ATOM     13  C   UNL     1       6.919   5.221  15.059  0.00  0.00    +0.000 C 
ATOM     14  O   UNL     1       7.661   5.095  14.085  0.00  0.00    +0.000 OA
ATOM     15  N   UNL     1       5.814   6.011  14.998  0.00  0.00    +0.000 N 
ATOM     16  N   UNL     1       4.897   6.218  15.965  0.00  0.00    +0.000 NA
ATOM     17  C   UNL     1       5.032   5.644  17.121  0.00  0.00    +0.000 C 
ATOM     18  H   UNL     1       5.642   6.473  14.110  0.00  0.00    +0.000 HD
ENDBRANCH   1  17
BRANCH   6  19
ATOM     19  C   UNL     1       0.501   9.323  21.466  0.00  0.00    +0.000 A 
ATOM     20  C   UNL     1      -0.320   9.083  22.578  0.00  0.00    +0.000 A 
ATOM     21  C   UNL     1      -1.004  10.129  23.197  0.00  0.00    +0.000 A 
ATOM     22  C   UNL     1      -0.878  11.429  22.712  0.00  0.00    +0.000 A 
ATOM     23  C   UNL     1      -0.064  11.702  21.603  0.00  0.00    +0.000 A 
ATOM     24  C   UNL     1       0.624  10.641  20.994  0.00  0.00    +0.000 A 
BRANCH  23  25
ATOM     25  C   UNL     1       0.067  13.112  21.087  0.00  0.00    +0.000 C 
BRANCH  25  26
ATOM     26  N   UNL     1       0.655  13.993  22.089  0.00  0.00    +0.000 NA
ATOM     27  H   UNL     1       0.162  13.858  22.971  0.00  0.00    +0.000 HD
ATOM     28  H   UNL     1       0.501  14.961  21.817  0.00  0.00    +0.000 HD
ENDBRANCH  25  26
ENDBRANCH  23  25
ENDBRANCH   6  19
TORSDOF 4
ENDMDL
MODEL 4
REMARK VINA RESULT:      -7.7      1.534      1.828
REMARK  Name = 
REMARK  5 active torsions:
REMARK  status: ('A' for Active; 'I' for Inactive)
REMARK    1  A    between atoms: C_1  and  C_2
REMARK    2  A    between atoms: C_8  and  C_9
REMARK    3  A    between atoms: C_14  and  C_15
REMARK    4  A    between atoms: C_19  and  C_20
REMARK    5  A    between atoms: C_20  and  N_21
REMARK                            x       y       z     vdW  Elec       q    Type
REMARK                         _______ _______ _______ _____ _____    ______ ____
ROOT
ATOM      1  C   UNL     1       3.794   6.562  18.014  0.00  0.00    +0.000 A 
ATOM      2  C   UNL     1       3.508   5.950  19.248  0.00  0.00    +0.000 A 
ATOM      3  C   UNL     1       2.593   6.514  20.151  0.00  0.00    +0.000 A 
ATOM      4  C   UNL     1       1.945   7.697  19.783  0.00  0.00    +0.000 A 
ATOM      5  N   UNL     1       1.032   8.468  20.451  0.00  0.00    +0.000 NA
ATOM      6  C   UNL     1       0.778   9.456  19.611  0.00  0.00    +0.000 A 
ATOM      7  O   UNL     1       1.467   9.383  18.423  0.00  0.00    +0.000 OA
ATOM      8  C   UNL     1       2.220   8.254  18.545  0.00  0.00    +0.000 A 
ATOM      9  C   UNL     1       3.122   7.735  17.624  0.00  0.00    +0.000 A 
ENDROOT
BRANCH   1  17
ATOM     10  C   UNL     1       4.132   3.569  17.251  0.00  0.00    +0.000 C 
ATOM     11  C   UNL     1       4.497   4.720  16.301  0.00  0.00    +0.000 C 
ATOM     12  C   UNL     1       5.601   4.263  15.351  0.00  0.00    +0.000 C 
ATOM     13  C   UNL     1       6.854   5.082  15.335  0.00  0.00    +0.000 C 
ATOM     14  O   UNL     1       7.797   4.793  14.599  0.00  0.00    +0.000 OA
ATOM     15  N   UNL     1       6.918   6.158  16.164  0.00  0.00    +0.000 N 
ATOM     16  N   UNL     1       5.960   6.614  16.996  0.00  0.00    +0.000 NA
ATOM     17  C   UNL     1       4.825   5.990  17.082  0.00  0.00    +0.000 C 
ATOM     18  H   UNL     1       7.776   6.701  16.127  0.00  0.00    +0.000 HD
ENDBRANCH   1  17
BRANCH   6  19
ATOM     19  C   UNL     1      -0.109  10.604  19.787  0.00  0.00    +0.000 A 
ATOM     20  C   UNL     1       0.223  11.667  20.640  0.00  0.00    +0.000 A 
ATOM     21  C   UNL     1      -0.647  12.746  20.803  0.00  0.00    +0.000 A 
ATOM     22  C   UNL     1      -1.859  12.775  20.118  0.00  0.00    +0.000 A 
ATOM     23  C   UNL     1      -2.219  11.728  19.257  0.00  0.00    +0.000 A 
ATOM     24  C   UNL     1      -1.332  10.651  19.097  0.00  0.00    +0.000 A 
BRANCH  23  25
ATOM     25  C   UNL     1      -3.533  11.769  18.520  0.00  0.00    +0.000 C 
BRANCH  25  26
ATOM     26  N   UNL     1      -3.331  11.787  17.076  0.00  0.00    +0.000 NA
ATOM     27  H   UNL     1      -3.010  10.866  16.780  0.00  0.00    +0.000 HD
ATOM     28  H   UNL     1      -2.585  12.440  16.849  0.00  0.00    +0.000 HD
ENDBRANCH  25  26
ENDBRANCH  23  25
ENDBRANCH   6  19
TORSDOF 4
ENDMDL
MODEL 5
REMARK VINA RESULT:      -7.7      1.493      2.046
REMARK  Name = 
REMARK  5 active torsions:
REMARK  status: ('A' for Active; 'I' for Inactive)
REMARK    1  A    between atoms: C_1  and  C_2
REMARK    2  A    between atoms: C_8  and  C_9
REMARK    3  A    between atoms: C_14  and  C_15
REMARK    4  A    between atoms: C_19  and  C_20
REMARK    5  A    between atoms: C_20  and  N_21
REMARK                            x       y       z     vdW  Elec       q    Type
REMARK                         _______ _______ _______ _____ _____    ______ ____
ROOT
ATOM      1  C   UNL     1       3.716   6.560  18.152  0.00  0.00    +0.000 A 
ATOM      2  C   UNL     1       3.443   5.887  19.356  0.00  0.00    +0.000 A 
ATOM      3  C   UNL     1       2.523   6.395  20.287  0.00  0.00    +0.000 A 
ATOM      4  C   UNL     1       1.858   7.585  19.976  0.00  0.00    +0.000 A 
ATOM      5  N   UNL     1       0.937   8.311  20.683  0.00  0.00    +0.000 NA
ATOM      6  C   UNL     1       0.667   9.334  19.890  0.00  0.00    +0.000 A 
ATOM      7  O   UNL     1       1.353   9.327  18.699  0.00  0.00    +0.000 OA
ATOM      8  C   UNL     1       2.122   8.204  18.766  0.00  0.00    +0.000 A 
ATOM      9  C   UNL     1       3.027   7.741  17.819  0.00  0.00    +0.000 A 
ENDROOT
BRANCH   1  17
ATOM     10  C   UNL     1       4.231   3.587  17.410  0.00  0.00    +0.000 C 
ATOM     11  C   UNL     1       4.485   4.747  16.435  0.00  0.00    +0.000 C 
ATOM     12  C   UNL     1       5.585   4.354  15.454  0.00  0.00    +0.000 C 
ATOM     13  C   UNL     1       6.779   5.254  15.387  0.00  0.00    +0.000 C 
ATOM     14  O   UNL     1       7.714   5.020  14.622  0.00  0.00    +0.000 OA
ATOM     15  N   UNL     1       6.798   6.343  16.202  0.00  0.00    +0.000 N 
ATOM     16  N   UNL     1       5.839   6.744  17.061  0.00  0.00    +0.000 NA
ATOM     17  C   UNL     1       4.752   6.046  17.192  0.00  0.00    +0.000 C 
ATOM     18  H   UNL     1       7.615   6.942  16.130  0.00  0.00    +0.000 HD
ENDBRANCH   1  17
BRANCH   6  19
ATOM     19  C   UNL     1      -0.235  10.461  20.122  0.00  0.00    +0.000 A 
ATOM     20  C   UNL     1      -0.787  11.194  19.061  0.00  0.00    +0.000 A 
ATOM     21  C   UNL     1      -1.634  12.275  19.308  0.00  0.00    +0.000 A 
ATOM     22  C   UNL     1      -1.938  12.638  20.618  0.00  0.00    +0.000 A 
ATOM     23  C   UNL     1      -1.403  11.925  21.700  0.00  0.00    +0.000 A 
ATOM     24  C   UNL     1      -0.557  10.835  21.438  0.00  0.00    +0.000 A 
BRANCH  23  25
ATOM     25  C   UNL     1      -1.739  12.326  23.113  0.00  0.00    +0.000 C 
BRANCH  25  26
ATOM     26  N   UNL     1      -3.039  11.805  23.518  0.00  0.00    +0.000 NA
ATOM     27  H   UNL     1      -3.700  12.580  23.569  0.00  0.00    +0.000 HD
ATOM     28  H   UNL     1      -2.969  11.422  24.459  0.00  0.00    +0.000 HD
ENDBRANCH  25  26
ENDBRANCH  23  25
ENDBRANCH   6  19
TORSDOF 4
ENDMDL
MODEL 6
REMARK VINA RESULT:      -7.7      2.734      3.335
REMARK  Name = 
REMARK  5 active torsions:
REMARK  status: ('A' for Active; 'I' for Inactive)
REMARK    1  A    between atoms: C_1  and  C_2
REMARK    2  A    between atoms: C_8  and  C_9
REMARK    3  A    between atoms: C_14  and  C_15
REMARK    4  A    between atoms: C_19  and  C_20
REMARK    5  A    between atoms: C_20  and  N_21
REMARK                            x       y       z     vdW  Elec       q    Type
REMARK                         _______ _______ _______ _____ _____    ______ ____
ROOT
ATOM      1  C   UNL     1       2.515   6.578  18.855  0.00  0.00    +0.000 A 
ATOM      2  C   UNL     1       2.675   7.446  17.761  0.00  0.00    +0.000 A 
ATOM      3  C   UNL     1       2.228   8.776  17.810  0.00  0.00    +0.000 A 
ATOM      4  C   UNL     1       1.637   9.232  18.992  0.00  0.00    +0.000 A 
ATOM      5  N   UNL     1       1.105  10.450  19.320  0.00  0.00    +0.000 NA
ATOM      6  C   UNL     1       0.698  10.290  20.568  0.00  0.00    +0.000 A 
ATOM      7  O   UNL     1       0.931   9.038  21.086  0.00  0.00    +0.000 OA
ATOM      8  C   UNL     1       1.529   8.363  20.064  0.00  0.00    +0.000 A 
ATOM      9  C   UNL     1       1.950   7.039  20.058  0.00  0.00    +0.000 A 
ENDROOT
BRANCH   1  17
ATOM     10  C   UNL     1       5.408   5.478  19.128  0.00  0.00    +0.000 C 
ATOM     11  C   UNL     1       4.167   4.675  19.545  0.00  0.00    +0.000 C 
ATOM     12  C   UNL     1       4.463   3.184  19.423  0.00  0.00    +0.000 C 
ATOM     13  C   UNL     1       3.547   2.385  18.549  0.00  0.00    +0.000 C 
ATOM     14  O   UNL     1       3.705   1.175  18.393  0.00  0.00    +0.000 OA
ATOM     15  N   UNL     1       2.531   3.044  17.929  0.00  0.00    +0.000 N 
ATOM     16  N   UNL     1       2.215   4.351  18.030  0.00  0.00    +0.000 NA
ATOM     17  C   UNL     1       2.933   5.137  18.772  0.00  0.00    +0.000 C 
ATOM     18  H   UNL     1       1.919   2.477  17.348  0.00  0.00    +0.000 HD
ENDBRANCH   1  17
BRANCH   6  19
ATOM     19  C   UNL     1       0.026  11.249  21.442  0.00  0.00    +0.000 A 
ATOM     20  C   UNL     1      -0.901  10.837  22.412  0.00  0.00    +0.000 A 
ATOM     21  C   UNL     1      -1.541  11.772  23.226  0.00  0.00    +0.000 A 
ATOM     22  C   UNL     1      -1.265  13.130  23.080  0.00  0.00    +0.000 A 
ATOM     23  C   UNL     1      -0.343  13.573  22.121  0.00  0.00    +0.000 A 
ATOM     24  C   UNL     1       0.299  12.621  21.313  0.00  0.00    +0.000 A 
BRANCH  23  25
ATOM     25  C   UNL     1      -0.051  15.044  21.971  0.00  0.00    +0.000 C 
BRANCH  25  26
ATOM     26  N   UNL     1       0.740  15.544  23.089  0.00  0.00    +0.000 NA
ATOM     27  H   UNL     1       1.547  14.934  23.217  0.00  0.00    +0.000 HD
ATOM     28  H   UNL     1       0.191  15.482  23.943  0.00  0.00    +0.000 HD
ENDBRANCH  25  26
ENDBRANCH  23  25
ENDBRANCH   6  19
TORSDOF 4
ENDMDL
MODEL 7
REMARK VINA RESULT:      -7.6      2.761      8.712
REMARK  Name = 
REMARK  5 active torsions:
REMARK  status: ('A' for Active; 'I' for Inactive)
REMARK    1  A    between atoms: C_1  and  C_2
REMARK    2  A    between atoms: C_8  and  C_9
REMARK    3  A    between atoms: C_14  and  C_15
REMARK    4  A    between atoms: C_19  and  C_20
REMARK    5  A    between atoms: C_20  and  N_21
REMARK                            x       y       z     vdW  Elec       q    Type
REMARK                         _______ _______ _______ _____ _____    ______ ____
ROOT
ATOM      1  C   UNL     1       1.045  11.206  19.403  0.00  0.00    +0.000 A 
ATOM      2  C   UNL     1       0.651  10.521  20.566  0.00  0.00    +0.000 A 
ATOM      3  C   UNL     1       0.928   9.156  20.742  0.00  0.00    +0.000 A 
ATOM      4  C   UNL     1       1.635   8.490  19.736  0.00  0.00    +0.000 A 
ATOM      5  N   UNL     1       2.028   7.183  19.628  0.00  0.00    +0.000 NA
ATOM      6  C   UNL     1       2.659   7.139  18.467  0.00  0.00    +0.000 A 
ATOM      7  O   UNL     1       2.708   8.341  17.800  0.00  0.00    +0.000 OA
ATOM      8  C   UNL     1       2.042   9.201  18.620  0.00  0.00    +0.000 A 
ATOM      9  C   UNL     1       1.784  10.549  18.401  0.00  0.00    +0.000 A 
ENDROOT
BRANCH   1  17
ATOM     10  C   UNL     1       2.653  13.672  20.394  0.00  0.00    +0.000 C 
ATOM     11  C   UNL     1       1.801  13.690  19.117  0.00  0.00    +0.000 C 
ATOM     12  C   UNL     1       1.317  15.112  18.849  0.00  0.00    +0.000 C 
ATOM     13  C   UNL     1      -0.163  15.307  18.732  0.00  0.00    +0.000 C 
ATOM     14  O   UNL     1      -0.646  16.418  18.513  0.00  0.00    +0.000 OA
ATOM     15  N   UNL     1      -0.959  14.215  18.878  0.00  0.00    +0.000 N 
ATOM     16  N   UNL     1      -0.575  12.939  19.086  0.00  0.00    +0.000 NA
ATOM     17  C   UNL     1       0.686  12.649  19.190  0.00  0.00    +0.000 C 
ATOM     18  H   UNL     1      -1.958  14.374  18.785  0.00  0.00    +0.000 HD
ENDBRANCH   1  17
BRANCH   6  19
ATOM     19  C   UNL     1       3.280   5.994  17.804  0.00  0.00    +0.000 A 
ATOM     20  C   UNL     1       2.689   4.722  17.823  0.00  0.00    +0.000 A 
ATOM     21  C   UNL     1       3.307   3.640  17.195  0.00  0.00    +0.000 A 
ATOM     22  C   UNL     1       4.525   3.816  16.542  0.00  0.00    +0.000 A 
ATOM     23  C   UNL     1       5.141   5.075  16.504  0.00  0.00    +0.000 A 
ATOM     24  C   UNL     1       4.504   6.157  17.135  0.00  0.00    +0.000 A 
BRANCH  23  25
ATOM     25  C   UNL     1       6.458   5.255  15.795  0.00  0.00    +0.000 C 
BRANCH  25  26
ATOM     26  N   UNL     1       7.559   4.695  16.569  0.00  0.00    +0.000 NA
ATOM     27  H   UNL     1       8.185   4.198  15.936  0.00  0.00    +0.000 HD
ATOM     28  H   UNL     1       7.194   4.002  17.219  0.00  0.00    +0.000 HD
ENDBRANCH  25  26
ENDBRANCH  23  25
ENDBRANCH   6  19
TORSDOF 4
ENDMDL
MODEL 8
REMARK VINA RESULT:      -7.6      2.940      3.632
REMARK  Name = 
REMARK  5 active torsions:
REMARK  status: ('A' for Active; 'I' for Inactive)
REMARK    1  A    between atoms: C_1  and  C_2
REMARK    2  A    between atoms: C_8  and  C_9
REMARK    3  A    between atoms: C_14  and  C_15
REMARK    4  A    between atoms: C_19  and  C_20
REMARK    5  A    between atoms: C_20  and  N_21
REMARK                            x       y       z     vdW  Elec       q    Type
REMARK                         _______ _______ _______ _____ _____    ______ ____
ROOT
ATOM      1  C   UNL     1       2.501   6.094  18.971  0.00  0.00    +0.000 A 
ATOM      2  C   UNL     1       2.747   6.945  17.879  0.00  0.00    +0.000 A 
ATOM      3  C   UNL     1       2.362   8.295  17.901  0.00  0.00    +0.000 A 
ATOM      4  C   UNL     1       1.745   8.788  19.055  0.00  0.00    +0.000 A 
ATOM      5  N   UNL     1       1.257  10.032  19.352  0.00  0.00    +0.000 NA
ATOM      6  C   UNL     1       0.792   9.902  20.583  0.00  0.00    +0.000 A 
ATOM      7  O   UNL     1       0.944   8.645  21.119  0.00  0.00    +0.000 OA
ATOM      8  C   UNL     1       1.551   7.934  20.127  0.00  0.00    +0.000 A 
ATOM      9  C   UNL     1       1.909   6.591  20.147  0.00  0.00    +0.000 A 
ENDROOT
BRANCH   1  17
ATOM     10  C   UNL     1       0.855   3.751  20.176  0.00  0.00    +0.000 C 
ATOM     11  C   UNL     1       1.733   3.598  18.925  0.00  0.00    +0.000 C 
ATOM     12  C   UNL     1       2.211   2.153  18.815  0.00  0.00    +0.000 C 
ATOM     13  C   UNL     1       3.691   1.939  18.750  0.00  0.00    +0.000 C 
ATOM     14  O   UNL     1       4.170   0.809  18.656  0.00  0.00    +0.000 OA
ATOM     15  N   UNL     1       4.493   3.036  18.800  0.00  0.00    +0.000 N 
ATOM     16  N   UNL     1       4.115   4.329  18.868  0.00  0.00    +0.000 NA
ATOM     17  C   UNL     1       2.854   4.635  18.915  0.00  0.00    +0.000 C 
ATOM     18  H   UNL     1       5.492   2.863  18.746  0.00  0.00    +0.000 HD
ENDBRANCH   1  17
BRANCH   6  19
ATOM     19  C   UNL     1       0.130  10.898  21.422  0.00  0.00    +0.000 A 
ATOM     20  C   UNL     1      -0.855  10.539  22.354  0.00  0.00    +0.000 A 
ATOM     21  C   UNL     1      -1.484  11.510  23.135  0.00  0.00    +0.000 A 
ATOM     22  C   UNL     1      -1.137  12.852  22.992  0.00  0.00    +0.000 A 
ATOM     23  C   UNL     1      -0.155  13.243  22.071  0.00  0.00    +0.000 A 
ATOM     24  C   UNL     1       0.474  12.255  21.296  0.00  0.00    +0.000 A 
BRANCH  23  25
ATOM     25  C   UNL     1       0.213  14.697  21.924  0.00  0.00    +0.000 C 
BRANCH  25  26
ATOM     26  N   UNL     1       1.587  14.942  22.347  0.00  0.00    +0.000 NA
ATOM     27  H   UNL     1       2.180  14.200  21.975  0.00  0.00    +0.000 HD
ATOM     28  H   UNL     1       1.643  14.877  23.361  0.00  0.00    +0.000 HD
ENDBRANCH  25  26
ENDBRANCH  23  25
ENDBRANCH   6  19
TORSDOF 4
ENDMDL
MODEL 9
REMARK VINA RESULT:      -7.6      2.939      8.676
REMARK  Name = 
REMARK  5 active torsions:
REMARK  status: ('A' for Active; 'I' for Inactive)
REMARK    1  A    between atoms: C_1  and  C_2
REMARK    2  A    between atoms: C_8  and  C_9
REMARK    3  A    between atoms: C_14  and  C_15
REMARK    4  A    between atoms: C_19  and  C_20
REMARK    5  A    between atoms: C_20  and  N_21
REMARK                            x       y       z     vdW  Elec       q    Type
REMARK                         _______ _______ _______ _____ _____    ______ ____
ROOT
ATOM      1  C   UNL     1       1.017  11.037  19.532  0.00  0.00    +0.000 A 
ATOM      2  C   UNL     1       0.634  10.390  20.720  0.00  0.00    +0.000 A 
ATOM      3  C   UNL     1       0.913   9.032  20.938  0.00  0.00    +0.000 A 
ATOM      4  C   UNL     1       1.611   8.334  19.947  0.00  0.00    +0.000 A 
ATOM      5  N   UNL     1       2.004   7.024  19.877  0.00  0.00    +0.000 NA
ATOM      6  C   UNL     1       2.624   6.943  18.713  0.00  0.00    +0.000 A 
ATOM      7  O   UNL     1       2.668   8.123  18.008  0.00  0.00    +0.000 OA
ATOM      8  C   UNL     1       2.008   9.009  18.806  0.00  0.00    +0.000 A 
ATOM      9  C   UNL     1       1.748  10.349  18.546  0.00  0.00    +0.000 A 
ENDROOT
BRANCH   1  17
ATOM     10  C   UNL     1       2.652  13.534  20.397  0.00  0.00    +0.000 C 
ATOM     11  C   UNL     1       1.771  13.508  19.140  0.00  0.00    +0.000 C 
ATOM     12  C   UNL     1       1.283  14.920  18.833  0.00  0.00    +0.000 C 
ATOM     13  C   UNL     1      -0.199  15.116  18.743  0.00  0.00    +0.000 C 
ATOM     14  O   UNL     1      -0.684  16.219  18.496  0.00  0.00    +0.000 OA
ATOM     15  N   UNL     1      -0.993  14.031  18.946  0.00  0.00    +0.000 N 
ATOM     16  N   UNL     1      -0.607  12.762  19.191  0.00  0.00    +0.000 NA
ATOM     17  C   UNL     1       0.656  12.473  19.276  0.00  0.00    +0.000 C 
ATOM     18  H   UNL     1      -1.994  14.189  18.871  0.00  0.00    +0.000 HD
ENDBRANCH   1  17
BRANCH   6  19
ATOM     19  C   UNL     1       3.240   5.777  18.082  0.00  0.00    +0.000 A 
ATOM     20  C   UNL     1       4.297   5.906  17.169  0.00  0.00    +0.000 A 
ATOM     21  C   UNL     1       4.859   4.779  16.568  0.00  0.00    +0.000 A 
ATOM     22  C   UNL     1       4.370   3.510  16.869  0.00  0.00    +0.000 A 
ATOM     23  C   UNL     1       3.315   3.348  17.778  0.00  0.00    +0.000 A 
ATOM     24  C   UNL     1       2.763   4.490  18.381  0.00  0.00    +0.000 A 
BRANCH  23  25
ATOM     25  C   UNL     1       2.793   1.971  18.098  0.00  0.00    +0.000 C 
BRANCH  25  26
ATOM     26  N   UNL     1       3.880   1.009  18.229  0.00  0.00    +0.000 NA
ATOM     27  H   UNL     1       4.743   1.443  17.902  0.00  0.00    +0.000 HD
ATOM     28  H   UNL     1       3.704   0.217  17.614  0.00  0.00    +0.000 HD
ENDBRANCH  25  26
ENDBRANCH  23  25
ENDBRANCH   6  19
TORSDOF 4
ENDMDL
