MODEL 1
REMARK VINA RESULT:      -8.4      0.000      0.000
REMARK  Name = 
REMARK  4 active torsions:
REMARK  status: ('A' for Active; 'I' for Inactive)
REMARK    1  A    between atoms: C_2  and  C_3
REMARK    2  A    between atoms: C_3  and  C_4
REMARK    3  A    between atoms: C_6  and  C_7
REMARK    4  A    between atoms: N_16  and  C_17
REMARK                            x       y       z     vdW  Elec       q    Type
REMARK                         _______ _______ _______ _____ _____    ______ ____
ROOT
ATOM      1  C   UNL     1       7.538   6.469  17.883  0.00  0.00    +0.000 A 
ATOM      2  C   UNL     1       8.346   7.325  18.663  0.00  0.00    +0.000 A 
ATOM      3  C   UNL     1       8.186   8.572  18.103  0.00  0.00    +0.000 A 
ATOM      4  O   UNL     1       7.350   8.456  17.032  0.00  0.00    +0.000 OA
ATOM      5  N   UNL     1       6.939   7.139  16.890  0.00  0.00    +0.000 NA
ENDROOT
BRANCH   3   6
ATOM      6  C   UNL     1       8.684   9.903  18.429  0.00  0.00    +0.000 A 
ATOM      7  C   UNL     1       9.418  10.105  19.610  0.00  0.00    +0.000 A 
ATOM      8  C   UNL     1       9.861  11.381  19.973  0.00  0.00    +0.000 A 
ATOM      9  C   UNL     1       9.577  12.470  19.156  0.00  0.00    +0.000 A 
ATOM     10 CL   UNL     1      10.095  14.042  19.618  0.00  0.00    +0.000 Cl
ATOM     11  C   UNL     1       8.867  12.289  17.971  0.00  0.00    +0.000 A 
ATOM     12  C   UNL     1       8.425  11.011  17.608  0.00  0.00    +0.000 A 
ENDBRANCH   3   6
BRANCH   1  13
ATOM     13  C   UNL     1       7.312   5.012  18.062  0.00  0.00    +0.000 C 
BRANCH  13  15
ATOM     14  O   UNL     1       5.547   5.307  19.642  0.00  0.00    +0.000 OA
ATOM     15  C   UNL     1       5.917   4.763  18.604  0.00  0.00    +0.000 C 
ATOM     16  N   UNL     1       5.157   3.908  17.822  0.00  0.00    +0.000 N 
ATOM     17  H   UNL     1       5.619   3.457  17.039  0.00  0.00    +0.000 HD
BRANCH  16  18
ATOM     18  C   UNL     1       3.813   3.533  18.052  0.00  0.00    +0.000 A 
ATOM     19  C   UNL     1       2.712   4.301  17.683  0.00  0.00    +0.000 A 
ATOM     20  C   UNL     1       1.423   3.860  17.981  0.00  0.00    +0.000 A 
ATOM     21  C   UNL     1       1.273   2.652  18.641  0.00  0.00    +0.000 A 
ATOM     22  N   UNL     1       2.309   1.864  18.994  0.00  0.00    +0.000 NA
ATOM     23  C   UNL     1       3.547   2.319  18.685  0.00  0.00    +0.000 A 
ENDBRANCH  16  18
ENDBRANCH  13  15
ENDBRANCH   1  13
TORSDOF 4
ENDMDL
MODEL 2
REMARK VINA RESULT:      -8.3      0.622      1.027
REMARK  Name = 
REMARK  4 active torsions:
REMARK  status: ('A' for Active; 'I' for Inactive)
REMARK    1  A    between atoms: C_2  and  C_3
REMARK    2  A    between atoms: C_3  and  C_4
REMARK    3  A    between atoms: C_6  and  C_7
REMARK    4  A    between atoms: N_16  and  C_17
REMARK                            x       y       z     vdW  Elec       q    Type
REMARK                         _______ _______ _______ _____ _____    ______ ____
ROOT
ATOM      1  C   UNL     1       7.423   6.364  17.836  0.00  0.00    +0.000 A 
ATOM      2  C   UNL     1       8.253   7.213  18.601  0.00  0.00    +0.000 A 
ATOM      3  C   UNL     1       8.100   8.460  18.040  0.00  0.00    +0.000 A 
ATOM      4  O   UNL     1       7.247   8.352  16.983  0.00  0.00    +0.000 OA
ATOM      5  N   UNL     1       6.818   7.039  16.850  0.00  0.00    +0.000 NA
ENDROOT
BRANCH   3   6
ATOM      6  C   UNL     1       8.619   9.785  18.356  0.00  0.00    +0.000 A 
ATOM      7  C   UNL     1       9.380   9.980  19.521  0.00  0.00    +0.000 A 
ATOM      8  C   UNL     1       9.844  11.251  19.874  0.00  0.00    +0.000 A 
ATOM      9  C   UNL     1       9.554  12.343  19.064  0.00  0.00    +0.000 A 
ATOM     10 CL   UNL     1      10.098  13.910  19.514  0.00  0.00    +0.000 Cl
ATOM     11  C   UNL     1       8.817  12.170  17.894  0.00  0.00    +0.000 A 
ATOM     12  C   UNL     1       8.354  10.897  17.541  0.00  0.00    +0.000 A 
ENDBRANCH   3   6
BRANCH   1  13
ATOM     13  C   UNL     1       7.183   4.911  18.022  0.00  0.00    +0.000 C 
BRANCH  13  15
ATOM     14  O   UNL     1       5.425   5.318  19.584  0.00  0.00    +0.000 OA
ATOM     15  C   UNL     1       5.800   4.681  18.603  0.00  0.00    +0.000 C 
ATOM     16  N   UNL     1       5.058   3.729  17.921  0.00  0.00    +0.000 N 
ATOM     17  H   UNL     1       5.526   3.214  17.183  0.00  0.00    +0.000 HD
BRANCH  16  18
ATOM     18  C   UNL     1       3.727   3.345  18.204  0.00  0.00    +0.000 A 
ATOM     19  C   UNL     1       3.378   2.308  19.065  0.00  0.00    +0.000 A 
ATOM     20  C   UNL     1       2.035   1.984  19.256  0.00  0.00    +0.000 A 
ATOM     21  C   UNL     1       1.074   2.714  18.577  0.00  0.00    +0.000 A 
ATOM     22  N   UNL     1       1.365   3.742  17.754  0.00  0.00    +0.000 NA
ATOM     23  C   UNL     1       2.679   4.035  17.595  0.00  0.00    +0.000 A 
ENDBRANCH  16  18
ENDBRANCH  13  15
ENDBRANCH   1  13
TORSDOF 4
ENDMDL
MODEL 3
REMARK VINA RESULT:      -8.1      0.666      1.450
REMARK  Name = 
REMARK  4 active torsions:
REMARK  status: ('A' for Active; 'I' for Inactive)
REMARK    1  A    between atoms: C_2  and  C_3
REMARK    2  A    between atoms: C_3  and  C_4
REMARK    3  A    between atoms: C_6  and  C_7
REMARK    4  A    between atoms: N_16  and  C_17
REMARK                            x       y       z     vdW  Elec       q    Type
REMARK                         _______ _______ _______ _____ _____    ______ ____
ROOT
ATOM      1  C   UNL     1       7.485   6.418  17.789  0.00  0.00    +0.000 A 
ATOM      2  C   UNL     1       8.298   7.189  18.650  0.00  0.00    +0.000 A 
ATOM      3  C   UNL     1       8.208   8.474  18.167  0.00  0.00    +0.000 A 
ATOM      4  O   UNL     1       7.407   8.462  17.064  0.00  0.00    +0.000 OA
ATOM      5  N   UNL     1       6.949   7.175  16.822  0.00  0.00    +0.000 NA
ENDROOT
BRANCH   3   6
ATOM      6  C   UNL     1       8.747   9.759  18.596  0.00  0.00    +0.000 A 
ATOM      7  C   UNL     1       8.878  10.807  17.669  0.00  0.00    +0.000 A 
ATOM      8  C   UNL     1       9.441  12.032  18.042  0.00  0.00    +0.000 A 
ATOM      9  C   UNL     1       9.876  12.224  19.349  0.00  0.00    +0.000 A 
ATOM     10 CL   UNL     1      10.595  13.718  19.799  0.00  0.00    +0.000 Cl
ATOM     11  C   UNL     1       9.738  11.205  20.289  0.00  0.00    +0.000 A 
ATOM     12  C   UNL     1       9.174   9.979  19.915  0.00  0.00    +0.000 A 
ENDBRANCH   3   6
BRANCH   1  13
ATOM     13  C   UNL     1       7.195   4.964  17.866  0.00  0.00    +0.000 C 
BRANCH  13  15
ATOM     14  O   UNL     1       5.496   5.385  19.489  0.00  0.00    +0.000 OA
ATOM     15  C   UNL     1       5.837   4.735  18.503  0.00  0.00    +0.000 C 
ATOM     16  N   UNL     1       5.075   3.769  17.865  0.00  0.00    +0.000 N 
ATOM     17  H   UNL     1       5.517   3.245  17.118  0.00  0.00    +0.000 HD
BRANCH  16  18
ATOM     18  C   UNL     1       3.758   3.381  18.205  0.00  0.00    +0.000 A 
ATOM     19  C   UNL     1       3.445   2.461  19.201  0.00  0.00    +0.000 A 
ATOM     20  C   UNL     1       2.115   2.120  19.442  0.00  0.00    +0.000 A 
ATOM     21  C   UNL     1       1.129   2.718  18.675  0.00  0.00    +0.000 A 
ATOM     22  N   UNL     1       1.384   3.633  17.718  0.00  0.00    +0.000 NA
ATOM     23  C   UNL     1       2.687   3.946  17.514  0.00  0.00    +0.000 A 
ENDBRANCH  16  18
ENDBRANCH  13  15
ENDBRANCH   1  13
TORSDOF 4
ENDMDL
MODEL 4
REMARK VINA RESULT:      -8.0      0.748      1.316
REMARK  Name = 
REMARK  4 active torsions:
REMARK  status: ('A' for Active; 'I' for Inactive)
REMARK    1  A    between atoms: C_2  and  C_3
REMARK    2  A    between atoms: C_3  and  C_4
REMARK    3  A    between atoms: C_6  and  C_7
REMARK    4  A    between atoms: N_16  and  C_17
REMARK                            x       y       z     vdW  Elec       q    Type
REMARK                         _______ _______ _______ _____ _____    ______ ____
ROOT
ATOM      1  C   UNL     1       7.566   6.375  17.899  0.00  0.00    +0.000 A 
ATOM      2  C   UNL     1       8.255   7.252  18.766  0.00  0.00    +0.000 A 
ATOM      3  C   UNL     1       8.231   8.472  18.130  0.00  0.00    +0.000 A 
ATOM      4  O   UNL     1       7.586   8.321  16.938  0.00  0.00    +0.000 OA
ATOM      5  N   UNL     1       7.165   7.007  16.788  0.00  0.00    +0.000 NA
ENDROOT
BRANCH   3   6
ATOM      6  C   UNL     1       8.705   9.806  18.476  0.00  0.00    +0.000 A 
ATOM      7  C   UNL     1       8.414  10.893  17.633  0.00  0.00    +0.000 A 
ATOM      8  C   UNL     1       8.904  12.173  17.914  0.00  0.00    +0.000 A 
ATOM      9  C   UNL     1       9.685  12.382  19.044  0.00  0.00    +0.000 A 
ATOM     10 CL   UNL     1      10.311  13.948  19.373  0.00  0.00    +0.000 Cl
ATOM     11  C   UNL     1       9.970  11.323  19.904  0.00  0.00    +0.000 A 
ATOM     12  C   UNL     1       9.480  10.042  19.622  0.00  0.00    +0.000 A 
ENDBRANCH   3   6
BRANCH   1  13
ATOM     13  C   UNL     1       7.270   4.935  18.103  0.00  0.00    +0.000 C 
BRANCH  13  15
ATOM     14  O   UNL     1       5.207   5.723  19.010  0.00  0.00    +0.000 OA
ATOM     15  C   UNL     1       5.842   4.759  18.588  0.00  0.00    +0.000 C 
ATOM     16  N   UNL     1       5.374   3.459  18.490  0.00  0.00    +0.000 N 
ATOM     17  H   UNL     1       6.037   2.744  18.210  0.00  0.00    +0.000 HD
BRANCH  16  18
ATOM     18  C   UNL     1       4.074   3.009  18.820  0.00  0.00    +0.000 A 
ATOM     19  C   UNL     1       3.081   2.732  17.885  0.00  0.00    +0.000 A 
ATOM     20  C   UNL     1       1.818   2.322  18.312  0.00  0.00    +0.000 A 
ATOM     21  C   UNL     1       1.587   2.196  19.671  0.00  0.00    +0.000 A 
ATOM     22  N   UNL     1       2.527   2.428  20.610  0.00  0.00    +0.000 NA
ATOM     23  C   UNL     1       3.744   2.819  20.162  0.00  0.00    +0.000 A 
ENDBRANCH  16  18
ENDBRANCH  13  15
ENDBRANCH   1  13
TORSDOF 4
ENDMDL
MODEL 5
REMARK VINA RESULT:      -7.8      1.149      1.541
REMARK  Name = 
REMARK  4 active torsions:
REMARK  status: ('A' for Active; 'I' for Inactive)
REMARK    1  A    between atoms: C_2  and  C_3
REMARK    2  A    between atoms: C_3  and  C_4
REMARK    3  A    between atoms: C_6  and  C_7
REMARK    4  A    between atoms: N_16  and  C_17
REMARK                            x       y       z     vdW  Elec       q    Type
REMARK                         _______ _______ _______ _____ _____    ______ ____
ROOT
ATOM      1  C   UNL     1       7.434   6.811  17.690  0.00  0.00    +0.000 A 
ATOM      2  C   UNL     1       8.326   7.534  18.514  0.00  0.00    +0.000 A 
ATOM      3  C   UNL     1       8.200   8.843  18.110  0.00  0.00    +0.000 A 
ATOM      4  O   UNL     1       7.303   8.892  17.085  0.00  0.00    +0.000 OA
ATOM      5  N   UNL     1       6.818   7.619  16.818  0.00  0.00    +0.000 NA
ENDROOT
BRANCH   3   6
ATOM      6  C   UNL     1       8.782  10.103  18.557  0.00  0.00    +0.000 A 
ATOM      7  C   UNL     1       8.651  11.255  17.762  0.00  0.00    +0.000 A 
ATOM      8  C   UNL     1       9.246  12.463  18.142  0.00  0.00    +0.000 A 
ATOM      9  C   UNL     1       9.975  12.533  19.323  0.00  0.00    +0.000 A 
ATOM     10 CL   UNL     1      10.732  14.010  19.774  0.00  0.00    +0.000 Cl
ATOM     11  C   UNL     1      10.103  11.409  20.136  0.00  0.00    +0.000 A 
ATOM     12  C   UNL     1       9.507  10.200  19.755  0.00  0.00    +0.000 A 
ENDBRANCH   3   6
BRANCH   1  13
ATOM     13  C   UNL     1       7.145   5.356  17.715  0.00  0.00    +0.000 C 
BRANCH  13  15
ATOM     14  O   UNL     1       6.491   5.067  19.992  0.00  0.00    +0.000 OA
ATOM     15  C   UNL     1       6.146   5.041  18.813  0.00  0.00    +0.000 C 
ATOM     16  N   UNL     1       4.874   4.748  18.347  0.00  0.00    +0.000 N 
ATOM     17  H   UNL     1       4.752   4.672  17.343  0.00  0.00    +0.000 HD
BRANCH  16  18
ATOM     18  C   UNL     1       3.736   4.465  19.138  0.00  0.00    +0.000 A 
ATOM     19  C   UNL     1       2.989   5.430  19.808  0.00  0.00    +0.000 A 
ATOM     20  C   UNL     1       1.899   5.048  20.589  0.00  0.00    +0.000 A 
ATOM     21  C   UNL     1       1.584   3.702  20.674  0.00  0.00    +0.000 A 
ATOM     22  N   UNL     1       2.264   2.737  20.021  0.00  0.00    +0.000 NA
ATOM     23  C   UNL     1       3.314   3.143  19.267  0.00  0.00    +0.000 A 
ENDBRANCH  16  18
ENDBRANCH  13  15
ENDBRANCH   1  13
TORSDOF 4
ENDMDL
MODEL 6
REMARK VINA RESULT:      -7.8      1.321      1.321
REMARK  Name = 
REMARK  4 active torsions:
REMARK  status: ('A' for Active; 'I' for Inactive)
REMARK    1  A    between atoms: C_2  and  C_3
REMARK    2  A    between atoms: C_3  and  C_4
REMARK    3  A    between atoms: C_6  and  C_7
REMARK    4  A    between atoms: N_16  and  C_17
REMARK                            x       y       z     vdW  Elec       q    Type
REMARK                         _______ _______ _______ _____ _____    ______ ____
ROOT
ATOM      1  C   UNL     1       7.398   6.286  17.731  0.00  0.00    +0.000 A 
ATOM      2  C   UNL     1       8.221   7.111  18.530  0.00  0.00    +0.000 A 
ATOM      3  C   UNL     1       8.074   8.374  18.007  0.00  0.00    +0.000 A 
ATOM      4  O   UNL     1       7.230   8.300  16.938  0.00  0.00    +0.000 OA
ATOM      5  N   UNL     1       6.802   6.992  16.761  0.00  0.00    +0.000 NA
ENDROOT
BRANCH   3   6
ATOM      6  C   UNL     1       8.589   9.689  18.368  0.00  0.00    +0.000 A 
ATOM      7  C   UNL     1       9.259   9.866  19.591  0.00  0.00    +0.000 A 
ATOM      8  C   UNL     1       9.716  11.128  19.986  0.00  0.00    +0.000 A 
ATOM      9  C   UNL     1       9.512  12.227  19.160  0.00  0.00    +0.000 A 
ATOM     10 CL   UNL     1      10.046  13.782  19.659  0.00  0.00    +0.000 Cl
ATOM     11  C   UNL     1       8.867  12.071  17.934  0.00  0.00    +0.000 A 
ATOM     12  C   UNL     1       8.410  10.808  17.540  0.00  0.00    +0.000 A 
ENDBRANCH   3   6
BRANCH   1  13
ATOM     13  C   UNL     1       7.156   4.828  17.869  0.00  0.00    +0.000 C 
BRANCH  13  15
ATOM     14  O   UNL     1       5.010   4.274  16.984  0.00  0.00    +0.000 OA
ATOM     15  C   UNL     1       5.668   4.555  17.983  0.00  0.00    +0.000 C 
ATOM     16  N   UNL     1       5.179   4.646  19.276  0.00  0.00    +0.000 N 
ATOM     17  H   UNL     1       5.815   4.977  19.994  0.00  0.00    +0.000 HD
BRANCH  16  18
ATOM     18  C   UNL     1       3.849   4.397  19.689  0.00  0.00    +0.000 A 
ATOM     19  C   UNL     1       2.902   5.391  19.920  0.00  0.00    +0.000 A 
ATOM     20  C   UNL     1       1.623   5.047  20.355  0.00  0.00    +0.000 A 
ATOM     21  C   UNL     1       1.326   3.707  20.544  0.00  0.00    +0.000 A 
ATOM     22  N   UNL     1       2.203   2.710  20.308  0.00  0.00    +0.000 NA
ATOM     23  C   UNL     1       3.435   3.079  19.881  0.00  0.00    +0.000 A 
ENDBRANCH  16  18
ENDBRANCH  13  15
ENDBRANCH   1  13
TORSDOF 4
ENDMDL
MODEL 7
REMARK VINA RESULT:      -7.7      1.225      1.607
REMARK  Name = 
REMARK  4 active torsions:
REMARK  status: ('A' for Active; 'I' for Inactive)
REMARK    1  A    between atoms: C_2  and  C_3
REMARK    2  A    between atoms: C_3  and  C_4
REMARK    3  A    between atoms: C_6  and  C_7
REMARK    4  A    between atoms: N_16  and  C_17
REMARK                            x       y       z     vdW  Elec       q    Type
REMARK                         _______ _______ _______ _____ _____    ______ ____
ROOT
ATOM      1  C   UNL     1       7.471   6.090  17.809  0.00  0.00    +0.000 A 
ATOM      2  C   UNL     1       7.948   7.007  18.772  0.00  0.00    +0.000 A 
ATOM      3  C   UNL     1       8.143   8.180  18.080  0.00  0.00    +0.000 A 
ATOM      4  O   UNL     1       7.826   7.964  16.772  0.00  0.00    +0.000 OA
ATOM      5  N   UNL     1       7.402   6.654  16.596  0.00  0.00    +0.000 NA
ENDROOT
BRANCH   3   6
ATOM      6  C   UNL     1       8.569   9.522  18.457  0.00  0.00    +0.000 A 
ATOM      7  C   UNL     1       8.313  10.605  17.599  0.00  0.00    +0.000 A 
ATOM      8  C   UNL     1       8.759  11.893  17.912  0.00  0.00    +0.000 A 
ATOM      9  C   UNL     1       9.462  12.114  19.091  0.00  0.00    +0.000 A 
ATOM     10 CL   UNL     1      10.035  13.692  19.461  0.00  0.00    +0.000 Cl
ATOM     11  C   UNL     1       9.711  11.059  19.966  0.00  0.00    +0.000 A 
ATOM     12  C   UNL     1       9.264   9.770  19.652  0.00  0.00    +0.000 A 
ENDBRANCH   3   6
BRANCH   1  13
ATOM     13  C   UNL     1       7.069   4.676  18.015  0.00  0.00    +0.000 C 
BRANCH  13  15
ATOM     14  O   UNL     1       4.843   4.957  17.200  0.00  0.00    +0.000 OA
ATOM     15  C   UNL     1       5.559   4.573  18.122  0.00  0.00    +0.000 C 
ATOM     16  N   UNL     1       5.118   4.016  19.312  0.00  0.00    +0.000 N 
ATOM     17  H   UNL     1       5.815   3.829  20.025  0.00  0.00    +0.000 HD
BRANCH  16  18
ATOM     18  C   UNL     1       3.775   3.753  19.668  0.00  0.00    +0.000 A 
ATOM     19  C   UNL     1       2.946   4.661  20.321  0.00  0.00    +0.000 A 
ATOM     20  C   UNL     1       1.643   4.297  20.658  0.00  0.00    +0.000 A 
ATOM     21  C   UNL     1       1.203   3.027  20.324  0.00  0.00    +0.000 A 
ATOM     22  N   UNL     1       1.962   2.125  19.669  0.00  0.00    +0.000 NA
ATOM     23  C   UNL     1       3.221   2.513  19.352  0.00  0.00    +0.000 A 
ENDBRANCH  16  18
ENDBRANCH  13  15
ENDBRANCH   1  13
TORSDOF 4
ENDMDL
MODEL 8
REMARK VINA RESULT:      -7.6      1.482      1.669
REMARK  Name = 
REMARK  4 active torsions:
REMARK  status: ('A' for Active; 'I' for Inactive)
REMARK    1  A    between atoms: C_2  and  C_3
REMARK    2  A    between atoms: C_3  and  C_4
REMARK    3  A    between atoms: C_6  and  C_7
REMARK    4  A    between atoms: N_16  and  C_17
REMARK                            x       y       z     vdW  Elec       q    Type
REMARK                         _______ _______ _______ _____ _____    ______ ____
ROOT
ATOM      1  C   UNL     1       7.394   6.260  17.715  0.00  0.00    +0.000 A 
ATOM      2  C   UNL     1       8.202   7.074  18.539  0.00  0.00    +0.000 A 
ATOM      3  C   UNL     1       8.087   8.339  18.010  0.00  0.00    +0.000 A 
ATOM      4  O   UNL     1       7.277   8.274  16.916  0.00  0.00    +0.000 OA
ATOM      5  N   UNL     1       6.837   6.972  16.726  0.00  0.00    +0.000 NA
ENDROOT
BRANCH   3   6
ATOM      6  C   UNL     1       8.608   9.648  18.387  0.00  0.00    +0.000 A 
ATOM      7  C   UNL     1       9.240   9.818  19.631  0.00  0.00    +0.000 A 
ATOM      8  C   UNL     1       9.700  11.074  20.038  0.00  0.00    +0.000 A 
ATOM      9  C   UNL     1       9.538  12.174  19.204  0.00  0.00    +0.000 A 
ATOM     10 CL   UNL     1      10.077  13.723  19.719  0.00  0.00    +0.000 Cl
ATOM     11  C   UNL     1       8.931  12.025  17.959  0.00  0.00    +0.000 A 
ATOM     12  C   UNL     1       8.471  10.767  17.551  0.00  0.00    +0.000 A 
ENDBRANCH   3   6
BRANCH   1  13
ATOM     13  C   UNL     1       7.128   4.805  17.847  0.00  0.00    +0.000 C 
BRANCH  13  15
ATOM     14  O   UNL     1       4.962   4.309  16.975  0.00  0.00    +0.000 OA
ATOM     15  C   UNL     1       5.636   4.556  17.972  0.00  0.00    +0.000 C 
ATOM     16  N   UNL     1       5.164   4.627  19.273  0.00  0.00    +0.000 N 
ATOM     17  H   UNL     1       5.815   4.931  19.990  0.00  0.00    +0.000 HD
BRANCH  16  18
ATOM     18  C   UNL     1       3.835   4.393  19.696  0.00  0.00    +0.000 A 
ATOM     19  C   UNL     1       3.298   3.130  19.929  0.00  0.00    +0.000 A 
ATOM     20  C   UNL     1       1.965   3.000  20.316  0.00  0.00    +0.000 A 
ATOM     21  C   UNL     1       1.204   4.147  20.463  0.00  0.00    +0.000 A 
ATOM     22  N   UNL     1       1.689   5.392  20.274  0.00  0.00    +0.000 NA
ATOM     23  C   UNL     1       2.990   5.482  19.905  0.00  0.00    +0.000 A 
ENDBRANCH  16  18
ENDBRANCH  13  15
ENDBRANCH   1  13
TORSDOF 4
ENDMDL
MODEL 9
REMARK VINA RESULT:      -7.6      1.196      1.645
REMARK  Name = 
REMARK  4 active torsions:
REMARK  status: ('A' for Active; 'I' for Inactive)
REMARK    1  A    between atoms: C_2  and  C_3
REMARK    2  A    between atoms: C_3  and  C_4
REMARK    3  A    between atoms: C_6  and  C_7
REMARK    4  A    between atoms: N_16  and  C_17
REMARK                            x       y       z     vdW  Elec       q    Type
REMARK                         _______ _______ _______ _____ _____    ______ ____
ROOT
ATOM      1  C   UNL     1       7.497   6.740  17.729  0.00  0.00    +0.000 A 
ATOM      2  C   UNL     1       8.407   7.473  18.522  0.00  0.00    +0.000 A 
ATOM      3  C   UNL     1       8.221   8.786  18.156  0.00  0.00    +0.000 A 
ATOM      4  O   UNL     1       7.271   8.828  17.179  0.00  0.00    +0.000 OA
ATOM      5  N   UNL     1       6.812   7.547  16.907  0.00  0.00    +0.000 NA
ENDROOT
BRANCH   3   6
ATOM      6  C   UNL     1       8.786  10.054  18.601  0.00  0.00    +0.000 A 
ATOM      7  C   UNL     1       8.738  11.176  17.757  0.00  0.00    +0.000 A 
ATOM      8  C   UNL     1       9.321  12.389  18.139  0.00  0.00    +0.000 A 
ATOM      9  C   UNL     1       9.954  12.495  19.372  0.00  0.00    +0.000 A 
ATOM     10 CL   UNL     1      10.697  13.977  19.827  0.00  0.00    +0.000 Cl
ATOM     11  C   UNL     1       9.997  11.400  20.233  0.00  0.00    +0.000 A 
ATOM     12  C   UNL     1       9.414  10.186  19.850  0.00  0.00    +0.000 A 
ENDBRANCH   3   6
BRANCH   1  13
ATOM     13  C   UNL     1       7.254   5.276  17.734  0.00  0.00    +0.000 C 
BRANCH  13  15
ATOM     14  O   UNL     1       6.337   4.777  19.880  0.00  0.00    +0.000 OA
ATOM     15  C   UNL     1       6.118   4.939  18.682  0.00  0.00    +0.000 C 
ATOM     16  N   UNL     1       4.880   4.854  18.066  0.00  0.00    +0.000 N 
ATOM     17  H   UNL     1       4.858   4.919  17.053  0.00  0.00    +0.000 HD
BRANCH  16  18
ATOM     18  C   UNL     1       3.642   4.603  18.702  0.00  0.00    +0.000 A 
ATOM     19  C   UNL     1       2.729   3.638  18.286  0.00  0.00    +0.000 A 
ATOM     20  C   UNL     1       1.519   3.487  18.962  0.00  0.00    +0.000 A 
ATOM     21  C   UNL     1       1.258   4.310  20.044  0.00  0.00    +0.000 A 
ATOM     22  N   UNL     1       2.124   5.240  20.498  0.00  0.00    +0.000 NA
ATOM     23  C   UNL     1       3.292   5.356  19.822  0.00  0.00    +0.000 A 
ENDBRANCH  16  18
ENDBRANCH  13  15
ENDBRANCH   1  13
TORSDOF 4
ENDMDL
