MODEL 1
REMARK VINA RESULT:      -6.5      0.000      0.000
REMARK  Name = 
REMARK  18 active torsions:
REMARK  status: ('A' for Active; 'I' for Inactive)
REMARK    1  A    between atoms: C_1  and  C_2
REMARK    2  A    between atoms: C_2  and  N_3
REMARK    3  A    between atoms: N_3  and  C_4
REMARK    4  A    between atoms: N_3  and  C_6
REMARK    5  A    between atoms: N_3  and  C_8
REMARK    6  A    between atoms: C_4  and  C_5
REMARK    7  A    between atoms: C_6  and  C_7
REMARK    8  A    between atoms: C_8  and  C_9
REMARK    9  A    between atoms: C_12  and  C_13
REMARK   10  A    between atoms: C_13  and  C_15
REMARK   11  A    between atoms: C_18  and  C_19
REMARK   12  A    between atoms: C_19  and  N_20
REMARK   13  A    between atoms: N_20  and  C_21
REMARK   14  A    between atoms: N_20  and  C_23
REMARK   15  A    between atoms: N_20  and  C_25
REMARK   16  A    between atoms: C_21  and  C_22
REMARK   17  A    between atoms: C_23  and  C_24
REMARK   18  A    between atoms: C_25  and  C_26
REMARK                            x       y       z     vdW  Elec       q    Type
REMARK                         _______ _______ _______ _____ _____    ______ ____
ROOT
ATOM      1  C   UNL     1       0.400  10.513  19.991  0.00  0.00    +0.000 C 
ATOM      2  O   UNL     1       0.859  11.148  20.936  0.00  0.00    +0.000 OA
ENDROOT
BRANCH   1   6
ATOM      3  C   UNL     1       2.658   7.152  18.572  0.00  0.00    +0.000 A 
ATOM      4  C   UNL     1       2.089   7.246  19.872  0.00  0.00    +0.000 A 
ATOM      5  C   UNL     1       1.341   8.323  20.290  0.00  0.00    +0.000 A 
ATOM      6  C   UNL     1       1.107   9.348  19.430  0.00  0.00    +0.000 A 
ATOM      7  C   UNL     1       1.530   9.228  18.079  0.00  0.00    +0.000 A 
ATOM      8  C   UNL     1       2.291   8.132  17.669  0.00  0.00    +0.000 A 
BRANCH   3   9
ATOM      9  C   UNL     1       3.733   6.137  18.232  0.00  0.00    +0.000 C 
BRANCH   9  10
ATOM     10  N   UNL     1       3.336   4.636  18.230  0.00  0.00    +0.000 N 
BRANCH  10  12
ATOM     11  C   UNL     1       1.090   3.362  18.520  0.00  0.00    +0.000 C 
ATOM     12  C   UNL     1       1.838   4.514  17.834  0.00  0.00    +0.000 C 
ENDBRANCH  10  12
BRANCH  10  13
ATOM     13  C   UNL     1       3.558   3.986  19.631  0.00  0.00    +0.000 C 
ATOM     14  C   UNL     1       4.514   2.794  19.619  0.00  0.00    +0.000 C 
ENDBRANCH  10  13
BRANCH  10  15
ATOM     15  C   UNL     1       4.207   3.910  17.163  0.00  0.00    +0.000 C 
ATOM     16  C   UNL     1       5.127   4.818  16.342  0.00  0.00    +0.000 C 
ENDBRANCH  10  15
ENDBRANCH   9  10
ENDBRANCH   3   9
ENDBRANCH   1   6
BRANCH   1  17
ATOM     17  C   UNL     1      -0.922  10.903  19.442  0.00  0.00    +0.000 A 
ATOM     18  C   UNL     1      -1.590  10.150  18.494  0.00  0.00    +0.000 A 
ATOM     19  C   UNL     1      -2.877  10.562  18.082  0.00  0.00    +0.000 A 
ATOM     20  C   UNL     1      -3.488  11.712  18.665  0.00  0.00    +0.000 A 
ATOM     21  C   UNL     1      -2.749  12.434  19.607  0.00  0.00    +0.000 A 
ATOM     22  C   UNL     1      -1.464  12.080  19.927  0.00  0.00    +0.000 A 
BRANCH  20  23
ATOM     23  C   UNL     1      -4.780  12.270  18.129  0.00  0.00    +0.000 C 
BRANCH  23  24
ATOM     24  N   UNL     1      -6.040  12.386  19.051  0.00  0.00    +0.000 N 
BRANCH  24  25
ATOM     25  C   UNL     1      -5.793  13.501  20.163  0.00  0.00    +0.000 C 
ATOM     26  C   UNL     1      -5.874  12.951  21.592  0.00  0.00    +0.000 C 
ENDBRANCH  24  25
BRANCH  24  27
ATOM     27  C   UNL     1      -7.340  12.656  18.199  0.00  0.00    +0.000 C 
ATOM     28  C   UNL     1      -7.211  13.545  16.936  0.00  0.00    +0.000 C 
ENDBRANCH  24  27
BRANCH  24  29
ATOM     29  C   UNL     1      -6.267  11.046  19.775  0.00  0.00    +0.000 C 
ATOM     30  C   UNL     1      -6.906   9.968  18.919  0.00  0.00    +0.000 C 
ENDBRANCH  24  29
ENDBRANCH  23  24
ENDBRANCH  20  23
ENDBRANCH   1  17
TORSDOF 12
ENDMDL
MODEL 2
REMARK VINA RESULT:      -6.5      1.134      9.797
REMARK  Name = 
REMARK  18 active torsions:
REMARK  status: ('A' for Active; 'I' for Inactive)
REMARK    1  A    between atoms: C_1  and  C_2
REMARK    2  A    between atoms: C_2  and  N_3
REMARK    3  A    between atoms: N_3  and  C_4
REMARK    4  A    between atoms: N_3  and  C_6
REMARK    5  A    between atoms: N_3  and  C_8
REMARK    6  A    between atoms: C_4  and  C_5
REMARK    7  A    between atoms: C_6  and  C_7
REMARK    8  A    between atoms: C_8  and  C_9
REMARK    9  A    between atoms: C_12  and  C_13
REMARK   10  A    between atoms: C_13  and  C_15
REMARK   11  A    between atoms: C_18  and  C_19
REMARK   12  A    between atoms: C_19  and  N_20
REMARK   13  A    between atoms: N_20  and  C_21
REMARK   14  A    between atoms: N_20  and  C_23
REMARK   15  A    between atoms: N_20  and  C_25
REMARK   16  A    between atoms: C_21  and  C_22
REMARK   17  A    between atoms: C_23  and  C_24
REMARK   18  A    between atoms: C_25  and  C_26
REMARK                            x       y       z     vdW  Elec       q    Type
REMARK                         _______ _______ _______ _____ _____    ______ ____
ROOT
ATOM      1  C   UNL     1       0.166  10.727  19.837  0.00  0.00    +0.000 C 
ATOM      2  O   UNL     1       0.609  11.708  20.427  0.00  0.00    +0.000 OA
ENDROOT
BRANCH   1   6
ATOM      3  C   UNL     1      -3.595  11.071  17.801  0.00  0.00    +0.000 A 
ATOM      4  C   UNL     1      -2.831  12.176  18.267  0.00  0.00    +0.000 A 
ATOM      5  C   UNL     1      -1.611  12.037  18.889  0.00  0.00    +0.000 A 
ATOM      6  C   UNL     1      -1.084  10.798  19.059  0.00  0.00    +0.000 A 
ATOM      7  C   UNL     1      -1.742   9.680  18.478  0.00  0.00    +0.000 A 
ATOM      8  C   UNL     1      -2.981   9.833  17.853  0.00  0.00    +0.000 A 
BRANCH   3   9
ATOM      9  C   UNL     1      -5.058  11.203  17.420  0.00  0.00    +0.000 C 
BRANCH   9  10
ATOM     10  N   UNL     1      -6.086  11.425  18.564  0.00  0.00    +0.000 N 
BRANCH  10  12
ATOM     11  C   UNL     1      -7.409  10.021  20.303  0.00  0.00    +0.000 C 
ATOM     12  C   UNL     1      -6.740  10.062  18.922  0.00  0.00    +0.000 C 
ENDBRANCH  10  12
BRANCH  10  13
ATOM     13  C   UNL     1      -7.194  12.440  18.143  0.00  0.00    +0.000 C 
ATOM     14  C   UNL     1      -6.846  13.261  16.902  0.00  0.00    +0.000 C 
ENDBRANCH  10  13
BRANCH  10  15
ATOM     15  C   UNL     1      -5.314  11.964  19.804  0.00  0.00    +0.000 C 
ATOM     16  C   UNL     1      -5.771  13.333  20.316  0.00  0.00    +0.000 C 
ENDBRANCH  10  15
ENDBRANCH   9  10
ENDBRANCH   3   9
ENDBRANCH   1   6
BRANCH   1  17
ATOM     17  C   UNL     1       0.939   9.462  19.869  0.00  0.00    +0.000 A 
ATOM     18  C   UNL     1       0.941   8.614  20.962  0.00  0.00    +0.000 A 
ATOM     19  C   UNL     1       1.650   7.395  20.876  0.00  0.00    +0.000 A 
ATOM     20  C   UNL     1       2.319   7.033  19.669  0.00  0.00    +0.000 A 
ATOM     21  C   UNL     1       2.288   7.945  18.610  0.00  0.00    +0.000 A 
ATOM     22  C   UNL     1       1.679   9.166  18.739  0.00  0.00    +0.000 A 
BRANCH  20  23
ATOM     23  C   UNL     1       3.218   5.827  19.602  0.00  0.00    +0.000 C 
BRANCH  23  24
ATOM     24  N   UNL     1       2.634   4.386  19.789  0.00  0.00    +0.000 N 
BRANCH  24  25
ATOM     25  C   UNL     1       3.675   3.309  19.244  0.00  0.00    +0.000 C 
ATOM     26  C   UNL     1       5.037   3.918  18.887  0.00  0.00    +0.000 C 
ENDBRANCH  24  25
BRANCH  24  27
ATOM     27  C   UNL     1       2.228   4.133  21.291  0.00  0.00    +0.000 C 
ATOM     28  C   UNL     1       1.532   2.793  21.642  0.00  0.00    +0.000 C 
ENDBRANCH  24  27
BRANCH  24  29
ATOM     29  C   UNL     1       1.343   4.249  18.961  0.00  0.00    +0.000 C 
ATOM     30  C   UNL     1       1.555   4.262  17.458  0.00  0.00    +0.000 C 
ENDBRANCH  24  29
ENDBRANCH  23  24
ENDBRANCH  20  23
ENDBRANCH   1  17
TORSDOF 12
ENDMDL
MODEL 3
REMARK VINA RESULT:      -6.4      0.683      9.971
REMARK  Name = 
REMARK  18 active torsions:
REMARK  status: ('A' for Active; 'I' for Inactive)
REMARK    1  A    between atoms: C_1  and  C_2
REMARK    2  A    between atoms: C_2  and  N_3
REMARK    3  A    between atoms: N_3  and  C_4
REMARK    4  A    between atoms: N_3  and  C_6
REMARK    5  A    between atoms: N_3  and  C_8
REMARK    6  A    between atoms: C_4  and  C_5
REMARK    7  A    between atoms: C_6  and  C_7
REMARK    8  A    between atoms: C_8  and  C_9
REMARK    9  A    between atoms: C_12  and  C_13
REMARK   10  A    between atoms: C_13  and  C_15
REMARK   11  A    between atoms: C_18  and  C_19
REMARK   12  A    between atoms: C_19  and  N_20
REMARK   13  A    between atoms: N_20  and  C_21
REMARK   14  A    between atoms: N_20  and  C_23
REMARK   15  A    between atoms: N_20  and  C_25
REMARK   16  A    between atoms: C_21  and  C_22
REMARK   17  A    between atoms: C_23  and  C_24
REMARK   18  A    between atoms: C_25  and  C_26
REMARK                            x       y       z     vdW  Elec       q    Type
REMARK                         _______ _______ _______ _____ _____    ______ ____
ROOT
ATOM      1  C   UNL     1       0.451  10.295  19.837  0.00  0.00    +0.000 C 
ATOM      2  O   UNL     1       0.775  10.992  20.794  0.00  0.00    +0.000 OA
ENDROOT
BRANCH   1   6
ATOM      3  C   UNL     1      -3.094  11.358  17.666  0.00  0.00    +0.000 A 
ATOM      4  C   UNL     1      -2.288  12.281  18.388  0.00  0.00    +0.000 A 
ATOM      5  C   UNL     1      -1.137  11.917  19.048  0.00  0.00    +0.000 A 
ATOM      6  C   UNL     1      -0.723  10.625  19.008  0.00  0.00    +0.000 A 
ATOM      7  C   UNL     1      -1.415   9.702  18.179  0.00  0.00    +0.000 A 
ATOM      8  C   UNL     1      -2.584  10.082  17.516  0.00  0.00    +0.000 A 
BRANCH   3   9
ATOM      9  C   UNL     1      -4.507  11.693  17.224  0.00  0.00    +0.000 C 
BRANCH   9  10
ATOM     10  N   UNL     1      -5.615  11.734  18.312  0.00  0.00    +0.000 N 
BRANCH  10  12
ATOM     11  C   UNL     1      -7.152   9.798  19.110  0.00  0.00    +0.000 C 
ATOM     12  C   UNL     1      -5.719  10.332  18.974  0.00  0.00    +0.000 C 
ENDBRANCH  10  12
BRANCH  10  13
ATOM     13  C   UNL     1      -6.996  12.126  17.702  0.00  0.00    +0.000 C 
ATOM     14  C   UNL     1      -7.083  13.582  17.245  0.00  0.00    +0.000 C 
ENDBRANCH  10  13
BRANCH  10  15
ATOM     15  C   UNL     1      -5.193  12.777  19.387  0.00  0.00    +0.000 C 
ATOM     16  C   UNL     1      -5.679  12.484  20.809  0.00  0.00    +0.000 C 
ENDBRANCH  10  15
ENDBRANCH   9  10
ENDBRANCH   3   9
ENDBRANCH   1   6
BRANCH   1  17
ATOM     17  C   UNL     1       1.295   9.128  19.483  0.00  0.00    +0.000 A 
ATOM     18  C   UNL     1       1.564   8.103  20.371  0.00  0.00    +0.000 A 
ATOM     19  C   UNL     1       2.319   6.997  19.923  0.00  0.00    +0.000 A 
ATOM     20  C   UNL     1       2.761   6.924  18.568  0.00  0.00    +0.000 A 
ATOM     21  C   UNL     1       2.464   8.003  17.730  0.00  0.00    +0.000 A 
ATOM     22  C   UNL     1       1.815   9.114  18.201  0.00  0.00    +0.000 A 
BRANCH  20  23
ATOM     23  C   UNL     1       3.705   5.845  18.107  0.00  0.00    +0.000 C 
BRANCH  23  24
ATOM     24  N   UNL     1       3.277   4.340  18.153  0.00  0.00    +0.000 N 
BRANCH  24  25
ATOM     25  C   UNL     1       4.099   3.514  17.065  0.00  0.00    +0.000 C 
ATOM     26  C   UNL     1       5.316   4.277  16.527  0.00  0.00    +0.000 C 
ENDBRANCH  24  25
BRANCH  24  27
ATOM     27  C   UNL     1       3.434   3.753  19.608  0.00  0.00    +0.000 C 
ATOM     28  C   UNL     1       4.357   2.524  19.802  0.00  0.00    +0.000 C 
ENDBRANCH  24  27
BRANCH  24  29
ATOM     29  C   UNL     1       1.783   4.223  17.796  0.00  0.00    +0.000 C 
ATOM     30  C   UNL     1       0.974   3.365  18.751  0.00  0.00    +0.000 C 
ENDBRANCH  24  29
ENDBRANCH  23  24
ENDBRANCH  20  23
ENDBRANCH   1  17
TORSDOF 12
ENDMDL
MODEL 4
REMARK VINA RESULT:      -6.3      4.460      9.919
REMARK  Name = 
REMARK  18 active torsions:
REMARK  status: ('A' for Active; 'I' for Inactive)
REMARK    1  A    between atoms: C_1  and  C_2
REMARK    2  A    between atoms: C_2  and  N_3
REMARK    3  A    between atoms: N_3  and  C_4
REMARK    4  A    between atoms: N_3  and  C_6
REMARK    5  A    between atoms: N_3  and  C_8
REMARK    6  A    between atoms: C_4  and  C_5
REMARK    7  A    between atoms: C_6  and  C_7
REMARK    8  A    between atoms: C_8  and  C_9
REMARK    9  A    between atoms: C_12  and  C_13
REMARK   10  A    between atoms: C_13  and  C_15
REMARK   11  A    between atoms: C_18  and  C_19
REMARK   12  A    between atoms: C_19  and  N_20
REMARK   13  A    between atoms: N_20  and  C_21
REMARK   14  A    between atoms: N_20  and  C_23
REMARK   15  A    between atoms: N_20  and  C_25
REMARK   16  A    between atoms: C_21  and  C_22
REMARK   17  A    between atoms: C_23  and  C_24
REMARK   18  A    between atoms: C_25  and  C_26
REMARK                            x       y       z     vdW  Elec       q    Type
REMARK                         _______ _______ _______ _____ _____    ______ ____
ROOT
ATOM      1  C   UNL     1       0.754  10.388  18.621  0.00  0.00    +0.000 C 
ATOM      2  O   UNL     1      -0.405  10.369  18.218  0.00  0.00    +0.000 OA
ENDROOT
BRANCH   1   6
ATOM      3  C   UNL     1       2.913  13.923  19.739  0.00  0.00    +0.000 A 
ATOM      4  C   UNL     1       2.969  13.322  18.452  0.00  0.00    +0.000 A 
ATOM      5  C   UNL     1       2.241  12.206  18.111  0.00  0.00    +0.000 A 
ATOM      6  C   UNL     1       1.407  11.647  19.025  0.00  0.00    +0.000 A 
ATOM      7  C   UNL     1       1.209  12.300  20.271  0.00  0.00    +0.000 A 
ATOM      8  C   UNL     1       1.957  13.430  20.607  0.00  0.00    +0.000 A 
BRANCH   3   9
ATOM      9  C   UNL     1       3.944  14.935  20.204  0.00  0.00    +0.000 C 
BRANCH   9  10
ATOM     10  N   UNL     1       3.914  16.347  19.557  0.00  0.00    +0.000 N 
BRANCH  10  12
ATOM     11  C   UNL     1       4.679  16.830  21.992  0.00  0.00    +0.000 C 
ATOM     12  C   UNL     1       4.188  17.409  20.658  0.00  0.00    +0.000 C 
ENDBRANCH  10  12
BRANCH  10  13
ATOM     13  C   UNL     1       2.536  16.637  18.886  0.00  0.00    +0.000 C 
ATOM     14  C   UNL     1       2.634  17.061  17.421  0.00  0.00    +0.000 C 
ENDBRANCH  10  13
BRANCH  10  15
ATOM     15  C   UNL     1       5.048  16.411  18.492  0.00  0.00    +0.000 C 
ATOM     16  C   UNL     1       6.172  15.387  18.670  0.00  0.00    +0.000 C 
ENDBRANCH  10  15
ENDBRANCH   9  10
ENDBRANCH   3   9
ENDBRANCH   1   6
BRANCH   1  17
ATOM     17  C   UNL     1       1.489   9.106  18.751  0.00  0.00    +0.000 A 
ATOM     18  C   UNL     1       2.265   8.583  17.733  0.00  0.00    +0.000 A 
ATOM     19  C   UNL     1       2.986   7.392  17.973  0.00  0.00    +0.000 A 
ATOM     20  C   UNL     1       2.941   6.765  19.254  0.00  0.00    +0.000 A 
ATOM     21  C   UNL     1       2.124   7.342  20.231  0.00  0.00    +0.000 A 
ATOM     22  C   UNL     1       1.355   8.442  19.957  0.00  0.00    +0.000 A 
BRANCH  20  23
ATOM     23  C   UNL     1       3.560   5.412  19.487  0.00  0.00    +0.000 C 
BRANCH  23  24
ATOM     24  N   UNL     1       3.042   4.154  18.712  0.00  0.00    +0.000 N 
BRANCH  24  25
ATOM     25  C   UNL     1       1.452   4.084  18.804  0.00  0.00    +0.000 C 
ATOM     26  C   UNL     1       0.946   3.796  20.224  0.00  0.00    +0.000 C 
ENDBRANCH  24  25
BRANCH  24  27
ATOM     27  C   UNL     1       3.565   4.153  17.225  0.00  0.00    +0.000 C 
ATOM     28  C   UNL     1       5.049   4.521  16.975  0.00  0.00    +0.000 C 
ENDBRANCH  24  27
BRANCH  24  29
ATOM     29  C   UNL     1       3.605   2.881  19.372  0.00  0.00    +0.000 C 
ATOM     30  C   UNL     1       3.458   1.623  18.536  0.00  0.00    +0.000 C 
ENDBRANCH  24  29
ENDBRANCH  23  24
ENDBRANCH  20  23
ENDBRANCH   1  17
TORSDOF 12
ENDMDL
MODEL 5
REMARK VINA RESULT:      -6.3      1.121      2.282
REMARK  Name = 
REMARK  18 active torsions:
REMARK  status: ('A' for Active; 'I' for Inactive)
REMARK    1  A    between atoms: C_1  and  C_2
REMARK    2  A    between atoms: C_2  and  N_3
REMARK    3  A    between atoms: N_3  and  C_4
REMARK    4  A    between atoms: N_3  and  C_6
REMARK    5  A    between atoms: N_3  and  C_8
REMARK    6  A    between atoms: C_4  and  C_5
REMARK    7  A    between atoms: C_6  and  C_7
REMARK    8  A    between atoms: C_8  and  C_9
REMARK    9  A    between atoms: C_12  and  C_13
REMARK   10  A    between atoms: C_13  and  C_15
REMARK   11  A    between atoms: C_18  and  C_19
REMARK   12  A    between atoms: C_19  and  N_20
REMARK   13  A    between atoms: N_20  and  C_21
REMARK   14  A    between atoms: N_20  and  C_23
REMARK   15  A    between atoms: N_20  and  C_25
REMARK   16  A    between atoms: C_21  and  C_22
REMARK   17  A    between atoms: C_23  and  C_24
REMARK   18  A    between atoms: C_25  and  C_26
REMARK                            x       y       z     vdW  Elec       q    Type
REMARK                         _______ _______ _______ _____ _____    ______ ____
ROOT
ATOM      1  C   UNL     1       0.881  10.750  18.980  0.00  0.00    +0.000 C 
ATOM      2  O   UNL     1       1.570  11.716  19.294  0.00  0.00    +0.000 OA
ENDROOT
BRANCH   1   6
ATOM      3  C   UNL     1       2.318   6.713  18.750  0.00  0.00    +0.000 A 
ATOM      4  C   UNL     1       2.496   7.688  17.730  0.00  0.00    +0.000 A 
ATOM      5  C   UNL     1       2.053   8.985  17.845  0.00  0.00    +0.000 A 
ATOM      6  C   UNL     1       1.429   9.381  18.984  0.00  0.00    +0.000 A 
ATOM      7  C   UNL     1       1.362   8.483  20.083  0.00  0.00    +0.000 A 
ATOM      8  C   UNL     1       1.812   7.168  19.954  0.00  0.00    +0.000 A 
BRANCH   3   9
ATOM      9  C   UNL     1       2.511   5.230  18.493  0.00  0.00    +0.000 C 
BRANCH   9  10
ATOM     10  N   UNL     1       3.519   4.465  19.394  0.00  0.00    +0.000 N 
BRANCH  10  12
ATOM     11  C   UNL     1       2.324   3.003  21.177  0.00  0.00    +0.000 C 
ATOM     12  C   UNL     1       2.934   4.368  20.830  0.00  0.00    +0.000 C 
ENDBRANCH  10  12
BRANCH  10  13
ATOM     13  C   UNL     1       4.901   5.188  19.442  0.00  0.00    +0.000 C 
ATOM     14  C   UNL     1       5.596   5.291  18.085  0.00  0.00    +0.000 C 
ENDBRANCH  10  13
BRANCH  10  15
ATOM     15  C   UNL     1       3.689   3.031  18.813  0.00  0.00    +0.000 C 
ATOM     16  C   UNL     1       2.833   2.717  17.582  0.00  0.00    +0.000 C 
ENDBRANCH  10  15
ENDBRANCH   9  10
ENDBRANCH   3   9
ENDBRANCH   1   6
BRANCH   1  17
ATOM     17  C   UNL     1      -0.546  10.967  18.641  0.00  0.00    +0.000 A 
ATOM     18  C   UNL     1      -1.245  10.140  17.782  0.00  0.00    +0.000 A 
ATOM     19  C   UNL     1      -2.621  10.383  17.574  0.00  0.00    +0.000 A 
ATOM     20  C   UNL     1      -3.282  11.439  18.269  0.00  0.00    +0.000 A 
ATOM     21  C   UNL     1      -2.509  12.245  19.112  0.00  0.00    +0.000 A 
ATOM     22  C   UNL     1      -1.157  12.060  19.231  0.00  0.00    +0.000 A 
BRANCH  20  23
ATOM     23  C   UNL     1      -4.700  11.827  17.944  0.00  0.00    +0.000 C 
BRANCH  23  24
ATOM     24  N   UNL     1      -5.869  11.467  18.921  0.00  0.00    +0.000 N 
BRANCH  24  25
ATOM     25  C   UNL     1      -6.004   9.883  19.039  0.00  0.00    +0.000 C 
ATOM     26  C   UNL     1      -7.308   9.442  19.715  0.00  0.00    +0.000 C 
ENDBRANCH  24  25
BRANCH  24  27
ATOM     27  C   UNL     1      -5.668  12.165  20.321  0.00  0.00    +0.000 C 
ATOM     28  C   UNL     1      -6.903  12.813  20.996  0.00  0.00    +0.000 C 
ENDBRANCH  24  27
BRANCH  24  29
ATOM     29  C   UNL     1      -7.194  12.009  18.353  0.00  0.00    +0.000 C 
ATOM     30  C   UNL     1      -7.032  13.072  17.282  0.00  0.00    +0.000 C 
ENDBRANCH  24  29
ENDBRANCH  23  24
ENDBRANCH  20  23
ENDBRANCH   1  17
TORSDOF 12
ENDMDL
MODEL 6
REMARK VINA RESULT:      -6.3      4.411      9.941
REMARK  Name = 
REMARK  18 active torsions:
REMARK  status: ('A' for Active; 'I' for Inactive)
REMARK    1  A    between atoms: C_1  and  C_2
REMARK    2  A    between atoms: C_2  and  N_3
REMARK    3  A    between atoms: N_3  and  C_4
REMARK    4  A    between atoms: N_3  and  C_6
REMARK    5  A    between atoms: N_3  and  C_8
REMARK    6  A    between atoms: C_4  and  C_5
REMARK    7  A    between atoms: C_6  and  C_7
REMARK    8  A    between atoms: C_8  and  C_9
REMARK    9  A    between atoms: C_12  and  C_13
REMARK   10  A    between atoms: C_13  and  C_15
REMARK   11  A    between atoms: C_18  and  C_19
REMARK   12  A    between atoms: C_19  and  N_20
REMARK   13  A    between atoms: N_20  and  C_21
REMARK   14  A    between atoms: N_20  and  C_23
REMARK   15  A    between atoms: N_20  and  C_25
REMARK   16  A    between atoms: C_21  and  C_22
REMARK   17  A    between atoms: C_23  and  C_24
REMARK   18  A    between atoms: C_25  and  C_26
REMARK                            x       y       z     vdW  Elec       q    Type
REMARK                         _______ _______ _______ _____ _____    ______ ____
ROOT
ATOM      1  C   UNL     1       0.683  10.299  18.621  0.00  0.00    +0.000 C 
ATOM      2  O   UNL     1      -0.472  10.265  18.207  0.00  0.00    +0.000 OA
ENDROOT
BRANCH   1   6
ATOM      3  C   UNL     1       2.774  13.860  19.787  0.00  0.00    +0.000 A 
ATOM      4  C   UNL     1       2.828  13.287  18.487  0.00  0.00    +0.000 A 
ATOM      5  C   UNL     1       2.121  12.161  18.132  0.00  0.00    +0.000 A 
ATOM      6  C   UNL     1       1.312  11.564  19.044  0.00  0.00    +0.000 A 
ATOM      7  C   UNL     1       1.114  12.187  20.305  0.00  0.00    +0.000 A 
ATOM      8  C   UNL     1       1.840  13.326  20.656  0.00  0.00    +0.000 A 
BRANCH   3   9
ATOM      9  C   UNL     1       3.786  14.886  20.261  0.00  0.00    +0.000 C 
BRANCH   9  10
ATOM     10  N   UNL     1       3.666  16.331  19.704  0.00  0.00    +0.000 N 
BRANCH  10  12
ATOM     11  C   UNL     1       5.823  15.567  18.474  0.00  0.00    +0.000 C 
ATOM     12  C   UNL     1       4.577  16.463  18.452  0.00  0.00    +0.000 C 
ENDBRANCH  10  12
BRANCH  10  13
ATOM     13  C   UNL     1       4.091  17.389  20.770  0.00  0.00    +0.000 C 
ATOM     14  C   UNL     1       4.476  16.788  22.122  0.00  0.00    +0.000 C 
ENDBRANCH  10  13
BRANCH  10  15
ATOM     15  C   UNL     1       2.185  16.563  19.285  0.00  0.00    +0.000 C 
ATOM     16  C   UNL     1       1.986  17.198  17.906  0.00  0.00    +0.000 C 
ENDBRANCH  10  15
ENDBRANCH   9  10
ENDBRANCH   3   9
ENDBRANCH   1   6
BRANCH   1  17
ATOM     17  C   UNL     1       1.438   9.028  18.745  0.00  0.00    +0.000 A 
ATOM     18  C   UNL     1       2.222   8.522  17.725  0.00  0.00    +0.000 A 
ATOM     19  C   UNL     1       2.961   7.341  17.959  0.00  0.00    +0.000 A 
ATOM     20  C   UNL     1       2.926   6.707  19.237  0.00  0.00    +0.000 A 
ATOM     21  C   UNL     1       2.099   7.266  20.216  0.00  0.00    +0.000 A 
ATOM     22  C   UNL     1       1.313   8.356  19.947  0.00  0.00    +0.000 A 
BRANCH  20  23
ATOM     23  C   UNL     1       3.565   5.363  19.464  0.00  0.00    +0.000 C 
BRANCH  23  24
ATOM     24  N   UNL     1       3.067   4.102  18.681  0.00  0.00    +0.000 N 
BRANCH  24  25
ATOM     25  C   UNL     1       1.476   4.023  18.743  0.00  0.00    +0.000 C 
ATOM     26  C   UNL     1       0.945   3.732  20.152  0.00  0.00    +0.000 C 
ENDBRANCH  24  25
BRANCH  24  27
ATOM     27  C   UNL     1       3.619   4.101  17.204  0.00  0.00    +0.000 C 
ATOM     28  C   UNL     1       5.111   4.456  16.983  0.00  0.00    +0.000 C 
ENDBRANCH  24  27
BRANCH  24  29
ATOM     29  C   UNL     1       3.624   2.832  19.353  0.00  0.00    +0.000 C 
ATOM     30  C   UNL     1       3.495   1.571  18.519  0.00  0.00    +0.000 C 
ENDBRANCH  24  29
ENDBRANCH  23  24
ENDBRANCH  20  23
ENDBRANCH   1  17
TORSDOF 12
ENDMDL
MODEL 7
REMARK VINA RESULT:      -6.2      3.883      5.883
REMARK  Name = 
REMARK  18 active torsions:
REMARK  status: ('A' for Active; 'I' for Inactive)
REMARK    1  A    between atoms: C_1  and  C_2
REMARK    2  A    between atoms: C_2  and  N_3
REMARK    3  A    between atoms: N_3  and  C_4
REMARK    4  A    between atoms: N_3  and  C_6
REMARK    5  A    between atoms: N_3  and  C_8
REMARK    6  A    between atoms: C_4  and  C_5
REMARK    7  A    between atoms: C_6  and  C_7
REMARK    8  A    between atoms: C_8  and  C_9
REMARK    9  A    between atoms: C_12  and  C_13
REMARK   10  A    between atoms: C_13  and  C_15
REMARK   11  A    between atoms: C_18  and  C_19
REMARK   12  A    between atoms: C_19  and  N_20
REMARK   13  A    between atoms: N_20  and  C_21
REMARK   14  A    between atoms: N_20  and  C_23
REMARK   15  A    between atoms: N_20  and  C_25
REMARK   16  A    between atoms: C_21  and  C_22
REMARK   17  A    between atoms: C_23  and  C_24
REMARK   18  A    between atoms: C_25  and  C_26
REMARK                            x       y       z     vdW  Elec       q    Type
REMARK                         _______ _______ _______ _____ _____    ______ ____
ROOT
ATOM      1  C   UNL     1       0.301  10.172  19.946  0.00  0.00    +0.000 C 
ATOM      2  O   UNL     1      -0.688   9.862  20.603  0.00  0.00    +0.000 OA
ENDROOT
BRANCH   1   6
ATOM      3  C   UNL     1       2.941   7.273  18.202  0.00  0.00    +0.000 A 
ATOM      4  C   UNL     1       2.518   7.260  19.561  0.00  0.00    +0.000 A 
ATOM      5  C   UNL     1       1.645   8.184  20.085  0.00  0.00    +0.000 A 
ATOM      6  C   UNL     1       1.134   9.153  19.282  0.00  0.00    +0.000 A 
ATOM      7  C   UNL     1       1.413   9.114  17.889  0.00  0.00    +0.000 A 
ATOM      8  C   UNL     1       2.304   8.174  17.369  0.00  0.00    +0.000 A 
BRANCH   3   9
ATOM      9  C   UNL     1       4.133   6.467  17.719  0.00  0.00    +0.000 C 
BRANCH   9  10
ATOM     10  N   UNL     1       3.999   4.920  17.697  0.00  0.00    +0.000 N 
BRANCH  10  12
ATOM     11  C   UNL     1       5.367   5.442  15.551  0.00  0.00    +0.000 C 
ATOM     12  C   UNL     1       4.639   4.380  16.388  0.00  0.00    +0.000 C 
ENDBRANCH  10  12
BRANCH  10  13
ATOM     13  C   UNL     1       2.504   4.477  17.767  0.00  0.00    +0.000 C 
ATOM     14  C   UNL     1       2.302   2.963  17.722  0.00  0.00    +0.000 C 
ENDBRANCH  10  13
BRANCH  10  15
ATOM     15  C   UNL     1       4.779   4.354  18.919  0.00  0.00    +0.000 C 
ATOM     16  C   UNL     1       5.991   5.178  19.362  0.00  0.00    +0.000 C 
ENDBRANCH  10  15
ENDBRANCH   9  10
ENDBRANCH   3   9
ENDBRANCH   1   6
BRANCH   1  17
ATOM     17  C   UNL     1       0.628  11.609  19.778  0.00  0.00    +0.000 A 
ATOM     18  C   UNL     1       1.583  12.253  20.543  0.00  0.00    +0.000 A 
ATOM     19  C   UNL     1       1.878  13.606  20.264  0.00  0.00    +0.000 A 
ATOM     20  C   UNL     1       1.227  14.281  19.189  0.00  0.00    +0.000 A 
ATOM     21  C   UNL     1       0.261  13.572  18.467  0.00  0.00    +0.000 A 
ATOM     22  C   UNL     1      -0.085  12.291  18.809  0.00  0.00    +0.000 A 
BRANCH  20  23
ATOM     23  C   UNL     1       1.395  15.762  18.975  0.00  0.00    +0.000 C 
BRANCH  23  24
ATOM     24  N   UNL     1       2.711  16.332  18.348  0.00  0.00    +0.000 N 
BRANCH  24  25
ATOM     25  C   UNL     1       3.640  16.929  19.498  0.00  0.00    +0.000 C 
ATOM     26  C   UNL     1       2.856  17.329  20.754  0.00  0.00    +0.000 C 
ENDBRANCH  24  25
BRANCH  24  27
ATOM     27  C   UNL     1       3.443  15.237  17.482  0.00  0.00    +0.000 C 
ATOM     28  C   UNL     1       4.841  14.756  17.947  0.00  0.00    +0.000 C 
ENDBRANCH  24  27
BRANCH  24  29
ATOM     29  C   UNL     1       2.360  17.483  17.386  0.00  0.00    +0.000 C 
ATOM     30  C   UNL     1       0.924  17.964  17.478  0.00  0.00    +0.000 C 
ENDBRANCH  24  29
ENDBRANCH  23  24
ENDBRANCH  20  23
ENDBRANCH   1  17
TORSDOF 12
ENDMDL
MODEL 8
REMARK VINA RESULT:      -6.2      1.117      2.137
REMARK  Name = 
REMARK  18 active torsions:
REMARK  status: ('A' for Active; 'I' for Inactive)
REMARK    1  A    between atoms: C_1  and  C_2
REMARK    2  A    between atoms: C_2  and  N_3
REMARK    3  A    between atoms: N_3  and  C_4
REMARK    4  A    between atoms: N_3  and  C_6
REMARK    5  A    between atoms: N_3  and  C_8
REMARK    6  A    between atoms: C_4  and  C_5
REMARK    7  A    between atoms: C_6  and  C_7
REMARK    8  A    between atoms: C_8  and  C_9
REMARK    9  A    between atoms: C_12  and  C_13
REMARK   10  A    between atoms: C_13  and  C_15
REMARK   11  A    between atoms: C_18  and  C_19
REMARK   12  A    between atoms: C_19  and  N_20
REMARK   13  A    between atoms: N_20  and  C_21
REMARK   14  A    between atoms: N_20  and  C_23
REMARK   15  A    between atoms: N_20  and  C_25
REMARK   16  A    between atoms: C_21  and  C_22
REMARK   17  A    between atoms: C_23  and  C_24
REMARK   18  A    between atoms: C_25  and  C_26
REMARK                            x       y       z     vdW  Elec       q    Type
REMARK                         _______ _______ _______ _____ _____    ______ ____
ROOT
ATOM      1  C   UNL     1       0.842  10.485  19.985  0.00  0.00    +0.000 C 
ATOM      2  O   UNL     1       1.428  11.277  20.716  0.00  0.00    +0.000 OA
ENDROOT
BRANCH   1   6
ATOM      3  C   UNL     1       2.601   6.612  19.426  0.00  0.00    +0.000 A 
ATOM      4  C   UNL     1       1.919   7.022  20.605  0.00  0.00    +0.000 A 
ATOM      5  C   UNL     1       1.336   8.260  20.744  0.00  0.00    +0.000 A 
ATOM      6  C   UNL     1       1.385   9.142  19.713  0.00  0.00    +0.000 A 
ATOM      7  C   UNL     1       1.924   8.721  18.468  0.00  0.00    +0.000 A 
ATOM      8  C   UNL     1       2.516   7.463  18.340  0.00  0.00    +0.000 A 
BRANCH   3   9
ATOM      9  C   UNL     1       3.507   5.395  19.398  0.00  0.00    +0.000 C 
BRANCH   9  10
ATOM     10  N   UNL     1       2.837   3.996  19.316  0.00  0.00    +0.000 N 
BRANCH  10  12
ATOM     11  C   UNL     1       3.477   1.588  18.580  0.00  0.00    +0.000 C 
ATOM     12  C   UNL     1       3.671   3.096  18.363  0.00  0.00    +0.000 C 
ENDBRANCH  10  12
BRANCH  10  13
ATOM     13  C   UNL     1       1.372   4.097  18.787  0.00  0.00    +0.000 C 
ATOM     14  C   UNL     1       1.265   4.163  17.264  0.00  0.00    +0.000 C 
ENDBRANCH  10  13
BRANCH  10  15
ATOM     15  C   UNL     1       2.846   3.375  20.743  0.00  0.00    +0.000 C 
ATOM     16  C   UNL     1       1.466   3.077  21.336  0.00  0.00    +0.000 C 
ENDBRANCH  10  15
ENDBRANCH   9  10
ENDBRANCH   3   9
ENDBRANCH   1   6
BRANCH   1  17
ATOM     17  C   UNL     1      -0.467  10.877  19.408  0.00  0.00    +0.000 A 
ATOM     18  C   UNL     1      -0.861  12.197  19.276  0.00  0.00    +0.000 A 
ATOM     19  C   UNL     1      -2.096  12.477  18.648  0.00  0.00    +0.000 A 
ATOM     20  C   UNL     1      -2.899  11.419  18.129  0.00  0.00    +0.000 A 
ATOM     21  C   UNL     1      -2.446  10.109  18.311  0.00  0.00    +0.000 A 
ATOM     22  C   UNL     1      -1.295   9.844  19.006  0.00  0.00    +0.000 A 
BRANCH  20  23
ATOM     23  C   UNL     1      -4.290  11.673  17.609  0.00  0.00    +0.000 C 
BRANCH  23  24
ATOM     24  N   UNL     1      -5.482  11.896  18.600  0.00  0.00    +0.000 N 
BRANCH  24  25
ATOM     25  C   UNL     1      -4.923  12.083  20.081  0.00  0.00    +0.000 C 
ATOM     26  C   UNL     1      -5.035  13.528  20.585  0.00  0.00    +0.000 C 
ENDBRANCH  24  25
BRANCH  24  27
ATOM     27  C   UNL     1      -6.385  13.102  18.133  0.00  0.00    +0.000 C 
ATOM     28  C   UNL     1      -6.634  13.280  16.614  0.00  0.00    +0.000 C 
ENDBRANCH  24  27
BRANCH  24  29
ATOM     29  C   UNL     1      -6.387  10.649  18.597  0.00  0.00    +0.000 C 
ATOM     30  C   UNL     1      -7.152  10.424  19.888  0.00  0.00    +0.000 C 
ENDBRANCH  24  29
ENDBRANCH  23  24
ENDBRANCH  20  23
ENDBRANCH   1  17
TORSDOF 12
ENDMDL
MODEL 9
REMARK VINA RESULT:      -6.2      0.833      2.225
REMARK  Name = 
REMARK  18 active torsions:
REMARK  status: ('A' for Active; 'I' for Inactive)
REMARK    1  A    between atoms: C_1  and  C_2
REMARK    2  A    between atoms: C_2  and  N_3
REMARK    3  A    between atoms: N_3  and  C_4
REMARK    4  A    between atoms: N_3  and  C_6
REMARK    5  A    between atoms: N_3  and  C_8
REMARK    6  A    between atoms: C_4  and  C_5
REMARK    7  A    between atoms: C_6  and  C_7
REMARK    8  A    between atoms: C_8  and  C_9
REMARK    9  A    between atoms: C_12  and  C_13
REMARK   10  A    between atoms: C_13  and  C_15
REMARK   11  A    between atoms: C_18  and  C_19
REMARK   12  A    between atoms: C_19  and  N_20
REMARK   13  A    between atoms: N_20  and  C_21
REMARK   14  A    between atoms: N_20  and  C_23
REMARK   15  A    between atoms: N_20  and  C_25
REMARK   16  A    between atoms: C_21  and  C_22
REMARK   17  A    between atoms: C_23  and  C_24
REMARK   18  A    between atoms: C_25  and  C_26
REMARK                            x       y       z     vdW  Elec       q    Type
REMARK                         _______ _______ _______ _____ _____    ______ ____
ROOT
ATOM      1  C   UNL     1       0.594  10.621  19.549  0.00  0.00    +0.000 C 
ATOM      2  O   UNL     1       1.187  11.556  20.078  0.00  0.00    +0.000 OA
ENDROOT
BRANCH   1   6
ATOM      3  C   UNL     1       2.487   6.771  19.561  0.00  0.00    +0.000 A 
ATOM      4  C   UNL     1       1.663   7.264  20.611  0.00  0.00    +0.000 A 
ATOM      5  C   UNL     1       1.042   8.490  20.565  0.00  0.00    +0.000 A 
ATOM      6  C   UNL     1       1.193   9.277  19.469  0.00  0.00    +0.000 A 
ATOM      7  C   UNL     1       1.885   8.762  18.339  0.00  0.00    +0.000 A 
ATOM      8  C   UNL     1       2.514   7.518  18.398  0.00  0.00    +0.000 A 
BRANCH   3   9
ATOM      9  C   UNL     1       3.416   5.586  19.752  0.00  0.00    +0.000 C 
BRANCH   9  10
ATOM     10  N   UNL     1       3.866   4.808  18.485  0.00  0.00    +0.000 N 
BRANCH  10  12
ATOM     11  C   UNL     1       3.796   2.912  20.259  0.00  0.00    +0.000 C 
ATOM     12  C   UNL     1       4.347   3.393  18.909  0.00  0.00    +0.000 C 
ENDBRANCH  10  12
BRANCH  10  13
ATOM     13  C   UNL     1       5.022   5.550  17.743  0.00  0.00    +0.000 C 
ATOM     14  C   UNL     1       5.019   5.347  16.229  0.00  0.00    +0.000 C 
ENDBRANCH  10  13
BRANCH  10  15
ATOM     15  C   UNL     1       2.634   4.669  17.544  0.00  0.00    +0.000 C 
ATOM     16  C   UNL     1       1.462   3.867  18.116  0.00  0.00    +0.000 C 
ENDBRANCH  10  15
ENDBRANCH   9  10
ENDBRANCH   3   9
ENDBRANCH   1   6
BRANCH   1  17
ATOM     17  C   UNL     1      -0.777  10.845  19.030  0.00  0.00    +0.000 A 
ATOM     18  C   UNL     1      -1.386   9.988  18.131  0.00  0.00    +0.000 A 
ATOM     19  C   UNL     1      -2.721  10.243  17.746  0.00  0.00    +0.000 A 
ATOM     20  C   UNL     1      -3.437  11.343  18.307  0.00  0.00    +0.000 A 
ATOM     21  C   UNL     1      -2.754  12.176  19.199  0.00  0.00    +0.000 A 
ATOM     22  C   UNL     1      -1.430  11.974  19.490  0.00  0.00    +0.000 A 
BRANCH  20  23
ATOM     23  C   UNL     1      -4.796  11.738  17.793  0.00  0.00    +0.000 C 
BRANCH  23  24
ATOM     24  N   UNL     1      -6.061  11.607  18.707  0.00  0.00    +0.000 N 
BRANCH  24  25
ATOM     25  C   UNL     1      -6.560  10.093  18.722  0.00  0.00    +0.000 C 
ATOM     26  C   UNL     1      -7.206   9.689  20.053  0.00  0.00    +0.000 C 
ENDBRANCH  24  25
BRANCH  24  27
ATOM     27  C   UNL     1      -5.773  12.167  20.152  0.00  0.00    +0.000 C 
ATOM     28  C   UNL     1      -6.796  13.154  20.768  0.00  0.00    +0.000 C 
ENDBRANCH  24  27
BRANCH  24  29
ATOM     29  C   UNL     1      -7.200  12.468  18.127  0.00  0.00    +0.000 C 
ATOM     30  C   UNL     1      -6.757  13.477  17.084  0.00  0.00    +0.000 C 
ENDBRANCH  24  29
ENDBRANCH  23  24
ENDBRANCH  20  23
ENDBRANCH   1  17
TORSDOF 12
ENDMDL
