MODEL 1
REMARK VINA RESULT:      -8.7      0.000      0.000
REMARK  Name = 
REMARK  7 active torsions:
REMARK  status: ('A' for Active; 'I' for Inactive)
REMARK    1  A    between atoms: C_1  and  C_2
REMARK    2  A    between atoms: C_5  and  C_6
REMARK    3  A    between atoms: N_8  and  C_9
REMARK    4  A    between atoms: C_12  and  C_13
REMARK    5  A    between atoms: C_13  and  C_14
REMARK    6  A    between atoms: C_14  and  N_15
REMARK    7  A    between atoms: C_18  and  C_19
REMARK                            x       y       z     vdW  Elec       q    Type
REMARK                         _______ _______ _______ _____ _____    ______ ____
ROOT
ATOM      1  C   UNL     1       1.071   9.699  19.146  0.00  0.00    +0.000 C 
ATOM      2  C   UNL     1       2.095   8.814  18.415  0.00  0.00    +0.000 C 
ATOM      3  C   UNL     1       2.046   7.340  18.812  0.00  0.00    +0.000 C 
ATOM      4  C   UNL     1       2.131   7.187  20.335  0.00  0.00    +0.000 C 
ATOM      5  C   UNL     1       0.900   7.868  20.950  0.00  0.00    +0.000 C 
ATOM      6  C   UNL     1       0.850   9.356  20.629  0.00  0.00    +0.000 C 
ENDROOT
BRANCH   1   9
ATOM      7  C   UNL     1       0.373  12.086  18.819  0.00  0.00    +0.000 C 
ATOM      8  O   UNL     1      -0.824  11.810  18.798  0.00  0.00    +0.000 OA
ATOM      9  N   UNL     1       1.365  11.129  18.969  0.00  0.00    +0.000 N 
ATOM     10  H   UNL     1       2.335  11.397  18.976  0.00  0.00    +0.000 HD
BRANCH   7  15
ATOM     11  C   UNL     1       1.494  17.724  18.481  0.00  0.00    +0.000 C 
ATOM     12  C   UNL     1       1.272  16.244  18.551  0.00  0.00    +0.000 A 
ATOM     13  C   UNL     1       2.326  15.349  18.413  0.00  0.00    +0.000 A 
ATOM     14  C   UNL     1       2.078  13.969  18.484  0.00  0.00    +0.000 A 
ATOM     15  C   UNL     1       0.776  13.516  18.681  0.00  0.00    +0.000 A 
ATOM     16  C   UNL     1      -0.221  14.484  18.781  0.00  0.00    +0.000 A 
ATOM     17  N   UNL     1      -0.005  15.826  18.716  0.00  0.00    +0.000 NA
ENDBRANCH   7  15
ENDBRANCH   1   9
BRANCH   4  18
ATOM     18  C   UNL     1       2.178   5.723  20.807  0.00  0.00    +0.000 C 
BRANCH  18  19
ATOM     19  C   UNL     1       1.207   4.783  20.076  0.00  0.00    +0.000 C 
BRANCH  19  20
ATOM     20  N   UNL     1       1.903   3.674  19.382  0.00  0.00    +0.000 NA
ATOM     21  C   UNL     1       1.841   3.848  17.921  0.00  0.00    +0.000 C 
ATOM     22  C   UNL     1       2.704   2.851  17.146  0.00  0.00    +0.000 C 
ATOM     23  C   UNL     1       4.170   2.898  17.607  0.00  0.00    +0.000 C 
ATOM     24  C   UNL     1       4.141   2.581  19.106  0.00  0.00    +0.000 C 
ATOM     25  C   UNL     1       3.284   3.581  19.885  0.00  0.00    +0.000 C 
BRANCH  23  26
ATOM     26  C   UNL     1       4.885   4.177  17.198  0.00  0.00    +0.000 A 
ATOM     27  C   UNL     1       4.666   4.859  16.007  0.00  0.00    +0.000 A 
ATOM     28  O   UNL     1       5.450   5.952  15.896  0.00  0.00    +0.000 OA
ATOM     29  C   UNL     1       6.224   5.997  17.007  0.00  0.00    +0.000 A 
ATOM     30  C   UNL     1       7.186   6.973  17.260  0.00  0.00    +0.000 A 
ATOM     31  C   UNL     1       7.900   6.859  18.453  0.00  0.00    +0.000 A 
ATOM     32  C   UNL     1       7.646   5.811  19.336  0.00  0.00    +0.000 A 
ATOM     33  C   UNL     1       6.672   4.841  19.049  0.00  0.00    +0.000 A 
ATOM     34  C   UNL     1       5.930   4.928  17.852  0.00  0.00    +0.000 A 
ENDBRANCH  23  26
ENDBRANCH  19  20
ENDBRANCH  18  19
ENDBRANCH   4  18
TORSDOF 6
ENDMDL
MODEL 2
REMARK VINA RESULT:      -8.3      2.869      3.300
REMARK  Name = 
REMARK  7 active torsions:
REMARK  status: ('A' for Active; 'I' for Inactive)
REMARK    1  A    between atoms: C_1  and  C_2
REMARK    2  A    between atoms: C_5  and  C_6
REMARK    3  A    between atoms: N_8  and  C_9
REMARK    4  A    between atoms: C_12  and  C_13
REMARK    5  A    between atoms: C_13  and  C_14
REMARK    6  A    between atoms: C_14  and  N_15
REMARK    7  A    between atoms: C_18  and  C_19
REMARK                            x       y       z     vdW  Elec       q    Type
REMARK                         _______ _______ _______ _____ _____    ______ ____
ROOT
ATOM      1  C   UNL     1      -0.534  10.326  21.160  0.00  0.00    +0.000 C 
ATOM      2  C   UNL     1       0.553  10.600  20.105  0.00  0.00    +0.000 C 
ATOM      3  C   UNL     1       1.107   9.343  19.437  0.00  0.00    +0.000 C 
ATOM      4  C   UNL     1       1.565   8.328  20.490  0.00  0.00    +0.000 C 
ATOM      5  C   UNL     1       0.336   7.906  21.309  0.00  0.00    +0.000 C 
ATOM      6  C   UNL     1      -0.298   9.085  22.036  0.00  0.00    +0.000 C 
ENDROOT
BRANCH   1   9
ATOM      7  C   UNL     1      -1.817  12.416  21.692  0.00  0.00    +0.000 C 
ATOM      8  O   UNL     1      -2.551  12.301  20.712  0.00  0.00    +0.000 OA
ATOM      9  N   UNL     1      -0.803  11.515  21.982  0.00  0.00    +0.000 N 
ATOM     10  H   UNL     1      -0.221  11.647  22.792  0.00  0.00    +0.000 HD
BRANCH   7  15
ATOM     11  C   UNL     1      -2.162  16.845  25.355  0.00  0.00    +0.000 C 
ATOM     12  C   UNL     1      -2.140  15.708  24.378  0.00  0.00    +0.000 A 
ATOM     13  C   UNL     1      -3.174  15.518  23.470  0.00  0.00    +0.000 A 
ATOM     14  C   UNL     1      -3.117  14.441  22.570  0.00  0.00    +0.000 A 
ATOM     15  C   UNL     1      -2.030  13.572  22.610  0.00  0.00    +0.000 A 
ATOM     16  C   UNL     1      -1.053  13.824  23.572  0.00  0.00    +0.000 A 
ATOM     17  N   UNL     1      -1.087  14.861  24.453  0.00  0.00    +0.000 NA
ENDBRANCH   7  15
ENDBRANCH   1   9
BRANCH   4  18
ATOM     18  C   UNL     1       2.220   7.070  19.892  0.00  0.00    +0.000 C 
BRANCH  18  19
ATOM     19  C   UNL     1       1.675   5.742  20.438  0.00  0.00    +0.000 C 
BRANCH  19  20
ATOM     20  N   UNL     1       2.096   4.577  19.625  0.00  0.00    +0.000 NA
ATOM     21  C   UNL     1       1.945   4.858  18.187  0.00  0.00    +0.000 C 
ATOM     22  C   UNL     1       2.544   3.779  17.285  0.00  0.00    +0.000 C 
ATOM     23  C   UNL     1       4.027   3.535  17.606  0.00  0.00    +0.000 C 
ATOM     24  C   UNL     1       4.067   3.128  19.082  0.00  0.00    +0.000 C 
ATOM     25  C   UNL     1       3.475   4.209  19.990  0.00  0.00    +0.000 C 
BRANCH  23  26
ATOM     26  C   UNL     1       4.925   4.693  17.197  0.00  0.00    +0.000 A 
ATOM     27  C   UNL     1       4.861   5.350  15.975  0.00  0.00    +0.000 A 
ATOM     28  O   UNL     1       5.789   6.326  15.873  0.00  0.00    +0.000 OA
ATOM     29  C   UNL     1       6.503   6.312  17.024  0.00  0.00    +0.000 A 
ATOM     30  C   UNL     1       7.571   7.164  17.300  0.00  0.00    +0.000 A 
ATOM     31  C   UNL     1       8.201   7.005  18.535  0.00  0.00    +0.000 A 
ATOM     32  C   UNL     1       7.764   6.035  19.435  0.00  0.00    +0.000 A 
ATOM     33  C   UNL     1       6.686   5.190  19.125  0.00  0.00    +0.000 A 
ATOM     34  C   UNL     1       6.026   5.325  17.885  0.00  0.00    +0.000 A 
ENDBRANCH  23  26
ENDBRANCH  19  20
ENDBRANCH  18  19
ENDBRANCH   4  18
TORSDOF 6
ENDMDL
MODEL 3
REMARK VINA RESULT:      -8.2      0.982      1.222
REMARK  Name = 
REMARK  7 active torsions:
REMARK  status: ('A' for Active; 'I' for Inactive)
REMARK    1  A    between atoms: C_1  and  C_2
REMARK    2  A    between atoms: C_5  and  C_6
REMARK    3  A    between atoms: N_8  and  C_9
REMARK    4  A    between atoms: C_12  and  C_13
REMARK    5  A    between atoms: C_13  and  C_14
REMARK    6  A    between atoms: C_14  and  N_15
REMARK    7  A    between atoms: C_18  and  C_19
REMARK                            x       y       z     vdW  Elec       q    Type
REMARK                         _______ _______ _______ _____ _____    ______ ____
ROOT
ATOM      1  C   UNL     1       0.297  10.254  18.770  0.00  0.00    +0.000 C 
ATOM      2  C   UNL     1       1.520   9.697  18.019  0.00  0.00    +0.000 C 
ATOM      3  C   UNL     1       1.867   8.253  18.374  0.00  0.00    +0.000 C 
ATOM      4  C   UNL     1       1.994   8.085  19.893  0.00  0.00    +0.000 C 
ATOM      5  C   UNL     1       0.627   8.393  20.520  0.00  0.00    +0.000 C 
ATOM      6  C   UNL     1       0.180   9.823  20.241  0.00  0.00    +0.000 C 
ENDROOT
BRANCH   1   9
ATOM      7  C   UNL     1       1.165  12.582  19.122  0.00  0.00    +0.000 C 
ATOM      8  O   UNL     1       2.165  12.196  19.724  0.00  0.00    +0.000 OA
ATOM      9  N   UNL     1       0.198  11.715  18.635  0.00  0.00    +0.000 N 
ATOM     10  H   UNL     1      -0.608  12.072  18.150  0.00  0.00    +0.000 HD
BRANCH   7  15
ATOM     11  C   UNL     1       0.955  18.254  18.152  0.00  0.00    +0.000 C 
ATOM     12  C   UNL     1       0.937  16.777  18.410  0.00  0.00    +0.000 A 
ATOM     13  C   UNL     1      -0.259  16.076  18.498  0.00  0.00    +0.000 A 
ATOM     14  C   UNL     1      -0.236  14.693  18.741  0.00  0.00    +0.000 A 
ATOM     15  C   UNL     1       0.987  14.047  18.902  0.00  0.00    +0.000 A 
ATOM     16  C   UNL     1       2.134  14.834  18.824  0.00  0.00    +0.000 A 
ATOM     17  N   UNL     1       2.135  16.175  18.589  0.00  0.00    +0.000 NA
ENDBRANCH   7  15
ENDBRANCH   1   9
BRANCH   4  18
ATOM     18  C   UNL     1       2.432   6.673  20.323  0.00  0.00    +0.000 C 
BRANCH  18  19
ATOM     19  C   UNL     1       1.399   5.570  20.048  0.00  0.00    +0.000 C 
BRANCH  19  20
ATOM     20  N   UNL     1       1.987   4.400  19.355  0.00  0.00    +0.000 NA
ATOM     21  C   UNL     1       1.941   4.578  17.894  0.00  0.00    +0.000 C 
ATOM     22  C   UNL     1       2.706   3.504  17.120  0.00  0.00    +0.000 C 
ATOM     23  C   UNL     1       4.171   3.414  17.579  0.00  0.00    +0.000 C 
ATOM     24  C   UNL     1       4.113   3.103  19.078  0.00  0.00    +0.000 C 
ATOM     25  C   UNL     1       3.355   4.180  19.857  0.00  0.00    +0.000 C 
BRANCH  23  26
ATOM     26  C   UNL     1       5.001   4.621  17.168  0.00  0.00    +0.000 A 
ATOM     27  C   UNL     1       4.882   5.286  15.955  0.00  0.00    +0.000 A 
ATOM     28  O   UNL     1       5.756   6.309  15.847  0.00  0.00    +0.000 OA
ATOM     29  C   UNL     1       6.491   6.320  16.986  0.00  0.00    +0.000 A 
ATOM     30  C   UNL     1       7.520   7.222  17.252  0.00  0.00    +0.000 A 
ATOM     31  C   UNL     1       8.179   7.082  18.474  0.00  0.00    +0.000 A 
ATOM     32  C   UNL     1       7.809   6.081  19.370  0.00  0.00    +0.000 A 
ATOM     33  C   UNL     1       6.769   5.186  19.070  0.00  0.00    +0.000 A 
ATOM     34  C   UNL     1       6.081   5.301  17.843  0.00  0.00    +0.000 A 
ENDBRANCH  23  26
ENDBRANCH  19  20
ENDBRANCH  18  19
ENDBRANCH   4  18
TORSDOF 6
ENDMDL
MODEL 4
REMARK VINA RESULT:      -8.2      3.152      3.831
REMARK  Name = 
REMARK  7 active torsions:
REMARK  status: ('A' for Active; 'I' for Inactive)
REMARK    1  A    between atoms: C_1  and  C_2
REMARK    2  A    between atoms: C_5  and  C_6
REMARK    3  A    between atoms: N_8  and  C_9
REMARK    4  A    between atoms: C_12  and  C_13
REMARK    5  A    between atoms: C_13  and  C_14
REMARK    6  A    between atoms: C_14  and  N_15
REMARK    7  A    between atoms: C_18  and  C_19
REMARK                            x       y       z     vdW  Elec       q    Type
REMARK                         _______ _______ _______ _____ _____    ______ ____
ROOT
ATOM      1  C   UNL     1      -0.012  10.727  21.654  0.00  0.00    +0.000 C 
ATOM      2  C   UNL     1       0.372   9.592  22.620  0.00  0.00    +0.000 C 
ATOM      3  C   UNL     1       1.428   8.634  22.071  0.00  0.00    +0.000 C 
ATOM      4  C   UNL     1       1.014   8.106  20.692  0.00  0.00    +0.000 C 
ATOM      5  C   UNL     1       0.937   9.302  19.730  0.00  0.00    +0.000 C 
ATOM      6  C   UNL     1      -0.102  10.325  20.173  0.00  0.00    +0.000 C 
ENDROOT
BRANCH   1   9
ATOM      7  C   UNL     1      -1.293  12.793  22.274  0.00  0.00    +0.000 C 
ATOM      8  O   UNL     1      -0.324  13.531  22.108  0.00  0.00    +0.000 OA
ATOM      9  N   UNL     1      -1.234  11.420  22.092  0.00  0.00    +0.000 N 
ATOM     10  H   UNL     1      -2.049  10.850  22.242  0.00  0.00    +0.000 HD
BRANCH   7  15
ATOM     11  C   UNL     1      -6.324  15.351  23.416  0.00  0.00    +0.000 C 
ATOM     12  C   UNL     1      -5.021  14.648  23.181  0.00  0.00    +0.000 A 
ATOM     13  C   UNL     1      -4.589  13.631  24.024  0.00  0.00    +0.000 A 
ATOM     14  C   UNL     1      -3.362  12.996  23.771  0.00  0.00    +0.000 A 
ATOM     15  C   UNL     1      -2.591  13.404  22.686  0.00  0.00    +0.000 A 
ATOM     16  C   UNL     1      -3.090  14.449  21.912  0.00  0.00    +0.000 A 
ATOM     17  N   UNL     1      -4.275  15.078  22.137  0.00  0.00    +0.000 NA
ENDBRANCH   7  15
ENDBRANCH   1   9
BRANCH   4  18
ATOM     18  C   UNL     1       1.987   7.063  20.113  0.00  0.00    +0.000 C 
BRANCH  18  19
ATOM     19  C   UNL     1       1.780   5.634  20.637  0.00  0.00    +0.000 C 
BRANCH  19  20
ATOM     20  N   UNL     1       2.219   4.604  19.668  0.00  0.00    +0.000 NA
ATOM     21  C   UNL     1       2.006   5.060  18.284  0.00  0.00    +0.000 C 
ATOM     22  C   UNL     1       2.616   4.135  17.231  0.00  0.00    +0.000 C 
ATOM     23  C   UNL     1       4.118   3.918  17.474  0.00  0.00    +0.000 C 
ATOM     24  C   UNL     1       4.227   3.326  18.882  0.00  0.00    +0.000 C 
ATOM     25  C   UNL     1       3.624   4.253  19.940  0.00  0.00    +0.000 C 
BRANCH  23  26
ATOM     26  C   UNL     1       4.954   5.158  17.192  0.00  0.00    +0.000 A 
ATOM     27  C   UNL     1       4.780   5.997  16.099  0.00  0.00    +0.000 A 
ATOM     28  O   UNL     1       5.673   7.010  16.089  0.00  0.00    +0.000 OA
ATOM     29  C   UNL     1       6.474   6.840  17.168  0.00  0.00    +0.000 A 
ATOM     30  C   UNL     1       7.539   7.675  17.499  0.00  0.00    +0.000 A 
ATOM     31  C   UNL     1       8.266   7.346  18.644  0.00  0.00    +0.000 A 
ATOM     32  C   UNL     1       7.924   6.230  19.405  0.00  0.00    +0.000 A 
ATOM     33  C   UNL     1       6.846   5.406  19.042  0.00  0.00    +0.000 A 
ATOM     34  C   UNL     1       6.089   5.713  17.891  0.00  0.00    +0.000 A 
ENDBRANCH  23  26
ENDBRANCH  19  20
ENDBRANCH  18  19
ENDBRANCH   4  18
TORSDOF 6
ENDMDL
MODEL 5
REMARK VINA RESULT:      -8.1      0.951      1.142
REMARK  Name = 
REMARK  7 active torsions:
REMARK  status: ('A' for Active; 'I' for Inactive)
REMARK    1  A    between atoms: C_1  and  C_2
REMARK    2  A    between atoms: C_5  and  C_6
REMARK    3  A    between atoms: N_8  and  C_9
REMARK    4  A    between atoms: C_12  and  C_13
REMARK    5  A    between atoms: C_13  and  C_14
REMARK    6  A    between atoms: C_14  and  N_15
REMARK    7  A    between atoms: C_18  and  C_19
REMARK                            x       y       z     vdW  Elec       q    Type
REMARK                         _______ _______ _______ _____ _____    ______ ____
ROOT
ATOM      1  C   UNL     1       1.103   9.573  18.694  0.00  0.00    +0.000 C 
ATOM      2  C   UNL     1       2.203   8.664  18.119  0.00  0.00    +0.000 C 
ATOM      3  C   UNL     1       2.180   7.235  18.659  0.00  0.00    +0.000 C 
ATOM      4  C   UNL     1       2.172   7.236  20.192  0.00  0.00    +0.000 C 
ATOM      5  C   UNL     1       0.880   7.923  20.659  0.00  0.00    +0.000 C 
ATOM      6  C   UNL     1       0.799   9.369  20.187  0.00  0.00    +0.000 C 
ENDROOT
BRANCH   1   9
ATOM      7  C   UNL     1       1.402  11.970  19.372  0.00  0.00    +0.000 C 
ATOM      8  O   UNL     1       1.208  11.733  20.562  0.00  0.00    +0.000 OA
ATOM      9  N   UNL     1       1.357  10.989  18.391  0.00  0.00    +0.000 N 
ATOM     10  H   UNL     1       1.517  11.226  17.427  0.00  0.00    +0.000 HD
BRANCH   7  15
ATOM     11  C   UNL     1       2.896  17.202  17.489  0.00  0.00    +0.000 C 
ATOM     12  C   UNL     1       2.451  15.870  18.014  0.00  0.00    +0.000 A 
ATOM     13  C   UNL     1       1.269  15.738  18.732  0.00  0.00    +0.000 A 
ATOM     14  C   UNL     1       0.885  14.474  19.208  0.00  0.00    +0.000 A 
ATOM     15  C   UNL     1       1.703  13.373  18.964  0.00  0.00    +0.000 A 
ATOM     16  C   UNL     1       2.882  13.605  18.260  0.00  0.00    +0.000 A 
ATOM     17  N   UNL     1       3.274  14.820  17.788  0.00  0.00    +0.000 NA
ENDBRANCH   7  15
ENDBRANCH   1   9
BRANCH   4  18
ATOM     18  C   UNL     1       2.240   5.829  20.811  0.00  0.00    +0.000 C 
BRANCH  18  19
ATOM     19  C   UNL     1       1.226   4.828  20.238  0.00  0.00    +0.000 C 
BRANCH  19  20
ATOM     20  N   UNL     1       1.878   3.683  19.560  0.00  0.00    +0.000 NA
ATOM     21  C   UNL     1       1.771   3.809  18.096  0.00  0.00    +0.000 C 
ATOM     22  C   UNL     1       2.589   2.771  17.329  0.00  0.00    +0.000 C 
ATOM     23  C   UNL     1       4.070   2.804  17.739  0.00  0.00    +0.000 C 
ATOM     24  C   UNL     1       4.085   2.538  19.248  0.00  0.00    +0.000 C 
ATOM     25  C   UNL     1       3.273   3.580  20.020  0.00  0.00    +0.000 C 
BRANCH  23  26
ATOM     26  C   UNL     1       4.794   4.055  17.264  0.00  0.00    +0.000 A 
ATOM     27  C   UNL     1       4.580   4.674  16.039  0.00  0.00    +0.000 A 
ATOM     28  O   UNL     1       5.373   5.755  15.870  0.00  0.00    +0.000 OA
ATOM     29  C   UNL     1       6.146   5.852  16.978  0.00  0.00    +0.000 A 
ATOM     30  C   UNL     1       7.115   6.834  17.180  0.00  0.00    +0.000 A 
ATOM     31  C   UNL     1       7.827   6.778  18.378  0.00  0.00    +0.000 A 
ATOM     32  C   UNL     1       7.566   5.780  19.315  0.00  0.00    +0.000 A 
ATOM     33  C   UNL     1       6.585   4.803  19.079  0.00  0.00    +0.000 A 
ATOM     34  C   UNL     1       5.844   4.832  17.878  0.00  0.00    +0.000 A 
ENDBRANCH  23  26
ENDBRANCH  19  20
ENDBRANCH  18  19
ENDBRANCH   4  18
TORSDOF 6
ENDMDL
MODEL 6
REMARK VINA RESULT:      -8.0      2.353      2.743
REMARK  Name = 
REMARK  7 active torsions:
REMARK  status: ('A' for Active; 'I' for Inactive)
REMARK    1  A    between atoms: C_1  and  C_2
REMARK    2  A    between atoms: C_5  and  C_6
REMARK    3  A    between atoms: N_8  and  C_9
REMARK    4  A    between atoms: C_12  and  C_13
REMARK    5  A    between atoms: C_13  and  C_14
REMARK    6  A    between atoms: C_14  and  N_15
REMARK    7  A    between atoms: C_18  and  C_19
REMARK                            x       y       z     vdW  Elec       q    Type
REMARK                         _______ _______ _______ _____ _____    ______ ____
ROOT
ATOM      1  C   UNL     1      -0.320  10.158  20.712  0.00  0.00    +0.000 C 
ATOM      2  C   UNL     1       0.776  10.299  19.641  0.00  0.00    +0.000 C 
ATOM      3  C   UNL     1       1.335   8.969  19.138  0.00  0.00    +0.000 C 
ATOM      4  C   UNL     1       1.783   8.093  20.314  0.00  0.00    +0.000 C 
ATOM      5  C   UNL     1       0.547   7.775  21.168  0.00  0.00    +0.000 C 
ATOM      6  C   UNL     1      -0.092   9.036  21.738  0.00  0.00    +0.000 C 
ENDROOT
BRANCH   1   9
ATOM      7  C   UNL     1      -1.668  12.249  21.036  0.00  0.00    +0.000 C 
ATOM      8  O   UNL     1      -2.455  11.968  20.136  0.00  0.00    +0.000 OA
ATOM      9  N   UNL     1      -0.594  11.440  21.378  0.00  0.00    +0.000 N 
ATOM     10  H   UNL     1       0.030  11.709  22.120  0.00  0.00    +0.000 HD
BRANCH   7  15
ATOM     11  C   UNL     1      -2.668  17.325  23.564  0.00  0.00    +0.000 C 
ATOM     12  C   UNL     1      -2.392  15.976  22.971  0.00  0.00    +0.000 A 
ATOM     13  C   UNL     1      -2.136  14.874  23.778  0.00  0.00    +0.000 A 
ATOM     14  C   UNL     1      -1.882  13.626  23.186  0.00  0.00    +0.000 A 
ATOM     15  C   UNL     1      -1.879  13.514  21.798  0.00  0.00    +0.000 A 
ATOM     16  C   UNL     1      -2.119  14.678  21.069  0.00  0.00    +0.000 A 
ATOM     17  N   UNL     1      -2.368  15.896  21.621  0.00  0.00    +0.000 NA
ENDBRANCH   7  15
ENDBRANCH   1   9
BRANCH   4  18
ATOM     18  C   UNL     1       2.442   6.771  19.881  0.00  0.00    +0.000 C 
BRANCH  18  19
ATOM     19  C   UNL     1       1.621   5.512  20.199  0.00  0.00    +0.000 C 
BRANCH  19  20
ATOM     20  N   UNL     1       2.066   4.332  19.421  0.00  0.00    +0.000 NA
ATOM     21  C   UNL     1       1.954   4.585  17.974  0.00  0.00    +0.000 C 
ATOM     22  C   UNL     1       2.578   3.489  17.109  0.00  0.00    +0.000 C 
ATOM     23  C   UNL     1       4.052   3.253  17.476  0.00  0.00    +0.000 C 
ATOM     24  C   UNL     1       4.051   2.874  18.961  0.00  0.00    +0.000 C 
ATOM     25  C   UNL     1       3.434   3.972  19.830  0.00  0.00    +0.000 C 
BRANCH  23  26
ATOM     26  C   UNL     1       4.961   4.404  17.070  0.00  0.00    +0.000 A 
ATOM     27  C   UNL     1       4.981   4.989  15.810  0.00  0.00    +0.000 A 
ATOM     28  O   UNL     1       5.898   5.976  15.722  0.00  0.00    +0.000 OA
ATOM     29  C   UNL     1       6.521   6.042  16.923  0.00  0.00    +0.000 A 
ATOM     30  C   UNL     1       7.552   6.929  17.229  0.00  0.00    +0.000 A 
ATOM     31  C   UNL     1       8.086   6.854  18.516  0.00  0.00    +0.000 A 
ATOM     32  C   UNL     1       7.598   5.928  19.435  0.00  0.00    +0.000 A 
ATOM     33  C   UNL     1       6.560   5.045  19.093  0.00  0.00    +0.000 A 
ATOM     34  C   UNL     1       5.995   5.096  17.801  0.00  0.00    +0.000 A 
ENDBRANCH  23  26
ENDBRANCH  19  20
ENDBRANCH  18  19
ENDBRANCH   4  18
TORSDOF 6
ENDMDL
MODEL 7
REMARK VINA RESULT:      -8.0      3.301      3.871
REMARK  Name = 
REMARK  7 active torsions:
REMARK  status: ('A' for Active; 'I' for Inactive)
REMARK    1  A    between atoms: C_1  and  C_2
REMARK    2  A    between atoms: C_5  and  C_6
REMARK    3  A    between atoms: N_8  and  C_9
REMARK    4  A    between atoms: C_12  and  C_13
REMARK    5  A    between atoms: C_13  and  C_14
REMARK    6  A    between atoms: C_14  and  N_15
REMARK    7  A    between atoms: C_18  and  C_19
REMARK                            x       y       z     vdW  Elec       q    Type
REMARK                         _______ _______ _______ _____ _____    ______ ____
ROOT
ATOM      1  C   UNL     1      -0.421  10.753  21.238  0.00  0.00    +0.000 C 
ATOM      2  C   UNL     1       0.453  10.882  19.978  0.00  0.00    +0.000 C 
ATOM      3  C   UNL     1       0.903   9.546  19.389  0.00  0.00    +0.000 C 
ATOM      4  C   UNL     1       1.563   8.677  20.465  0.00  0.00    +0.000 C 
ATOM      5  C   UNL     1       0.510   8.370  21.540  0.00  0.00    +0.000 C 
ATOM      6  C   UNL     1      -0.006   9.637  22.211  0.00  0.00    +0.000 C 
ENDROOT
BRANCH   1   9
ATOM      7  C   UNL     1      -1.697  12.387  22.651  0.00  0.00    +0.000 C 
ATOM      8  O   UNL     1      -2.681  11.654  22.738  0.00  0.00    +0.000 OA
ATOM      9  N   UNL     1      -0.561  12.041  21.935  0.00  0.00    +0.000 N 
ATOM     10  H   UNL     1       0.221  12.671  21.885  0.00  0.00    +0.000 HD
BRANCH   7  15
ATOM     11  C   UNL     1      -2.174  17.291  25.630  0.00  0.00    +0.000 C 
ATOM     12  C   UNL     1      -1.989  16.041  24.825  0.00  0.00    +0.000 A 
ATOM     13  C   UNL     1      -0.845  15.838  24.061  0.00  0.00    +0.000 A 
ATOM     14  C   UNL     1      -0.708  14.653  23.320  0.00  0.00    +0.000 A 
ATOM     15  C   UNL     1      -1.726  13.704  23.352  0.00  0.00    +0.000 A 
ATOM     16  C   UNL     1      -2.847  14.004  24.122  0.00  0.00    +0.000 A 
ATOM     17  N   UNL     1      -3.002  15.144  24.849  0.00  0.00    +0.000 NA
ENDBRANCH   7  15
ENDBRANCH   1   9
BRANCH   4  18
ATOM     18  C   UNL     1       2.126   7.349  19.926  0.00  0.00    +0.000 C 
BRANCH  18  19
ATOM     19  C   UNL     1       1.703   6.105  20.722  0.00  0.00    +0.000 C 
BRANCH  19  20
ATOM     20  N   UNL     1       1.610   4.892  19.875  0.00  0.00    +0.000 NA
ATOM     21  C   UNL     1       1.834   5.224  18.458  0.00  0.00    +0.000 C 
ATOM     22  C   UNL     1       1.949   3.999  17.551  0.00  0.00    +0.000 C 
ATOM     23  C   UNL     1       3.052   3.042  18.034  0.00  0.00    +0.000 C 
ATOM     24  C   UNL     1       2.664   2.657  19.464  0.00  0.00    +0.000 C 
ATOM     25  C   UNL     1       2.555   3.880  20.377  0.00  0.00    +0.000 C 
BRANCH  23  26
ATOM     26  C   UNL     1       4.454   3.599  17.837  0.00  0.00    +0.000 A 
ATOM     27  C   UNL     1       5.322   3.937  18.868  0.00  0.00    +0.000 A 
ATOM     28  O   UNL     1       6.494   4.424  18.407  0.00  0.00    +0.000 OA
ATOM     29  C   UNL     1       6.408   4.441  17.054  0.00  0.00    +0.000 A 
ATOM     30  C   UNL     1       7.415   4.898  16.206  0.00  0.00    +0.000 A 
ATOM     31  C   UNL     1       7.153   4.852  14.836  0.00  0.00    +0.000 A 
ATOM     32  C   UNL     1       5.936   4.369  14.362  0.00  0.00    +0.000 A 
ATOM     33  C   UNL     1       4.940   3.919  15.244  0.00  0.00    +0.000 A 
ATOM     34  C   UNL     1       5.173   3.950  16.636  0.00  0.00    +0.000 A 
ENDBRANCH  23  26
ENDBRANCH  19  20
ENDBRANCH  18  19
ENDBRANCH   4  18
TORSDOF 6
ENDMDL
MODEL 8
REMARK VINA RESULT:      -8.0      1.188      1.571
REMARK  Name = 
REMARK  7 active torsions:
REMARK  status: ('A' for Active; 'I' for Inactive)
REMARK    1  A    between atoms: C_1  and  C_2
REMARK    2  A    between atoms: C_5  and  C_6
REMARK    3  A    between atoms: N_8  and  C_9
REMARK    4  A    between atoms: C_12  and  C_13
REMARK    5  A    between atoms: C_13  and  C_14
REMARK    6  A    between atoms: C_14  and  N_15
REMARK    7  A    between atoms: C_18  and  C_19
REMARK                            x       y       z     vdW  Elec       q    Type
REMARK                         _______ _______ _______ _____ _____    ______ ____
ROOT
ATOM      1  C   UNL     1       0.047  10.230  19.932  0.00  0.00    +0.000 C 
ATOM      2  C   UNL     1       1.189   9.928  18.946  0.00  0.00    +0.000 C 
ATOM      3  C   UNL     1       1.627   8.464  18.924  0.00  0.00    +0.000 C 
ATOM      4  C   UNL     1       1.941   7.973  20.342  0.00  0.00    +0.000 C 
ATOM      5  C   UNL     1       0.649   8.051  21.169  0.00  0.00    +0.000 C 
ATOM      6  C   UNL     1       0.122   9.477  21.271  0.00  0.00    +0.000 C 
ENDROOT
BRANCH   1   9
ATOM      7  C   UNL     1      -0.778  12.495  19.239  0.00  0.00    +0.000 C 
ATOM      8  O   UNL     1      -1.251  12.080  18.183  0.00  0.00    +0.000 OA
ATOM      9  N   UNL     1      -0.119  11.676  20.143  0.00  0.00    +0.000 N 
ATOM     10  H   UNL     1       0.259  12.056  20.994  0.00  0.00    +0.000 HD
BRANCH   7  15
ATOM     11  C   UNL     1      -1.139  18.184  20.053  0.00  0.00    +0.000 C 
ATOM     12  C   UNL     1      -1.086  16.694  19.901  0.00  0.00    +0.000 A 
ATOM     13  C   UNL     1      -1.815  15.857  20.737  0.00  0.00    +0.000 A 
ATOM     14  C   UNL     1      -1.739  14.466  20.564  0.00  0.00    +0.000 A 
ATOM     15  C   UNL     1      -0.923  13.944  19.563  0.00  0.00    +0.000 A 
ATOM     16  C   UNL     1      -0.207  14.857  18.791  0.00  0.00    +0.000 A 
ATOM     17  N   UNL     1      -0.266  16.208  18.940  0.00  0.00    +0.000 NA
ENDBRANCH   7  15
ENDBRANCH   1   9
BRANCH   4  18
ATOM     18  C   UNL     1       2.476   6.531  20.391  0.00  0.00    +0.000 C 
BRANCH  18  19
ATOM     19  C   UNL     1       1.420   5.446  20.132  0.00  0.00    +0.000 C 
BRANCH  19  20
ATOM     20  N   UNL     1       1.957   4.301  19.361  0.00  0.00    +0.000 NA
ATOM     21  C   UNL     1       1.889   4.565  17.913  0.00  0.00    +0.000 C 
ATOM     22  C   UNL     1       2.605   3.516  17.063  0.00  0.00    +0.000 C 
ATOM     23  C   UNL     1       4.074   3.354  17.486  0.00  0.00    +0.000 C 
ATOM     24  C   UNL     1       4.035   2.957  18.965  0.00  0.00    +0.000 C 
ATOM     25  C   UNL     1       3.326   4.009  19.821  0.00  0.00    +0.000 C 
BRANCH  23  26
ATOM     26  C   UNL     1       4.935   4.556  17.129  0.00  0.00    +0.000 A 
ATOM     27  C   UNL     1       4.845   5.267  15.938  0.00  0.00    +0.000 A 
ATOM     28  O   UNL     1       5.742   6.274  15.878  0.00  0.00    +0.000 OA
ATOM     29  C   UNL     1       6.462   6.229  17.026  0.00  0.00    +0.000 A 
ATOM     30  C   UNL     1       7.505   7.099  17.336  0.00  0.00    +0.000 A 
ATOM     31  C   UNL     1       8.146   6.902  18.561  0.00  0.00    +0.000 A 
ATOM     32  C   UNL     1       7.743   5.878  19.416  0.00  0.00    +0.000 A 
ATOM     33  C   UNL     1       6.690   5.016  19.071  0.00  0.00    +0.000 A 
ATOM     34  C   UNL     1       6.019   5.189  17.841  0.00  0.00    +0.000 A 
ENDBRANCH  23  26
ENDBRANCH  19  20
ENDBRANCH  18  19
ENDBRANCH   4  18
TORSDOF 6
ENDMDL
MODEL 9
REMARK VINA RESULT:      -7.8      2.997      4.051
REMARK  Name = 
REMARK  7 active torsions:
REMARK  status: ('A' for Active; 'I' for Inactive)
REMARK    1  A    between atoms: C_1  and  C_2
REMARK    2  A    between atoms: C_5  and  C_6
REMARK    3  A    between atoms: N_8  and  C_9
REMARK    4  A    between atoms: C_12  and  C_13
REMARK    5  A    between atoms: C_13  and  C_14
REMARK    6  A    between atoms: C_14  and  N_15
REMARK    7  A    between atoms: C_18  and  C_19
REMARK                            x       y       z     vdW  Elec       q    Type
REMARK                         _______ _______ _______ _____ _____    ______ ____
ROOT
ATOM      1  C   UNL     1       0.105  10.704  19.171  0.00  0.00    +0.000 C 
ATOM      2  C   UNL     1       0.091   9.989  20.534  0.00  0.00    +0.000 C 
ATOM      3  C   UNL     1       1.246   9.011  20.740  0.00  0.00    +0.000 C 
ATOM      4  C   UNL     1       1.334   8.025  19.570  0.00  0.00    +0.000 C 
ATOM      5  C   UNL     1       1.636   8.826  18.295  0.00  0.00    +0.000 C 
ATOM      6  C   UNL     1       0.537   9.833  17.980  0.00  0.00    +0.000 C 
ENDROOT
BRANCH   1   9
ATOM      7  C   UNL     1      -2.299  10.706  18.455  0.00  0.00    +0.000 C 
ATOM      8  O   UNL     1      -2.308   9.498  18.230  0.00  0.00    +0.000 OA
ATOM      9  N   UNL     1      -1.172  11.381  18.901  0.00  0.00    +0.000 N 
ATOM     10  H   UNL     1      -1.205  12.372  19.069  0.00  0.00    +0.000 HD
BRANCH   7  15
ATOM     11  C   UNL     1      -7.205  13.453  17.214  0.00  0.00    +0.000 C 
ATOM     12  C   UNL     1      -5.930  12.767  17.604  0.00  0.00    +0.000 A 
ATOM     13  C   UNL     1      -5.454  12.819  18.908  0.00  0.00    +0.000 A 
ATOM     14  C   UNL     1      -4.256  12.164  19.235  0.00  0.00    +0.000 A 
ATOM     15  C   UNL     1      -3.557  11.480  18.244  0.00  0.00    +0.000 A 
ATOM     16  C   UNL     1      -4.096  11.503  16.959  0.00  0.00    +0.000 A 
ATOM     17  N   UNL     1      -5.254  12.131  16.619  0.00  0.00    +0.000 NA
ENDBRANCH   7  15
ENDBRANCH   1   9
BRANCH   4  18
ATOM     18  C   UNL     1       2.420   6.949  19.750  0.00  0.00    +0.000 C 
BRANCH  18  19
ATOM     19  C   UNL     1       1.964   5.702  20.523  0.00  0.00    +0.000 C 
BRANCH  19  20
ATOM     20  N   UNL     1       2.004   4.473  19.696  0.00  0.00    +0.000 NA
ATOM     21  C   UNL     1       2.035   4.808  18.262  0.00  0.00    +0.000 C 
ATOM     22  C   UNL     1       2.276   3.600  17.355  0.00  0.00    +0.000 C 
ATOM     23  C   UNL     1       3.567   2.857  17.737  0.00  0.00    +0.000 C 
ATOM     24  C   UNL     1       3.385   2.442  19.201  0.00  0.00    +0.000 C 
ATOM     25  C   UNL     1       3.152   3.649  20.112  0.00  0.00    +0.000 C 
BRANCH  23  26
ATOM     26  C   UNL     1       4.828   3.641  17.406  0.00  0.00    +0.000 A 
ATOM     27  C   UNL     1       5.620   4.297  18.340  0.00  0.00    +0.000 A 
ATOM     28  O   UNL     1       6.666   4.929  17.767  0.00  0.00    +0.000 OA
ATOM     29  C   UNL     1       6.568   4.720  16.431  0.00  0.00    +0.000 A 
ATOM     30  C   UNL     1       7.456   5.230  15.486  0.00  0.00    +0.000 A 
ATOM     31  C   UNL     1       7.198   4.923  14.149  0.00  0.00    +0.000 A 
ATOM     32  C   UNL     1       6.097   4.143  13.800  0.00  0.00    +0.000 A 
ATOM     33  C   UNL     1       5.219   3.648  14.777  0.00  0.00    +0.000 A 
ATOM     34  C   UNL     1       5.453   3.937  16.138  0.00  0.00    +0.000 A 
ENDBRANCH  23  26
ENDBRANCH  19  20
ENDBRANCH  18  19
ENDBRANCH   4  18
TORSDOF 6
ENDMDL
