MODEL 1
REMARK VINA RESULT:      -7.7      0.000      0.000
REMARK  Name = 
REMARK  8 active torsions:
REMARK  status: ('A' for Active; 'I' for Inactive)
REMARK    1  A    between atoms: C_1  and  C_2
REMARK    2  A    between atoms: C_2  and  C_3
REMARK    3  A    between atoms: C_2  and  C_4
REMARK    4  A    between atoms: C_2  and  N_5
REMARK    5  A    between atoms: N_5  and  C_6
REMARK    6  A    between atoms: C_6  and  C_7
REMARK    7  A    between atoms: C_16  and  O_17
REMARK    8  A    between atoms: C_18  and  C_20
REMARK                            x       y       z     vdW  Elec       q    Type
REMARK                         _______ _______ _______ _____ _____    ______ ____
ROOT
ATOM      1  C   UNL     1       4.749   4.921  19.213  0.00  0.00    +0.000 C 
ENDROOT
BRANCH   1   2
ATOM      2  C   UNL     1       5.495   4.758  17.922  0.00  0.00    +0.000 A 
ATOM      3  C   UNL     1       4.853   4.356  16.744  0.00  0.00    +0.000 A 
ATOM      4  C   UNL     1       5.562   4.291  15.534  0.00  0.00    +0.000 A 
ATOM      5  C   UNL     1       4.970   3.868  14.328  0.00  0.00    +0.000 A 
ATOM      6  C   UNL     1       5.696   3.914  13.137  0.00  0.00    +0.000 A 
ATOM      7  C   UNL     1       6.986   4.425  13.139  0.00  0.00    +0.000 A 
ATOM      8  C   UNL     1       7.584   4.803  14.339  0.00  0.00    +0.000 A 
ATOM      9  C   UNL     1       6.914   4.690  15.550  0.00  0.00    +0.000 A 
ATOM     10  N   UNL     1       7.573   4.945  16.697  0.00  0.00    +0.000 NA
ATOM     11  C   UNL     1       6.859   4.928  17.829  0.00  0.00    +0.000 A 
BRANCH  11  12
ATOM     12  O   UNL     1       7.642   4.995  18.938  0.00  0.00    +0.000 OA
ATOM     13  H   UNL     1       8.092   5.842  18.753  0.00  0.00    +0.000 HD
ENDBRANCH  11  12
ENDBRANCH   1   2
BRANCH   1  14
ATOM     14  N   UNL     1       3.482   4.191  19.519  0.00  0.00    +0.000 N 
ATOM     15  C   UNL     1       2.268   4.861  19.143  0.00  0.00    +0.000 C 
ATOM     16  O   UNL     1       1.223   4.239  18.951  0.00  0.00    +0.000 OA
BRANCH  15  17
ATOM     17  C   UNL     1       2.263   6.307  18.951  0.00  0.00    +0.000 A 
ATOM     18  C   UNL     1       2.483   7.044  17.800  0.00  0.00    +0.000 A 
ATOM     19  C   UNL     1       2.351   8.408  18.150  0.00  0.00    +0.000 A 
ATOM     20  C   UNL     1       2.015   8.426  19.482  0.00  0.00    +0.000 A 
ATOM     21  O   UNL     1       1.942   7.163  19.971  0.00  0.00    +0.000 OA
ENDBRANCH  15  17
BRANCH  14  23
ATOM     22  C   UNL     1       3.004   1.778  18.681  0.00  0.00    +0.000 C 
ATOM     23  C   UNL     1       3.380   2.712  19.853  0.00  0.00    +0.000 C 
ATOM     24  C   UNL     1       2.343   2.499  20.977  0.00  0.00    +0.000 C 
ATOM     25  C   UNL     1       4.759   2.154  20.317  0.00  0.00    +0.000 C 
ENDBRANCH  14  23
ENDBRANCH   1  14
TORSDOF 5
ENDMDL
MODEL 2
REMARK VINA RESULT:      -7.4      0.549      1.147
REMARK  Name = 
REMARK  8 active torsions:
REMARK  status: ('A' for Active; 'I' for Inactive)
REMARK    1  A    between atoms: C_1  and  C_2
REMARK    2  A    between atoms: C_2  and  C_3
REMARK    3  A    between atoms: C_2  and  C_4
REMARK    4  A    between atoms: C_2  and  N_5
REMARK    5  A    between atoms: N_5  and  C_6
REMARK    6  A    between atoms: C_6  and  C_7
REMARK    7  A    between atoms: C_16  and  O_17
REMARK    8  A    between atoms: C_18  and  C_20
REMARK                            x       y       z     vdW  Elec       q    Type
REMARK                         _______ _______ _______ _____ _____    ______ ____
ROOT
ATOM      1  C   UNL     1       4.720   4.945  19.339  0.00  0.00    +0.000 C 
ENDROOT
BRANCH   1   2
ATOM      2  C   UNL     1       5.474   4.783  18.052  0.00  0.00    +0.000 A 
ATOM      3  C   UNL     1       4.841   4.372  16.872  0.00  0.00    +0.000 A 
ATOM      4  C   UNL     1       5.558   4.308  15.667  0.00  0.00    +0.000 A 
ATOM      5  C   UNL     1       4.975   3.877  14.459  0.00  0.00    +0.000 A 
ATOM      6  C   UNL     1       5.707   3.923  13.272  0.00  0.00    +0.000 A 
ATOM      7  C   UNL     1       6.994   4.442  13.279  0.00  0.00    +0.000 A 
ATOM      8  C   UNL     1       7.583   4.829  14.481  0.00  0.00    +0.000 A 
ATOM      9  C   UNL     1       6.907   4.716  15.689  0.00  0.00    +0.000 A 
ATOM     10  N   UNL     1       7.558   4.980  16.838  0.00  0.00    +0.000 NA
ATOM     11  C   UNL     1       6.838   4.962  17.966  0.00  0.00    +0.000 A 
BRANCH  11  12
ATOM     12  O   UNL     1       7.613   5.038  19.080  0.00  0.00    +0.000 OA
ATOM     13  H   UNL     1       7.287   4.243  19.545  0.00  0.00    +0.000 HD
ENDBRANCH  11  12
ENDBRANCH   1   2
BRANCH   1  14
ATOM     14  N   UNL     1       3.468   4.192  19.649  0.00  0.00    +0.000 N 
ATOM     15  C   UNL     1       2.242   4.828  19.257  0.00  0.00    +0.000 C 
ATOM     16  O   UNL     1       1.211   4.180  19.069  0.00  0.00    +0.000 OA
BRANCH  15  17
ATOM     17  C   UNL     1       2.204   6.271  19.042  0.00  0.00    +0.000 A 
ATOM     18  C   UNL     1       1.999   7.293  19.953  0.00  0.00    +0.000 A 
ATOM     19  C   UNL     1       2.072   8.509  19.234  0.00  0.00    +0.000 A 
ATOM     20  C   UNL     1       2.361   8.164  17.936  0.00  0.00    +0.000 A 
ATOM     21  O   UNL     1       2.461   6.817  17.813  0.00  0.00    +0.000 OA
ENDBRANCH  15  17
BRANCH  14  23
ATOM     22  C   UNL     1       4.734   2.055  20.415  0.00  0.00    +0.000 C 
ATOM     23  C   UNL     1       3.398   2.716  20.006  0.00  0.00    +0.000 C 
ATOM     24  C   UNL     1       2.821   1.917  18.817  0.00  0.00    +0.000 C 
ATOM     25  C   UNL     1       2.498   2.492  21.258  0.00  0.00    +0.000 C 
ENDBRANCH  14  23
ENDBRANCH   1  14
TORSDOF 5
ENDMDL
MODEL 3
REMARK VINA RESULT:      -7.3      2.408      6.057
REMARK  Name = 
REMARK  8 active torsions:
REMARK  status: ('A' for Active; 'I' for Inactive)
REMARK    1  A    between atoms: C_1  and  C_2
REMARK    2  A    between atoms: C_2  and  C_3
REMARK    3  A    between atoms: C_2  and  C_4
REMARK    4  A    between atoms: C_2  and  N_5
REMARK    5  A    between atoms: N_5  and  C_6
REMARK    6  A    between atoms: C_6  and  C_7
REMARK    7  A    between atoms: C_16  and  O_17
REMARK    8  A    between atoms: C_18  and  C_20
REMARK                            x       y       z     vdW  Elec       q    Type
REMARK                         _______ _______ _______ _____ _____    ______ ____
ROOT
ATOM      1  C   UNL     1       3.541   5.632  17.782  0.00  0.00    +0.000 C 
ENDROOT
BRANCH   1   2
ATOM      2  C   UNL     1       2.818   6.715  18.528  0.00  0.00    +0.000 A 
ATOM      3  C   UNL     1       2.466   7.924  17.915  0.00  0.00    +0.000 A 
ATOM      4  C   UNL     1       1.718   8.884  18.615  0.00  0.00    +0.000 A 
ATOM      5  C   UNL     1       1.361  10.126  18.054  0.00  0.00    +0.000 A 
ATOM      6  C   UNL     1       0.538  11.004  18.761  0.00  0.00    +0.000 A 
ATOM      7  C   UNL     1       0.032  10.625  19.996  0.00  0.00    +0.000 A 
ATOM      8  C   UNL     1       0.420   9.416  20.568  0.00  0.00    +0.000 A 
ATOM      9  C   UNL     1       1.305   8.560  19.923  0.00  0.00    +0.000 A 
ATOM     10  N   UNL     1       1.753   7.465  20.566  0.00  0.00    +0.000 NA
ATOM     11  C   UNL     1       2.517   6.616  19.869  0.00  0.00    +0.000 A 
BRANCH  11  12
ATOM     12  O   UNL     1       3.080   5.658  20.652  0.00  0.00    +0.000 OA
ATOM     13  H   UNL     1       3.951   5.600  20.214  0.00  0.00    +0.000 HD
ENDBRANCH  11  12
ENDBRANCH   1   2
BRANCH   1  14
ATOM     14  N   UNL     1       3.555   4.207  18.229  0.00  0.00    +0.000 N 
ATOM     15  C   UNL     1       4.729   3.785  18.940  0.00  0.00    +0.000 C 
ATOM     16  O   UNL     1       4.709   2.817  19.701  0.00  0.00    +0.000 OA
BRANCH  15  17
ATOM     17  C   UNL     1       5.976   4.529  18.795  0.00  0.00    +0.000 A 
ATOM     18  C   UNL     1       6.771   4.708  17.676  0.00  0.00    +0.000 A 
ATOM     19  C   UNL     1       7.859   5.523  18.067  0.00  0.00    +0.000 A 
ATOM     20  C   UNL     1       7.645   5.831  19.388  0.00  0.00    +0.000 A 
ATOM     21  O   UNL     1       6.502   5.252  19.833  0.00  0.00    +0.000 OA
ENDBRANCH  15  17
BRANCH  14  23
ATOM     22  C   UNL     1       1.803   3.001  19.723  0.00  0.00    +0.000 C 
ATOM     23  C   UNL     1       2.338   3.299  18.304  0.00  0.00    +0.000 C 
ATOM     24  C   UNL     1       2.650   1.947  17.625  0.00  0.00    +0.000 C 
ATOM     25  C   UNL     1       1.114   3.955  17.598  0.00  0.00    +0.000 C 
ENDBRANCH  14  23
ENDBRANCH   1  14
TORSDOF 5
ENDMDL
MODEL 4
REMARK VINA RESULT:      -7.3      2.603      6.508
REMARK  Name = 
REMARK  8 active torsions:
REMARK  status: ('A' for Active; 'I' for Inactive)
REMARK    1  A    between atoms: C_1  and  C_2
REMARK    2  A    between atoms: C_2  and  C_3
REMARK    3  A    between atoms: C_2  and  C_4
REMARK    4  A    between atoms: C_2  and  N_5
REMARK    5  A    between atoms: N_5  and  C_6
REMARK    6  A    between atoms: C_6  and  C_7
REMARK    7  A    between atoms: C_16  and  O_17
REMARK    8  A    between atoms: C_18  and  C_20
REMARK                            x       y       z     vdW  Elec       q    Type
REMARK                         _______ _______ _______ _____ _____    ______ ____
ROOT
ATOM      1  C   UNL     1       3.314   5.749  19.890  0.00  0.00    +0.000 C 
ENDROOT
BRANCH   1   2
ATOM      2  C   UNL     1       2.462   6.982  19.823  0.00  0.00    +0.000 A 
ATOM      3  C   UNL     1       1.652   7.378  20.895  0.00  0.00    +0.000 A 
ATOM      4  C   UNL     1       0.930   8.580  20.833  0.00  0.00    +0.000 A 
ATOM      5  C   UNL     1       0.081   9.011  21.871  0.00  0.00    +0.000 A 
ATOM      6  C   UNL     1      -0.539  10.259  21.798  0.00  0.00    +0.000 A 
ATOM      7  C   UNL     1      -0.276  11.093  20.721  0.00  0.00    +0.000 A 
ATOM      8  C   UNL     1       0.530  10.649  19.675  0.00  0.00    +0.000 A 
ATOM      9  C   UNL     1       1.093   9.379  19.683  0.00  0.00    +0.000 A 
ATOM     10  N   UNL     1       1.758   8.944  18.596  0.00  0.00    +0.000 NA
ATOM     11  C   UNL     1       2.373   7.759  18.689  0.00  0.00    +0.000 A 
BRANCH  11  12
ATOM     12  O   UNL     1       2.840   7.319  17.491  0.00  0.00    +0.000 OA
ATOM     13  H   UNL     1       3.756   7.653  17.554  0.00  0.00    +0.000 HD
ENDBRANCH  11  12
ENDBRANCH   1   2
BRANCH   1  14
ATOM     14  N   UNL     1       3.183   4.616  18.926  0.00  0.00    +0.000 N 
ATOM     15  C   UNL     1       4.412   4.116  18.376  0.00  0.00    +0.000 C 
ATOM     16  O   UNL     1       4.499   2.974  17.923  0.00  0.00    +0.000 OA
BRANCH  15  17
ATOM     17  C   UNL     1       5.605   4.957  18.373  0.00  0.00    +0.000 A 
ATOM     18  C   UNL     1       5.987   5.943  17.480  0.00  0.00    +0.000 A 
ATOM     19  C   UNL     1       7.220   6.463  17.939  0.00  0.00    +0.000 A 
ATOM     20  C   UNL     1       7.499   5.797  19.108  0.00  0.00    +0.000 A 
ATOM     21  O   UNL     1       6.522   4.899  19.389  0.00  0.00    +0.000 OA
ENDBRANCH  15  17
BRANCH  14  23
ATOM     22  C   UNL     1       2.195   2.225  18.680  0.00  0.00    +0.000 C 
ATOM     23  C   UNL     1       1.947   3.748  18.755  0.00  0.00    +0.000 C 
ATOM     24  C   UNL     1       1.187   4.165  17.477  0.00  0.00    +0.000 C 
ATOM     25  C   UNL     1       0.998   3.890  19.983  0.00  0.00    +0.000 C 
ENDBRANCH  14  23
ENDBRANCH   1  14
TORSDOF 5
ENDMDL
MODEL 5
REMARK VINA RESULT:      -7.3      2.168      6.297
REMARK  Name = 
REMARK  8 active torsions:
REMARK  status: ('A' for Active; 'I' for Inactive)
REMARK    1  A    between atoms: C_1  and  C_2
REMARK    2  A    between atoms: C_2  and  C_3
REMARK    3  A    between atoms: C_2  and  C_4
REMARK    4  A    between atoms: C_2  and  N_5
REMARK    5  A    between atoms: N_5  and  C_6
REMARK    6  A    between atoms: C_6  and  C_7
REMARK    7  A    between atoms: C_16  and  O_17
REMARK    8  A    between atoms: C_18  and  C_20
REMARK                            x       y       z     vdW  Elec       q    Type
REMARK                         _______ _______ _______ _____ _____    ______ ____
ROOT
ATOM      1  C   UNL     1       3.142   5.685  17.949  0.00  0.00    +0.000 C 
ENDROOT
BRANCH   1   2
ATOM      2  C   UNL     1       2.578   6.896  18.632  0.00  0.00    +0.000 A 
ATOM      3  C   UNL     1       2.437   8.120  17.966  0.00  0.00    +0.000 A 
ATOM      4  C   UNL     1       1.832   9.212  18.607  0.00  0.00    +0.000 A 
ATOM      5  C   UNL     1       1.689  10.472  17.992  0.00  0.00    +0.000 A 
ATOM      6  C   UNL     1       0.995  11.494  18.640  0.00  0.00    +0.000 A 
ATOM      7  C   UNL     1       0.404  11.248  19.871  0.00  0.00    +0.000 A 
ATOM      8  C   UNL     1       0.581  10.017  20.496  0.00  0.00    +0.000 A 
ATOM      9  C   UNL     1       1.337   9.009  19.912  0.00  0.00    +0.000 A 
ATOM     10  N   UNL     1       1.589   7.883  20.607  0.00  0.00    +0.000 NA
ATOM     11  C   UNL     1       2.229   6.899  19.965  0.00  0.00    +0.000 A 
BRANCH  11  12
ATOM     12  O   UNL     1       2.613   5.896  20.799  0.00  0.00    +0.000 OA
ATOM     13  H   UNL     1       3.219   6.403  21.374  0.00  0.00    +0.000 HD
ENDBRANCH  11  12
ENDBRANCH   1   2
BRANCH   1  14
ATOM     14  N   UNL     1       4.393   5.006  18.398  0.00  0.00    +0.000 N 
ATOM     15  C   UNL     1       4.234   3.673  18.909  0.00  0.00    +0.000 C 
ATOM     16  O   UNL     1       5.168   2.871  18.918  0.00  0.00    +0.000 OA
BRANCH  15  17
ATOM     17  C   UNL     1       2.934   3.232  19.403  0.00  0.00    +0.000 A 
ATOM     18  C   UNL     1       1.831   2.779  18.700  0.00  0.00    +0.000 A 
ATOM     19  C   UNL     1       0.833   2.466  19.652  0.00  0.00    +0.000 A 
ATOM     20  C   UNL     1       1.396   2.704  20.883  0.00  0.00    +0.000 A 
ATOM     21  O   UNL     1       2.670   3.149  20.744  0.00  0.00    +0.000 OA
ENDBRANCH  15  17
BRANCH  14  23
ATOM     22  C   UNL     1       6.572   4.537  17.060  0.00  0.00    +0.000 C 
ATOM     23  C   UNL     1       5.805   5.447  18.046  0.00  0.00    +0.000 C 
ATOM     24  C   UNL     1       6.652   5.568  19.332  0.00  0.00    +0.000 C 
ATOM     25  C   UNL     1       5.789   6.822  17.314  0.00  0.00    +0.000 C 
ENDBRANCH  14  23
ENDBRANCH   1  14
TORSDOF 5
ENDMDL
MODEL 6
REMARK VINA RESULT:      -7.2      2.139      6.036
REMARK  Name = 
REMARK  8 active torsions:
REMARK  status: ('A' for Active; 'I' for Inactive)
REMARK    1  A    between atoms: C_1  and  C_2
REMARK    2  A    between atoms: C_2  and  C_3
REMARK    3  A    between atoms: C_2  and  C_4
REMARK    4  A    between atoms: C_2  and  N_5
REMARK    5  A    between atoms: N_5  and  C_6
REMARK    6  A    between atoms: C_6  and  C_7
REMARK    7  A    between atoms: C_16  and  O_17
REMARK    8  A    between atoms: C_18  and  C_20
REMARK                            x       y       z     vdW  Elec       q    Type
REMARK                         _______ _______ _______ _____ _____    ______ ____
ROOT
ATOM      1  C   UNL     1       3.695   5.440  19.785  0.00  0.00    +0.000 C 
ENDROOT
BRANCH   1   2
ATOM      2  C   UNL     1       2.888   6.660  19.452  0.00  0.00    +0.000 A 
ATOM      3  C   UNL     1       2.005   7.236  20.375  0.00  0.00    +0.000 A 
ATOM      4  C   UNL     1       1.326   8.424  20.062  0.00  0.00    +0.000 A 
ATOM      5  C   UNL     1       0.409   9.029  20.943  0.00  0.00    +0.000 A 
ATOM      6  C   UNL     1      -0.166  10.259  20.621  0.00  0.00    +0.000 A 
ATOM      7  C   UNL     1       0.209  10.905  19.452  0.00  0.00    +0.000 A 
ATOM      8  C   UNL     1       1.083  10.287  18.562  0.00  0.00    +0.000 A 
ATOM      9  C   UNL     1       1.606   9.026  18.818  0.00  0.00    +0.000 A 
ATOM     10  N   UNL     1       2.344   8.411  17.874  0.00  0.00    +0.000 NA
ATOM     11  C   UNL     1       2.914   7.247  18.206  0.00  0.00    +0.000 A 
BRANCH  11  12
ATOM     12  O   UNL     1       3.463   6.613  17.136  0.00  0.00    +0.000 OA
ATOM     13  H   UNL     1       3.418   7.343  16.489  0.00  0.00    +0.000 HD
ENDBRANCH  11  12
ENDBRANCH   1   2
BRANCH   1  14
ATOM     14  N   UNL     1       3.235   4.052  19.482  0.00  0.00    +0.000 N 
ATOM     15  C   UNL     1       4.185   3.210  18.810  0.00  0.00    +0.000 C 
ATOM     16  O   UNL     1       4.114   1.982  18.870  0.00  0.00    +0.000 OA
BRANCH  15  17
ATOM     17  C   UNL     1       5.285   3.807  18.059  0.00  0.00    +0.000 A 
ATOM     18  C   UNL     1       5.386   4.075  16.705  0.00  0.00    +0.000 A 
ATOM     19  C   UNL     1       6.652   4.669  16.493  0.00  0.00    +0.000 A 
ATOM     20  C   UNL     1       7.234   4.770  17.734  0.00  0.00    +0.000 A 
ATOM     21  O   UNL     1       6.411   4.269  18.688  0.00  0.00    +0.000 OA
ENDBRANCH  15  17
BRANCH  14  23
ATOM     22  C   UNL     1       0.799   4.268  20.363  0.00  0.00    +0.000 C 
ATOM     23  C   UNL     1       2.031   3.369  20.111  0.00  0.00    +0.000 C 
ATOM     24  C   UNL     1       2.434   2.734  21.460  0.00  0.00    +0.000 C 
ATOM     25  C   UNL     1       1.470   2.261  19.171  0.00  0.00    +0.000 C 
ENDBRANCH  14  23
ENDBRANCH   1  14
TORSDOF 5
ENDMDL
MODEL 7
REMARK VINA RESULT:      -7.1      2.710      6.564
REMARK  Name = 
REMARK  8 active torsions:
REMARK  status: ('A' for Active; 'I' for Inactive)
REMARK    1  A    between atoms: C_1  and  C_2
REMARK    2  A    between atoms: C_2  and  C_3
REMARK    3  A    between atoms: C_2  and  C_4
REMARK    4  A    between atoms: C_2  and  N_5
REMARK    5  A    between atoms: N_5  and  C_6
REMARK    6  A    between atoms: C_6  and  C_7
REMARK    7  A    between atoms: C_16  and  O_17
REMARK    8  A    between atoms: C_18  and  C_20
REMARK                            x       y       z     vdW  Elec       q    Type
REMARK                         _______ _______ _______ _____ _____    ______ ____
ROOT
ATOM      1  C   UNL     1       3.352   5.787  19.768  0.00  0.00    +0.000 C 
ENDROOT
BRANCH   1   2
ATOM      2  C   UNL     1       2.473   7.002  19.798  0.00  0.00    +0.000 A 
ATOM      3  C   UNL     1       1.672   7.306  20.906  0.00  0.00    +0.000 A 
ATOM      4  C   UNL     1       0.923   8.493  20.937  0.00  0.00    +0.000 A 
ATOM      5  C   UNL     1       0.082   8.833  22.015  0.00  0.00    +0.000 A 
ATOM      6  C   UNL     1      -0.566  10.068  22.036  0.00  0.00    +0.000 A 
ATOM      7  C   UNL     1      -0.338  10.979  21.014  0.00  0.00    +0.000 A 
ATOM      8  C   UNL     1       0.460  10.626  19.929  0.00  0.00    +0.000 A 
ATOM      9  C   UNL     1       1.050   9.371  19.842  0.00  0.00    +0.000 A 
ATOM     10  N   UNL     1       1.706   9.026  18.718  0.00  0.00    +0.000 NA
ATOM     11  C   UNL     1       2.349   7.852  18.721  0.00  0.00    +0.000 A 
BRANCH  11  12
ATOM     12  O   UNL     1       2.805   7.504  17.489  0.00  0.00    +0.000 OA
ATOM     13  H   UNL     1       2.150   7.985  16.945  0.00  0.00    +0.000 HD
ENDBRANCH  11  12
ENDBRANCH   1   2
BRANCH   1  14
ATOM     14  N   UNL     1       3.225   4.715  18.736  0.00  0.00    +0.000 N 
ATOM     15  C   UNL     1       4.427   4.386  18.023  0.00  0.00    +0.000 C 
ATOM     16  O   UNL     1       4.573   3.293  17.474  0.00  0.00    +0.000 OA
BRANCH  15  17
ATOM     17  C   UNL     1       5.525   5.345  17.964  0.00  0.00    +0.000 A 
ATOM     18  C   UNL     1       6.746   5.329  18.615  0.00  0.00    +0.000 A 
ATOM     19  C   UNL     1       7.452   6.483  18.202  0.00  0.00    +0.000 A 
ATOM     20  C   UNL     1       6.642   7.115  17.290  0.00  0.00    +0.000 A 
ATOM     21  O   UNL     1       5.484   6.427  17.125  0.00  0.00    +0.000 OA
ENDBRANCH  15  17
BRANCH  14  23
ATOM     22  C   UNL     1       1.060   3.744  19.798  0.00  0.00    +0.000 C 
ATOM     23  C   UNL     1       2.066   3.736  18.625  0.00  0.00    +0.000 C 
ATOM     24  C   UNL     1       2.608   2.298  18.478  0.00  0.00    +0.000 C 
ATOM     25  C   UNL     1       1.173   4.074  17.394  0.00  0.00    +0.000 C 
ENDBRANCH  14  23
ENDBRANCH   1  14
TORSDOF 5
ENDMDL
MODEL 8
REMARK VINA RESULT:      -7.0      2.259      6.264
REMARK  Name = 
REMARK  8 active torsions:
REMARK  status: ('A' for Active; 'I' for Inactive)
REMARK    1  A    between atoms: C_1  and  C_2
REMARK    2  A    between atoms: C_2  and  C_3
REMARK    3  A    between atoms: C_2  and  C_4
REMARK    4  A    between atoms: C_2  and  N_5
REMARK    5  A    between atoms: N_5  and  C_6
REMARK    6  A    between atoms: C_6  and  C_7
REMARK    7  A    between atoms: C_16  and  O_17
REMARK    8  A    between atoms: C_18  and  C_20
REMARK                            x       y       z     vdW  Elec       q    Type
REMARK                         _______ _______ _______ _____ _____    ______ ____
ROOT
ATOM      1  C   UNL     1       3.589   5.554  19.698  0.00  0.00    +0.000 C 
ENDROOT
BRANCH   1   2
ATOM      2  C   UNL     1       2.717   6.771  19.605  0.00  0.00    +0.000 A 
ATOM      3  C   UNL     1       1.891   7.169  20.664  0.00  0.00    +0.000 A 
ATOM      4  C   UNL     1       1.148   8.357  20.578  0.00  0.00    +0.000 A 
ATOM      5  C   UNL     1       0.283   8.788  21.603  0.00  0.00    +0.000 A 
ATOM      6  C   UNL     1      -0.359  10.023  21.505  0.00  0.00    +0.000 A 
ATOM      7  C   UNL     1      -0.100  10.846  20.418  0.00  0.00    +0.000 A 
ATOM      8  C   UNL     1       0.721  10.400  19.386  0.00  0.00    +0.000 A 
ATOM      9  C   UNL     1       1.307   9.141  19.417  0.00  0.00    +0.000 A 
ATOM     10  N   UNL     1       1.988   8.701  18.342  0.00  0.00    +0.000 NA
ATOM     11  C   UNL     1       2.624   7.529  18.459  0.00  0.00    +0.000 A 
BRANCH  11  12
ATOM     12  O   UNL     1       3.108   7.079  17.271  0.00  0.00    +0.000 OA
ATOM     13  H   UNL     1       2.317   7.235  16.718  0.00  0.00    +0.000 HD
ENDBRANCH  11  12
ENDBRANCH   1   2
BRANCH   1  14
ATOM     14  N   UNL     1       3.157   4.204  19.228  0.00  0.00    +0.000 N 
ATOM     15  C   UNL     1       4.049   3.542  18.318  0.00  0.00    +0.000 C 
ATOM     16  O   UNL     1       4.041   2.318  18.184  0.00  0.00    +0.000 OA
BRANCH  15  17
ATOM     17  C   UNL     1       5.017   4.320  17.550  0.00  0.00    +0.000 A 
ATOM     18  C   UNL     1       6.351   4.573  17.813  0.00  0.00    +0.000 A 
ATOM     19  C   UNL     1       6.840   5.368  16.749  0.00  0.00    +0.000 A 
ATOM     20  C   UNL     1       5.789   5.517  15.876  0.00  0.00    +0.000 A 
ATOM     21  O   UNL     1       4.689   4.874  16.341  0.00  0.00    +0.000 OA
ENDBRANCH  15  17
BRANCH  14  23
ATOM     22  C   UNL     1       0.782   4.098  20.279  0.00  0.00    +0.000 C 
ATOM     23  C   UNL     1       2.075   3.355  19.875  0.00  0.00    +0.000 C 
ATOM     24  C   UNL     1       2.636   2.666  21.139  0.00  0.00    +0.000 C 
ATOM     25  C   UNL     1       1.560   2.267  18.886  0.00  0.00    +0.000 C 
ENDBRANCH  14  23
ENDBRANCH   1  14
TORSDOF 5
ENDMDL
