MODEL 1
REMARK VINA RESULT:      -7.2      0.000      0.000
REMARK  Name = 
REMARK  4 active torsions:
REMARK  status: ('A' for Active; 'I' for Inactive)
REMARK    1  A    between atoms: C_1  and  C_2
REMARK    2  A    between atoms: C_2  and  C_3
REMARK    3  A    between atoms: C_5  and  C_6
REMARK    4  A    between atoms: N_26  and  C_27
REMARK                            x       y       z     vdW  Elec       q    Type
REMARK                         _______ _______ _______ _____ _____    ______ ____
ROOT
ATOM      1  C   UNL     1      -2.364  12.665  20.365  0.00  0.00    +0.000 C 
ATOM      2  C   UNL     1      -3.795  12.923  20.723  0.00  0.00    +0.000 A 
ATOM      3  C   UNL     1      -4.245  13.698  21.790  0.00  0.00    +0.000 A 
ATOM      4  N   UNL     1      -5.610  13.569  21.857  0.00  0.00    +0.000 N 
ATOM      5  C   UNL     1      -6.051  12.819  20.801  0.00  0.00    +0.000 A 
ATOM      6  N   UNL     1      -7.343  12.515  20.583  0.00  0.00    +0.000 NA
ATOM      7  C   UNL     1      -7.516  11.778  19.467  0.00  0.00    +0.000 A 
ATOM      8  C   UNL     1      -6.512  11.408  18.581  0.00  0.00    +0.000 A 
ATOM      9  C   UNL     1      -5.172  11.772  18.825  0.00  0.00    +0.000 A 
ATOM     10  C   UNL     1      -4.949  12.465  20.029  0.00  0.00    +0.000 A 
ATOM     11  C   UNL     1      -4.062  11.383  17.925  0.00  0.00    +0.000 A 
ATOM     12  C   UNL     1      -4.263  11.253  16.546  0.00  0.00    +0.000 A 
ATOM     13  C   UNL     1      -3.305  10.644  15.737  0.00  0.00    +0.000 A 
ATOM     14  F   UNL     1      -3.438  10.677  14.408  0.00  0.00    +0.000 F 
ATOM     15  C   UNL     1      -2.211  10.009  16.294  0.00  0.00    +0.000 A 
ATOM     16  C   UNL     1      -1.968  10.200  17.643  0.00  0.00    +0.000 A 
ATOM     17  C   UNL     1      -2.748  11.127  18.362  0.00  0.00    +0.000 A 
ATOM     18  N   UNL     1      -2.015  12.086  19.073  0.00  0.00    +0.000 N 
ATOM     19  C   UNL     1      -0.939  12.712  18.296  0.00  0.00    +0.000 C 
ATOM     20  H   UNL     1      -6.221  13.980  22.548  0.00  0.00    +0.000 HD
ENDROOT
BRANCH   3  21
ATOM     21  C   UNL     1      -3.569  14.566  22.676  0.00  0.00    +0.000 C 
ATOM     22  C   UNL     1      -3.516  14.227  23.985  0.00  0.00    +0.000 C 
ATOM     23  C   UNL     1      -2.649  14.913  24.994  0.00  0.00    +0.000 C 
ATOM     24  N   UNL     1      -1.660  15.828  24.414  0.00  0.00    +0.000 NA
ATOM     25  C   UNL     1      -2.267  16.634  23.352  0.00  0.00    +0.000 C 
ATOM     26  C   UNL     1      -2.764  15.750  22.200  0.00  0.00    +0.000 C 
ATOM     27  H   UNL     1      -0.905  15.272  24.013  0.00  0.00    +0.000 HD
ENDBRANCH   3  21
BRANCH   1  29
ATOM     28  C   UNL     1      -0.478  12.549  22.119  0.00  0.00    +0.000 C 
ATOM     29  C   UNL     1      -1.627  11.819  21.432  0.00  0.00    +0.000 C 
ENDBRANCH   1  29
TORSDOF 2
ENDMDL
MODEL 2
REMARK VINA RESULT:      -7.2      0.410      1.003
REMARK  Name = 
REMARK  4 active torsions:
REMARK  status: ('A' for Active; 'I' for Inactive)
REMARK    1  A    between atoms: C_1  and  C_2
REMARK    2  A    between atoms: C_2  and  C_3
REMARK    3  A    between atoms: C_5  and  C_6
REMARK    4  A    between atoms: N_26  and  C_27
REMARK                            x       y       z     vdW  Elec       q    Type
REMARK                         _______ _______ _______ _____ _____    ______ ____
ROOT
ATOM      1  C   UNL     1      -2.429  12.642  20.550  0.00  0.00    +0.000 C 
ATOM      2  C   UNL     1      -3.868  12.863  20.901  0.00  0.00    +0.000 A 
ATOM      3  C   UNL     1      -4.343  13.592  21.989  0.00  0.00    +0.000 A 
ATOM      4  N   UNL     1      -5.706  13.438  22.036  0.00  0.00    +0.000 N 
ATOM      5  C   UNL     1      -6.123  12.718  20.949  0.00  0.00    +0.000 A 
ATOM      6  N   UNL     1      -7.407  12.400  20.707  0.00  0.00    +0.000 NA
ATOM      7  C   UNL     1      -7.555  11.699  19.564  0.00  0.00    +0.000 A 
ATOM      8  C   UNL     1      -6.535  11.377  18.677  0.00  0.00    +0.000 A 
ATOM      9  C   UNL     1      -5.205  11.755  18.948  0.00  0.00    +0.000 A 
ATOM     10  C   UNL     1      -5.006  12.410  20.178  0.00  0.00    +0.000 A 
ATOM     11  C   UNL     1      -4.079  11.417  18.048  0.00  0.00    +0.000 A 
ATOM     12  C   UNL     1      -4.263  11.332  16.663  0.00  0.00    +0.000 A 
ATOM     13  C   UNL     1      -3.287  10.768  15.844  0.00  0.00    +0.000 A 
ATOM     14  F   UNL     1      -3.406  10.845  14.516  0.00  0.00    +0.000 F 
ATOM     15  C   UNL     1      -2.188  10.132  16.391  0.00  0.00    +0.000 A 
ATOM     16  C   UNL     1      -1.961  10.281  17.749  0.00  0.00    +0.000 A 
ATOM     17  C   UNL     1      -2.766  11.169  18.490  0.00  0.00    +0.000 A 
ATOM     18  N   UNL     1      -2.057  12.114  19.242  0.00  0.00    +0.000 N 
ATOM     19  C   UNL     1      -0.984  12.785  18.500  0.00  0.00    +0.000 C 
ATOM     20  H   UNL     1      -6.331  13.814  22.734  0.00  0.00    +0.000 HD
ENDROOT
BRANCH   3  21
ATOM     21  C   UNL     1      -3.692  14.440  22.911  0.00  0.00    +0.000 C 
ATOM     22  C   UNL     1      -3.421  15.711  22.532  0.00  0.00    +0.000 C 
ATOM     23  C   UNL     1      -2.955  16.783  23.464  0.00  0.00    +0.000 C 
ATOM     24  N   UNL     1      -3.049  16.429  24.885  0.00  0.00    +0.000 NA
ATOM     25  C   UNL     1      -2.577  15.059  25.104  0.00  0.00    +0.000 C 
ATOM     26  C   UNL     1      -3.447  14.045  24.347  0.00  0.00    +0.000 C 
ATOM     27  H   UNL     1      -4.028  16.488  25.165  0.00  0.00    +0.000 HD
ENDBRANCH   3  21
BRANCH   1  29
ATOM     28  C   UNL     1      -0.590  12.509  22.350  0.00  0.00    +0.000 C 
ATOM     29  C   UNL     1      -1.689  11.772  21.595  0.00  0.00    +0.000 C 
ENDBRANCH   1  29
TORSDOF 2
ENDMDL
MODEL 3
REMARK VINA RESULT:      -7.0      2.906      5.802
REMARK  Name = 
REMARK  4 active torsions:
REMARK  status: ('A' for Active; 'I' for Inactive)
REMARK    1  A    between atoms: C_1  and  C_2
REMARK    2  A    between atoms: C_2  and  C_3
REMARK    3  A    between atoms: C_5  and  C_6
REMARK    4  A    between atoms: N_26  and  C_27
REMARK                            x       y       z     vdW  Elec       q    Type
REMARK                         _______ _______ _______ _____ _____    ______ ____
ROOT
ATOM      1  C   UNL     1      -2.308  12.709  21.082  0.00  0.00    +0.000 C 
ATOM      2  C   UNL     1      -2.802  12.314  19.725  0.00  0.00    +0.000 A 
ATOM      3  C   UNL     1      -2.012  11.884  18.660  0.00  0.00    +0.000 A 
ATOM      4  N   UNL     1      -2.824  11.755  17.561  0.00  0.00    +0.000 N 
ATOM      5  C   UNL     1      -4.123  11.988  17.921  0.00  0.00    +0.000 A 
ATOM      6  N   UNL     1      -5.161  11.936  17.067  0.00  0.00    +0.000 NA
ATOM      7  C   UNL     1      -6.338  12.190  17.673  0.00  0.00    +0.000 A 
ATOM      8  C   UNL     1      -6.513  12.421  19.032  0.00  0.00    +0.000 A 
ATOM      9  C   UNL     1      -5.405  12.437  19.903  0.00  0.00    +0.000 A 
ATOM     10  C   UNL     1      -4.153  12.264  19.285  0.00  0.00    +0.000 A 
ATOM     11  C   UNL     1      -5.534  12.702  21.355  0.00  0.00    +0.000 A 
ATOM     12  C   UNL     1      -6.675  12.303  22.062  0.00  0.00    +0.000 A 
ATOM     13  C   UNL     1      -6.916  12.770  23.353  0.00  0.00    +0.000 A 
ATOM     14  F   UNL     1      -7.916  12.252  24.071  0.00  0.00    +0.000 F 
ATOM     15  C   UNL     1      -6.128  13.763  23.904  0.00  0.00    +0.000 A 
ATOM     16  C   UNL     1      -4.959  14.103  23.244  0.00  0.00    +0.000 A 
ATOM     17  C   UNL     1      -4.550  13.348  22.127  0.00  0.00    +0.000 A 
ATOM     18  N   UNL     1      -3.239  12.862  22.195  0.00  0.00    +0.000 N 
ATOM     19  C   UNL     1      -2.902  12.231  23.476  0.00  0.00    +0.000 C 
ATOM     20  H   UNL     1      -2.538  11.497  16.627  0.00  0.00    +0.000 HD
ENDROOT
BRANCH   3  21
ATOM     21  C   UNL     1      -0.648  11.530  18.581  0.00  0.00    +0.000 C 
ATOM     22  C   UNL     1      -0.335  10.223  18.423  0.00  0.00    +0.000 C 
ATOM     23  C   UNL     1       1.036   9.723  18.092  0.00  0.00    +0.000 C 
ATOM     24  N   UNL     1       1.981  10.773  17.699  0.00  0.00    +0.000 NA
ATOM     25  C   UNL     1       1.856  11.933  18.585  0.00  0.00    +0.000 C 
ATOM     26  C   UNL     1       0.456  12.555  18.490  0.00  0.00    +0.000 C 
ATOM     27  H   UNL     1       1.760  11.063  16.746  0.00  0.00    +0.000 HD
ENDBRANCH   3  21
BRANCH   1  29
ATOM     28  C   UNL     1      -0.201  13.939  21.915  0.00  0.00    +0.000 C 
ATOM     29  C   UNL     1      -1.455  14.001  21.052  0.00  0.00    +0.000 C 
ENDBRANCH   1  29
TORSDOF 2
ENDMDL
MODEL 4
REMARK VINA RESULT:      -6.7      2.425      3.504
REMARK  Name = 
REMARK  4 active torsions:
REMARK  status: ('A' for Active; 'I' for Inactive)
REMARK    1  A    between atoms: C_1  and  C_2
REMARK    2  A    between atoms: C_2  and  C_3
REMARK    3  A    between atoms: C_5  and  C_6
REMARK    4  A    between atoms: N_26  and  C_27
REMARK                            x       y       z     vdW  Elec       q    Type
REMARK                         _______ _______ _______ _____ _____    ______ ____
ROOT
ATOM      1  C   UNL     1      -1.415  12.178  21.053  0.00  0.00    +0.000 C 
ATOM      2  C   UNL     1      -2.548  12.286  20.080  0.00  0.00    +0.000 A 
ATOM      3  C   UNL     1      -3.600  13.197  20.146  0.00  0.00    +0.000 A 
ATOM      4  N   UNL     1      -4.495  12.878  19.155  0.00  0.00    +0.000 N 
ATOM      5  C   UNL     1      -3.992  11.857  18.395  0.00  0.00    +0.000 A 
ATOM      6  N   UNL     1      -4.632  11.318  17.343  0.00  0.00    +0.000 NA
ATOM      7  C   UNL     1      -3.918  10.336  16.754  0.00  0.00    +0.000 A 
ATOM      8  C   UNL     1      -2.638   9.940  17.121  0.00  0.00    +0.000 A 
ATOM      9  C   UNL     1      -1.984  10.550  18.210  0.00  0.00    +0.000 A 
ATOM     10  C   UNL     1      -2.740  11.515  18.899  0.00  0.00    +0.000 A 
ATOM     11  C   UNL     1      -0.630  10.149  18.656  0.00  0.00    +0.000 A 
ATOM     12  C   UNL     1       0.325   9.690  17.740  0.00  0.00    +0.000 A 
ATOM     13  C   UNL     1       1.496   9.073  18.175  0.00  0.00    +0.000 A 
ATOM     14  F   UNL     1       2.466   8.794  17.300  0.00  0.00    +0.000 F 
ATOM     15  C   UNL     1       1.671   8.751  19.508  0.00  0.00    +0.000 A 
ATOM     16  C   UNL     1       0.771   9.268  20.424  0.00  0.00    +0.000 A 
ATOM     17  C   UNL     1      -0.195  10.199  19.994  0.00  0.00    +0.000 A 
ATOM     18  N   UNL     1      -0.230  11.390  20.729  0.00  0.00    +0.000 N 
ATOM     19  C   UNL     1       1.089  11.989  20.961  0.00  0.00    +0.000 C 
ATOM     20  H   UNL     1      -5.378  13.331  18.972  0.00  0.00    +0.000 HD
ENDROOT
BRANCH   3  21
ATOM     21  C   UNL     1      -3.815  14.330  20.959  0.00  0.00    +0.000 C 
ATOM     22  C   UNL     1      -4.784  14.265  21.903  0.00  0.00    +0.000 C 
ATOM     23  C   UNL     1      -4.973  15.283  22.982  0.00  0.00    +0.000 C 
ATOM     24  N   UNL     1      -3.870  16.243  23.105  0.00  0.00    +0.000 NA
ATOM     25  C   UNL     1      -3.438  16.700  21.781  0.00  0.00    +0.000 C 
ATOM     26  C   UNL     1      -2.905  15.533  20.938  0.00  0.00    +0.000 C 
ATOM     27  H   UNL     1      -3.087  15.774  23.561  0.00  0.00    +0.000 HD
ENDBRANCH   3  21
BRANCH   1  29
ATOM     28  C   UNL     1      -1.800  12.789  23.527  0.00  0.00    +0.000 C 
ATOM     29  C   UNL     1      -1.877  11.710  22.454  0.00  0.00    +0.000 C 
ENDBRANCH   1  29
TORSDOF 2
ENDMDL
MODEL 5
REMARK VINA RESULT:      -6.7      3.085      6.180
REMARK  Name = 
REMARK  4 active torsions:
REMARK  status: ('A' for Active; 'I' for Inactive)
REMARK    1  A    between atoms: C_1  and  C_2
REMARK    2  A    between atoms: C_2  and  C_3
REMARK    3  A    between atoms: C_5  and  C_6
REMARK    4  A    between atoms: N_26  and  C_27
REMARK                            x       y       z     vdW  Elec       q    Type
REMARK                         _______ _______ _______ _____ _____    ______ ____
ROOT
ATOM      1  C   UNL     1      -1.047  11.705  20.573  0.00  0.00    +0.000 C 
ATOM      2  C   UNL     1      -1.477  11.146  19.252  0.00  0.00    +0.000 A 
ATOM      3  C   UNL     1      -0.738  10.277  18.451  0.00  0.00    +0.000 A 
ATOM      4  N   UNL     1      -1.417  10.114  17.270  0.00  0.00    +0.000 N 
ATOM      5  C   UNL     1      -2.616  10.771  17.336  0.00  0.00    +0.000 A 
ATOM      6  N   UNL     1      -3.514  10.800  16.335  0.00  0.00    +0.000 NA
ATOM      7  C   UNL     1      -4.619  11.502  16.657  0.00  0.00    +0.000 A 
ATOM      8  C   UNL     1      -4.872  12.089  17.891  0.00  0.00    +0.000 A 
ATOM      9  C   UNL     1      -3.920  12.011  18.928  0.00  0.00    +0.000 A 
ATOM     10  C   UNL     1      -2.719  11.361  18.593  0.00  0.00    +0.000 A 
ATOM     11  C   UNL     1      -4.130  12.639  20.253  0.00  0.00    +0.000 A 
ATOM     12  C   UNL     1      -5.412  12.746  20.806  0.00  0.00    +0.000 A 
ATOM     13  C   UNL     1      -5.647  13.556  21.916  0.00  0.00    +0.000 A 
ATOM     14  F   UNL     1      -6.833  13.517  22.528  0.00  0.00    +0.000 F 
ATOM     15  C   UNL     1      -4.663  14.399  22.397  0.00  0.00    +0.000 A 
ATOM     16  C   UNL     1      -3.378  14.241  21.906  0.00  0.00    +0.000 A 
ATOM     17  C   UNL     1      -3.092  13.159  21.050  0.00  0.00    +0.000 A 
ATOM     18  N   UNL     1      -2.009  12.365  21.448  0.00  0.00    +0.000 N 
ATOM     19  C   UNL     1      -2.031  11.992  22.866  0.00  0.00    +0.000 C 
ATOM     20  H   UNL     1      -1.118   9.573  16.472  0.00  0.00    +0.000 HD
ENDROOT
BRANCH   3  21
ATOM     21  C   UNL     1       0.452   9.557  18.691  0.00  0.00    +0.000 C 
ATOM     22  C   UNL     1       0.673   9.084  19.940  0.00  0.00    +0.000 C 
ATOM     23  C   UNL     1       1.759   8.117  20.290  0.00  0.00    +0.000 C 
ATOM     24  N   UNL     1       2.424   7.511  19.131  0.00  0.00    +0.000 NA
ATOM     25  C   UNL     1       2.695   8.525  18.108  0.00  0.00    +0.000 C 
ATOM     26  C   UNL     1       1.393   9.147  17.584  0.00  0.00    +0.000 C 
ATOM     27  H   UNL     1       1.800   6.806  18.737  0.00  0.00    +0.000 HD
ENDBRANCH   3  21
BRANCH   1  29
ATOM     28  C   UNL     1       0.021  13.691  19.325  0.00  0.00    +0.000 C 
ATOM     29  C   UNL     1       0.157  12.670  20.447  0.00  0.00    +0.000 C 
ENDBRANCH   1  29
TORSDOF 2
ENDMDL
MODEL 6
REMARK VINA RESULT:      -6.6      2.406      3.996
REMARK  Name = 
REMARK  4 active torsions:
REMARK  status: ('A' for Active; 'I' for Inactive)
REMARK    1  A    between atoms: C_1  and  C_2
REMARK    2  A    between atoms: C_2  and  C_3
REMARK    3  A    between atoms: C_5  and  C_6
REMARK    4  A    between atoms: N_26  and  C_27
REMARK                            x       y       z     vdW  Elec       q    Type
REMARK                         _______ _______ _______ _____ _____    ______ ____
ROOT
ATOM      1  C   UNL     1      -3.005  13.122  21.860  0.00  0.00    +0.000 C 
ATOM      2  C   UNL     1      -4.003  12.726  20.816  0.00  0.00    +0.000 A 
ATOM      3  C   UNL     1      -5.389  12.800  20.939  0.00  0.00    +0.000 A 
ATOM      4  N   UNL     1      -5.941  12.216  19.826  0.00  0.00    +0.000 N 
ATOM      5  C   UNL     1      -4.947  11.868  18.951  0.00  0.00    +0.000 A 
ATOM      6  N   UNL     1      -5.166  11.276  17.763  0.00  0.00    +0.000 NA
ATOM      7  C   UNL     1      -4.022  11.051  17.084  0.00  0.00    +0.000 A 
ATOM      8  C   UNL     1      -2.751  11.429  17.497  0.00  0.00    +0.000 A 
ATOM      9  C   UNL     1      -2.564  12.076  18.735  0.00  0.00    +0.000 A 
ATOM     10  C   UNL     1      -3.728  12.245  19.506  0.00  0.00    +0.000 A 
ATOM     11  C   UNL     1      -1.227  12.479  19.232  0.00  0.00    +0.000 A 
ATOM     12  C   UNL     1      -0.216  12.869  18.346  0.00  0.00    +0.000 A 
ATOM     13  C   UNL     1       1.103  12.996  18.778  0.00  0.00    +0.000 A 
ATOM     14  F   UNL     1       2.021  13.527  17.965  0.00  0.00    +0.000 F 
ATOM     15  C   UNL     1       1.475  12.585  20.044  0.00  0.00    +0.000 A 
ATOM     16  C   UNL     1       0.472  12.273  20.945  0.00  0.00    +0.000 A 
ATOM     17  C   UNL     1      -0.872  12.511  20.593  0.00  0.00    +0.000 A 
ATOM     18  N   UNL     1      -1.594  13.274  21.519  0.00  0.00    +0.000 N 
ATOM     19  C   UNL     1      -0.893  14.477  21.979  0.00  0.00    +0.000 C 
ATOM     20  H   UNL     1      -6.924  12.082  19.641  0.00  0.00    +0.000 HD
ENDROOT
BRANCH   3  21
ATOM     21  C   UNL     1      -6.218  13.395  21.914  0.00  0.00    +0.000 C 
ATOM     22  C   UNL     1      -6.939  12.582  22.722  0.00  0.00    +0.000 C 
ATOM     23  C   UNL     1      -7.673  13.048  23.940  0.00  0.00    +0.000 C 
ATOM     24  N   UNL     1      -7.353  14.420  24.348  0.00  0.00    +0.000 NA
ATOM     25  C   UNL     1      -7.305  15.304  23.181  0.00  0.00    +0.000 C 
ATOM     26  C   UNL     1      -6.201  14.875  22.204  0.00  0.00    +0.000 C 
ATOM     27  H   UNL     1      -6.436  14.415  24.794  0.00  0.00    +0.000 HD
ENDBRANCH   3  21
BRANCH   1  29
ATOM     28  C   UNL     1      -3.628  12.873  24.349  0.00  0.00    +0.000 C 
ATOM     29  C   UNL     1      -3.053  12.204  23.107  0.00  0.00    +0.000 C 
ENDBRANCH   1  29
TORSDOF 2
ENDMDL
MODEL 7
REMARK VINA RESULT:      -6.6      0.969      1.108
REMARK  Name = 
REMARK  4 active torsions:
REMARK  status: ('A' for Active; 'I' for Inactive)
REMARK    1  A    between atoms: C_1  and  C_2
REMARK    2  A    between atoms: C_2  and  C_3
REMARK    3  A    between atoms: C_5  and  C_6
REMARK    4  A    between atoms: N_26  and  C_27
REMARK                            x       y       z     vdW  Elec       q    Type
REMARK                         _______ _______ _______ _____ _____    ______ ____
ROOT
ATOM      1  C   UNL     1      -1.568  12.963  20.565  0.00  0.00    +0.000 C 
ATOM      2  C   UNL     1      -2.916  13.266  21.143  0.00  0.00    +0.000 A 
ATOM      3  C   UNL     1      -3.169  14.083  22.243  0.00  0.00    +0.000 A 
ATOM      4  N   UNL     1      -4.507  13.990  22.536  0.00  0.00    +0.000 N 
ATOM      5  C   UNL     1      -5.130  13.221  21.591  0.00  0.00    +0.000 A 
ATOM      6  N   UNL     1      -6.446  12.943  21.598  0.00  0.00    +0.000 NA
ATOM      7  C   UNL     1      -6.814  12.178  20.549  0.00  0.00    +0.000 A 
ATOM      8  C   UNL     1      -5.976  11.757  19.524  0.00  0.00    +0.000 A 
ATOM      9  C   UNL     1      -4.608  12.095  19.534  0.00  0.00    +0.000 A 
ATOM     10  C   UNL     1      -4.177  12.817  20.661  0.00  0.00    +0.000 A 
ATOM     11  C   UNL     1      -3.668  11.653  18.478  0.00  0.00    +0.000 A 
ATOM     12  C   UNL     1      -4.095  11.487  17.155  0.00  0.00    +0.000 A 
ATOM     13  C   UNL     1      -3.296  10.832  16.221  0.00  0.00    +0.000 A 
ATOM     14  F   UNL     1      -3.644  10.829  14.932  0.00  0.00    +0.000 F 
ATOM     15  C   UNL     1      -2.138  10.186  16.612  0.00  0.00    +0.000 A 
ATOM     16  C   UNL     1      -1.672  10.410  17.897  0.00  0.00    +0.000 A 
ATOM     17  C   UNL     1      -2.306  11.377  18.703  0.00  0.00    +0.000 A 
ATOM     18  N   UNL     1      -1.448  12.337  19.252  0.00  0.00    +0.000 N 
ATOM     19  C   UNL     1      -0.501  12.913  18.291  0.00  0.00    +0.000 C 
ATOM     20  H   UNL     1      -4.988  14.436  23.304  0.00  0.00    +0.000 HD
ENDROOT
BRANCH   3  21
ATOM     21  C   UNL     1      -2.341  14.959  22.978  0.00  0.00    +0.000 C 
ATOM     22  C   UNL     1      -2.147  14.704  24.293  0.00  0.00    +0.000 C 
ATOM     23  C   UNL     1      -1.125  15.394  25.139  0.00  0.00    +0.000 C 
ATOM     24  N   UNL     1      -0.162  16.201  24.383  0.00  0.00    +0.000 NA
ATOM     25  C   UNL     1      -0.846  16.975  23.344  0.00  0.00    +0.000 C 
ATOM     26  C   UNL     1      -1.532  16.053  22.325  0.00  0.00    +0.000 C 
ATOM     27  H   UNL     1       0.504  15.570  23.937  0.00  0.00    +0.000 HD
ENDBRANCH   3  21
BRANCH   1  29
ATOM     28  C   UNL     1      -1.462  11.396  22.609  0.00  0.00    +0.000 C 
ATOM     29  C   UNL     1      -0.683  12.130  21.525  0.00  0.00    +0.000 C 
ENDBRANCH   1  29
TORSDOF 2
ENDMDL
MODEL 8
REMARK VINA RESULT:      -6.5      2.025      4.225
REMARK  Name = 
REMARK  4 active torsions:
REMARK  status: ('A' for Active; 'I' for Inactive)
REMARK    1  A    between atoms: C_1  and  C_2
REMARK    2  A    between atoms: C_2  and  C_3
REMARK    3  A    between atoms: C_5  and  C_6
REMARK    4  A    between atoms: N_26  and  C_27
REMARK                            x       y       z     vdW  Elec       q    Type
REMARK                         _______ _______ _______ _____ _____    ______ ____
ROOT
ATOM      1  C   UNL     1      -5.569  12.562  19.639  0.00  0.00    +0.000 C 
ATOM      2  C   UNL     1      -4.508  12.962  20.617  0.00  0.00    +0.000 A 
ATOM      3  C   UNL     1      -4.724  13.514  21.878  0.00  0.00    +0.000 A 
ATOM      4  N   UNL     1      -3.503  13.866  22.398  0.00  0.00    +0.000 N 
ATOM      5  C   UNL     1      -2.510  13.458  21.549  0.00  0.00    +0.000 A 
ATOM      6  N   UNL     1      -1.200  13.654  21.778  0.00  0.00    +0.000 NA
ATOM      7  C   UNL     1      -0.426  13.146  20.797  0.00  0.00    +0.000 A 
ATOM      8  C   UNL     1      -0.884  12.438  19.693  0.00  0.00    +0.000 A 
ATOM      9  C   UNL     1      -2.264  12.224  19.503  0.00  0.00    +0.000 A 
ATOM     10  C   UNL     1      -3.101  12.820  20.463  0.00  0.00    +0.000 A 
ATOM     11  C   UNL     1      -2.806  11.496  18.332  0.00  0.00    +0.000 A 
ATOM     12  C   UNL     1      -2.088  10.452  17.736  0.00  0.00    +0.000 A 
ATOM     13  C   UNL     1      -2.463   9.942  16.494  0.00  0.00    +0.000 A 
ATOM     14  F   UNL     1      -1.872   8.842  16.021  0.00  0.00    +0.000 F 
ATOM     15  C   UNL     1      -3.448  10.559  15.746  0.00  0.00    +0.000 A 
ATOM     16  C   UNL     1      -4.210  11.539  16.360  0.00  0.00    +0.000 A 
ATOM     17  C   UNL     1      -4.051  11.776  17.740  0.00  0.00    +0.000 A 
ATOM     18  N   UNL     1      -5.238  11.736  18.482  0.00  0.00    +0.000 N 
ATOM     19  C   UNL     1      -6.090  10.580  18.186  0.00  0.00    +0.000 C 
ATOM     20  H   UNL     1      -3.334  14.324  23.281  0.00  0.00    +0.000 HD
ENDROOT
BRANCH   3  21
ATOM     21  C   UNL     1      -5.897  13.678  22.647  0.00  0.00    +0.000 C 
ATOM     22  C   UNL     1      -6.671  12.590  22.871  0.00  0.00    +0.000 C 
ATOM     23  C   UNL     1      -7.804  12.555  23.848  0.00  0.00    +0.000 C 
ATOM     24  N   UNL     1      -7.865  13.716  24.742  0.00  0.00    +0.000 NA
ATOM     25  C   UNL     1      -7.627  14.953  23.993  0.00  0.00    +0.000 C 
ATOM     26  C   UNL     1      -6.225  14.962  23.368  0.00  0.00    +0.000 C 
ATOM     27  H   UNL     1      -7.136  13.615  25.448  0.00  0.00    +0.000 HD
ENDBRANCH   3  21
BRANCH   1  29
ATOM     28  C   UNL     1      -7.844  13.757  19.445  0.00  0.00    +0.000 C 
ATOM     29  C   UNL     1      -6.362  13.775  19.093  0.00  0.00    +0.000 C 
ENDBRANCH   1  29
TORSDOF 2
ENDMDL
MODEL 9
REMARK VINA RESULT:      -6.5      0.919      1.357
REMARK  Name = 
REMARK  4 active torsions:
REMARK  status: ('A' for Active; 'I' for Inactive)
REMARK    1  A    between atoms: C_1  and  C_2
REMARK    2  A    between atoms: C_2  and  C_3
REMARK    3  A    between atoms: C_5  and  C_6
REMARK    4  A    between atoms: N_26  and  C_27
REMARK                            x       y       z     vdW  Elec       q    Type
REMARK                         _______ _______ _______ _____ _____    ______ ____
ROOT
ATOM      1  C   UNL     1      -1.693  13.032  20.525  0.00  0.00    +0.000 C 
ATOM      2  C   UNL     1      -3.049  13.312  21.095  0.00  0.00    +0.000 A 
ATOM      3  C   UNL     1      -3.325  14.142  22.180  0.00  0.00    +0.000 A 
ATOM      4  N   UNL     1      -4.661  14.021  22.472  0.00  0.00    +0.000 N 
ATOM      5  C   UNL     1      -5.263  13.221  21.540  0.00  0.00    +0.000 A 
ATOM      6  N   UNL     1      -6.571  12.910  21.549  0.00  0.00    +0.000 NA
ATOM      7  C   UNL     1      -6.918  12.118  20.513  0.00  0.00    +0.000 A 
ATOM      8  C   UNL     1      -6.068  11.700  19.497  0.00  0.00    +0.000 A 
ATOM      9  C   UNL     1      -4.709  12.072  19.504  0.00  0.00    +0.000 A 
ATOM     10  C   UNL     1      -4.297  12.824  20.619  0.00  0.00    +0.000 A 
ATOM     11  C   UNL     1      -3.755  11.634  18.458  0.00  0.00    +0.000 A 
ATOM     12  C   UNL     1      -4.176  11.435  17.137  0.00  0.00    +0.000 A 
ATOM     13  C   UNL     1      -3.358  10.782  16.216  0.00  0.00    +0.000 A 
ATOM     14  F   UNL     1      -3.703  10.749  14.927  0.00  0.00    +0.000 F 
ATOM     15  C   UNL     1      -2.185  10.172  16.621  0.00  0.00    +0.000 A 
ATOM     16  C   UNL     1      -1.728  10.431  17.902  0.00  0.00    +0.000 A 
ATOM     17  C   UNL     1      -2.388  11.396  18.690  0.00  0.00    +0.000 A 
ATOM     18  N   UNL     1      -1.554  12.386  19.224  0.00  0.00    +0.000 N 
ATOM     19  C   UNL     1      -0.620  12.969  18.254  0.00  0.00    +0.000 C 
ATOM     20  H   UNL     1      -5.155  14.469  23.231  0.00  0.00    +0.000 HD
ENDROOT
BRANCH   3  21
ATOM     21  C   UNL     1      -2.520  15.051  22.900  0.00  0.00    +0.000 C 
ATOM     22  C   UNL     1      -2.350  16.295  22.394  0.00  0.00    +0.000 C 
ATOM     23  C   UNL     1      -1.727  17.428  23.146  0.00  0.00    +0.000 C 
ATOM     24  N   UNL     1      -1.535  17.168  24.577  0.00  0.00    +0.000 NA
ATOM     25  C   UNL     1      -1.007  15.817  24.786  0.00  0.00    +0.000 C 
ATOM     26  C   UNL     1      -1.991  14.752  24.282  0.00  0.00    +0.000 C 
ATOM     27  H   UNL     1      -2.441  17.241  25.040  0.00  0.00    +0.000 HD
ENDBRANCH   3  21
BRANCH   1  29
ATOM     28  C   UNL     1      -1.557  11.435  22.544  0.00  0.00    +0.000 C 
ATOM     29  C   UNL     1      -0.790  12.239  21.501  0.00  0.00    +0.000 C 
ENDBRANCH   1  29
TORSDOF 2
ENDMDL
