MODEL 1
REMARK VINA RESULT:      -7.7      0.000      0.000
REMARK  Name = 
REMARK  3 active torsions:
REMARK  status: ('A' for Active; 'I' for Inactive)
REMARK    1  A    between atoms: C_2  and  C_3
REMARK    2  A    between atoms: C_3  and  C_4
REMARK    3  A    between atoms: C_8  and  C_10
REMARK                            x       y       z     vdW  Elec       q    Type
REMARK                         _______ _______ _______ _____ _____    ______ ____
ROOT
ATOM      1  C   UNL     1       2.132   4.894  19.350  0.00  0.00    +0.000 C 
ATOM      2  C   UNL     1       2.167   5.563  17.959  0.00  0.00    +0.000 C 
ATOM      3  C   UNL     1       2.846   6.933  17.975  0.00  0.00    +0.000 C 
ATOM      4  N   UNL     1       2.246   7.799  18.991  0.00  0.00    +0.000 N 
ATOM      5  C   UNL     1       1.660   8.990  18.590  0.00  0.00    +0.000 C 
ATOM      6  O   UNL     1       1.683   9.334  17.398  0.00  0.00    +0.000 OA
ATOM      7  C   UNL     1       2.268   7.229  20.341  0.00  0.00    +0.000 C 
ATOM      8  C   UNL     1       1.542   5.883  20.370  0.00  0.00    +0.000 C 
ENDROOT
BRANCH   5   9
ATOM      9  C   UNL     1       1.012   9.947  19.577  0.00  0.00    +0.000 C 
ATOM     10  C   UNL     1      -0.476   9.688  19.813  0.00  0.00    +0.000 C 
ATOM     11  O   UNL     1      -1.189  10.952  19.872  0.00  0.00    +0.000 OA
ATOM     12  C   UNL     1      -0.289  11.884  19.425  0.00  0.00    +0.000 A 
ATOM     13  C   UNL     1      -0.611  13.199  19.163  0.00  0.00    +0.000 A 
ATOM     14  C   UNL     1       0.393  14.030  18.663  0.00  0.00    +0.000 A 
ATOM     15  C   UNL     1       1.692  13.536  18.456  0.00  0.00    +0.000 A 
ATOM     16  C   UNL     1       2.001  12.206  18.741  0.00  0.00    +0.000 A 
ATOM     17  C   UNL     1       0.988  11.386  19.210  0.00  0.00    +0.000 A 
ENDBRANCH   5   9
BRANCH   1  18
ATOM     18  C   UNL     1       3.518   4.399  19.813  0.00  0.00    +0.000 C 
BRANCH  18  20
ATOM     19  O   UNL     1       4.030   2.857  18.040  0.00  0.00    +0.000 OA
ATOM     20  C   UNL     1       4.355   3.866  18.663  0.00  0.00    +0.000 C 
ATOM     21  N   UNL     1       5.493   4.581  18.364  0.00  0.00    +0.000 N 
ATOM     22  C   UNL     1       6.310   4.252  17.213  0.00  0.00    +0.000 C 
ATOM     23  C   UNL     1       7.719   4.572  17.676  0.00  0.00    +0.000 C 
ATOM     24  C   UNL     1       7.516   5.790  18.570  0.00  0.00    +0.000 C 
ATOM     25  C   UNL     1       6.161   5.544  19.226  0.00  0.00    +0.000 C 
ENDBRANCH  18  20
ENDBRANCH   1  18
TORSDOF 3
ENDMDL
MODEL 2
REMARK VINA RESULT:      -7.6      2.164      8.351
REMARK  Name = 
REMARK  3 active torsions:
REMARK  status: ('A' for Active; 'I' for Inactive)
REMARK    1  A    between atoms: C_2  and  C_3
REMARK    2  A    between atoms: C_3  and  C_4
REMARK    3  A    between atoms: C_8  and  C_10
REMARK                            x       y       z     vdW  Elec       q    Type
REMARK                         _______ _______ _______ _____ _____    ______ ____
ROOT
ATOM      1  C   UNL     1       0.992   9.927  20.473  0.00  0.00    +0.000 C 
ATOM      2  C   UNL     1       1.721  10.000  19.115  0.00  0.00    +0.000 C 
ATOM      3  C   UNL     1       1.636   8.694  18.323  0.00  0.00    +0.000 C 
ATOM      4  N   UNL     1       2.088   7.563  19.136  0.00  0.00    +0.000 N 
ATOM      5  C   UNL     1       3.172   6.819  18.696  0.00  0.00    +0.000 C 
ATOM      6  O   UNL     1       3.719   7.080  17.614  0.00  0.00    +0.000 OA
ATOM      7  C   UNL     1       1.361   7.415  20.399  0.00  0.00    +0.000 C 
ATOM      8  C   UNL     1       1.479   8.687  21.241  0.00  0.00    +0.000 C 
ENDROOT
BRANCH   5   9
ATOM      9  C   UNL     1       3.710   5.631  19.477  0.00  0.00    +0.000 C 
ATOM     10  C   UNL     1       5.177   5.309  19.193  0.00  0.00    +0.000 C 
ATOM     11  O   UNL     1       5.352   3.870  19.100  0.00  0.00    +0.000 OA
ATOM     12  C   UNL     1       4.079   3.364  19.039  0.00  0.00    +0.000 A 
ATOM     13  C   UNL     1       3.789   2.042  18.775  0.00  0.00    +0.000 A 
ATOM     14  C   UNL     1       2.446   1.672  18.692  0.00  0.00    +0.000 A 
ATOM     15  C   UNL     1       1.430   2.621  18.891  0.00  0.00    +0.000 A 
ATOM     16  C   UNL     1       1.744   3.952  19.171  0.00  0.00    +0.000 A 
ATOM     17  C   UNL     1       3.081   4.310  19.222  0.00  0.00    +0.000 A 
ENDBRANCH   5   9
BRANCH   1  18
ATOM     18  C   UNL     1      -0.544   9.908  20.329  0.00  0.00    +0.000 C 
BRANCH  18  20
ATOM     19  O   UNL     1      -0.952  12.259  20.029  0.00  0.00    +0.000 OA
ATOM     20  C   UNL     1      -1.070  11.121  19.580  0.00  0.00    +0.000 C 
ATOM     21  N   UNL     1      -1.681  10.865  18.373  0.00  0.00    +0.000 N 
ATOM     22  C   UNL     1      -2.112  11.940  17.503  0.00  0.00    +0.000 C 
ATOM     23  C   UNL     1      -3.366  11.387  16.851  0.00  0.00    +0.000 C 
ATOM     24  C   UNL     1      -3.044   9.906  16.694  0.00  0.00    +0.000 C 
ATOM     25  C   UNL     1      -2.192   9.581  17.917  0.00  0.00    +0.000 C 
ENDBRANCH  18  20
ENDBRANCH   1  18
TORSDOF 3
ENDMDL
MODEL 3
REMARK VINA RESULT:      -7.5      2.333      8.732
REMARK  Name = 
REMARK  3 active torsions:
REMARK  status: ('A' for Active; 'I' for Inactive)
REMARK    1  A    between atoms: C_2  and  C_3
REMARK    2  A    between atoms: C_3  and  C_4
REMARK    3  A    between atoms: C_8  and  C_10
REMARK                            x       y       z     vdW  Elec       q    Type
REMARK                         _______ _______ _______ _____ _____    ______ ____
ROOT
ATOM      1  C   UNL     1       1.123  10.153  19.401  0.00  0.00    +0.000 C 
ATOM      2  C   UNL     1       2.049  10.064  18.169  0.00  0.00    +0.000 C 
ATOM      3  C   UNL     1       2.030   8.685  17.509  0.00  0.00    +0.000 C 
ATOM      4  N   UNL     1       2.311   7.635  18.490  0.00  0.00    +0.000 N 
ATOM      5  C   UNL     1       3.419   6.823  18.298  0.00  0.00    +0.000 C 
ATOM      6  O   UNL     1       4.131   6.955  17.291  0.00  0.00    +0.000 OA
ATOM      7  C   UNL     1       1.399   7.639  19.637  0.00  0.00    +0.000 C 
ATOM      8  C   UNL     1       1.441   8.989  20.355  0.00  0.00    +0.000 C 
ENDROOT
BRANCH   5   9
ATOM      9  C   UNL     1       3.787   5.712  19.268  0.00  0.00    +0.000 C 
ATOM     10  C   UNL     1       5.256   5.294  19.209  0.00  0.00    +0.000 C 
ATOM     11  O   UNL     1       5.356   3.848  19.298  0.00  0.00    +0.000 OA
ATOM     12  C   UNL     1       4.073   3.395  19.132  0.00  0.00    +0.000 A 
ATOM     13  C   UNL     1       3.740   2.066  18.981  0.00  0.00    +0.000 A 
ATOM     14  C   UNL     1       2.397   1.749  18.769  0.00  0.00    +0.000 A 
ATOM     15  C   UNL     1       1.422   2.759  18.731  0.00  0.00    +0.000 A 
ATOM     16  C   UNL     1       1.777   4.098  18.900  0.00  0.00    +0.000 A 
ATOM     17  C   UNL     1       3.117   4.400  19.082  0.00  0.00    +0.000 A 
ENDBRANCH   5   9
BRANCH   1  18
ATOM     18  C   UNL     1      -0.374  10.155  19.028  0.00  0.00    +0.000 C 
BRANCH  18  20
ATOM     19  O   UNL     1      -0.800  11.529  20.956  0.00  0.00    +0.000 OA
ATOM     20  C   UNL     1      -1.172  11.158  19.844  0.00  0.00    +0.000 C 
ATOM     21  N   UNL     1      -2.330  11.624  19.263  0.00  0.00    +0.000 N 
ATOM     22  C   UNL     1      -3.114  12.674  19.879  0.00  0.00    +0.000 C 
ATOM     23  C   UNL     1      -4.542  12.310  19.516  0.00  0.00    +0.000 C 
ATOM     24  C   UNL     1      -4.398  11.720  18.118  0.00  0.00    +0.000 C 
ATOM     25  C   UNL     1      -3.046  11.014  18.153  0.00  0.00    +0.000 C 
ENDBRANCH  18  20
ENDBRANCH   1  18
TORSDOF 3
ENDMDL
MODEL 4
REMARK VINA RESULT:      -7.5      2.115      8.388
REMARK  Name = 
REMARK  3 active torsions:
REMARK  status: ('A' for Active; 'I' for Inactive)
REMARK    1  A    between atoms: C_2  and  C_3
REMARK    2  A    between atoms: C_3  and  C_4
REMARK    3  A    between atoms: C_8  and  C_10
REMARK                            x       y       z     vdW  Elec       q    Type
REMARK                         _______ _______ _______ _____ _____    ______ ____
ROOT
ATOM      1  C   UNL     1       0.308  10.212  19.646  0.00  0.00    +0.000 C 
ATOM      2  C   UNL     1       0.425   9.143  20.754  0.00  0.00    +0.000 C 
ATOM      3  C   UNL     1       1.760   8.399  20.724  0.00  0.00    +0.000 C 
ATOM      4  N   UNL     1       2.018   7.847  19.392  0.00  0.00    +0.000 N 
ATOM      5  C   UNL     1       2.168   6.475  19.257  0.00  0.00    +0.000 C 
ATOM      6  O   UNL     1       2.130   5.735  20.253  0.00  0.00    +0.000 OA
ATOM      7  C   UNL     1       1.994   8.848  18.323  0.00  0.00    +0.000 C 
ATOM      8  C   UNL     1       0.646   9.570  18.290  0.00  0.00    +0.000 C 
ENDROOT
BRANCH   5   9
ATOM      9  C   UNL     1       2.435   5.817  17.913  0.00  0.00    +0.000 C 
ATOM     10  C   UNL     1       1.987   4.357  17.833  0.00  0.00    +0.000 C 
ATOM     11  O   UNL     1       2.988   3.578  17.125  0.00  0.00    +0.000 OA
ATOM     12  C   UNL     1       4.078   4.405  17.034  0.00  0.00    +0.000 A 
ATOM     13  C   UNL     1       5.315   3.999  16.579  0.00  0.00    +0.000 A 
ATOM     14  C   UNL     1       6.352   4.933  16.586  0.00  0.00    +0.000 A 
ATOM     15  C   UNL     1       6.127   6.247  17.028  0.00  0.00    +0.000 A 
ATOM     16  C   UNL     1       4.864   6.642  17.472  0.00  0.00    +0.000 A 
ATOM     17  C   UNL     1       3.851   5.697  17.486  0.00  0.00    +0.000 A 
ENDBRANCH   5   9
BRANCH   1  18
ATOM     18  C   UNL     1       1.202  11.442  19.902  0.00  0.00    +0.000 C 
BRANCH  18  20
ATOM     19  O   UNL     1       0.180  12.198  21.945  0.00  0.00    +0.000 OA
ATOM     20  C   UNL     1       0.530  12.470  20.797  0.00  0.00    +0.000 C 
ATOM     21  N   UNL     1       0.339  13.717  20.245  0.00  0.00    +0.000 N 
ATOM     22  C   UNL     1      -0.175  14.819  21.032  0.00  0.00    +0.000 C 
ATOM     23  C   UNL     1      -1.001  15.611  20.036  0.00  0.00    +0.000 C 
ATOM     24  C   UNL     1      -0.213  15.456  18.741  0.00  0.00    +0.000 C 
ATOM     25  C   UNL     1       0.372  14.050  18.829  0.00  0.00    +0.000 C 
ENDBRANCH  18  20
ENDBRANCH   1  18
TORSDOF 3
ENDMDL
MODEL 5
REMARK VINA RESULT:      -7.4      2.217      8.607
REMARK  Name = 
REMARK  3 active torsions:
REMARK  status: ('A' for Active; 'I' for Inactive)
REMARK    1  A    between atoms: C_2  and  C_3
REMARK    2  A    between atoms: C_3  and  C_4
REMARK    3  A    between atoms: C_8  and  C_10
REMARK                            x       y       z     vdW  Elec       q    Type
REMARK                         _______ _______ _______ _____ _____    ______ ____
ROOT
ATOM      1  C   UNL     1       1.038  10.122  19.811  0.00  0.00    +0.000 C 
ATOM      2  C   UNL     1       1.848  10.070  18.498  0.00  0.00    +0.000 C 
ATOM      3  C   UNL     1       1.783   8.706  17.812  0.00  0.00    +0.000 C 
ATOM      4  N   UNL     1       2.162   7.638  18.740  0.00  0.00    +0.000 N 
ATOM      5  C   UNL     1       3.255   6.843  18.430  0.00  0.00    +0.000 C 
ATOM      6  O   UNL     1       3.871   7.005  17.365  0.00  0.00    +0.000 OA
ATOM      7  C   UNL     1       1.359   7.607  19.965  0.00  0.00    +0.000 C 
ATOM      8  C   UNL     1       1.452   8.942  20.706  0.00  0.00    +0.000 C 
ENDROOT
BRANCH   5   9
ATOM      9  C   UNL     1       3.721   5.716  19.337  0.00  0.00    +0.000 C 
ATOM     10  C   UNL     1       5.198   5.356  19.178  0.00  0.00    +0.000 C 
ATOM     11  O   UNL     1       5.355   3.912  19.210  0.00  0.00    +0.000 OA
ATOM     12  C   UNL     1       4.081   3.417  19.104  0.00  0.00    +0.000 A 
ATOM     13  C   UNL     1       3.788   2.082  18.926  0.00  0.00    +0.000 A 
ATOM     14  C   UNL     1       2.447   1.721  18.782  0.00  0.00    +0.000 A 
ATOM     15  C   UNL     1       1.436   2.694  18.837  0.00  0.00    +0.000 A 
ATOM     16  C   UNL     1       1.752   4.039  19.032  0.00  0.00    +0.000 A 
ATOM     17  C   UNL     1       3.089   4.386  19.144  0.00  0.00    +0.000 A 
ENDBRANCH   5   9
BRANCH   1  18
ATOM     18  C   UNL     1      -0.487  10.115  19.576  0.00  0.00    +0.000 C 
BRANCH  18  20
ATOM     19  O   UNL     1      -1.140  12.183  18.534  0.00  0.00    +0.000 OA
ATOM     20  C   UNL     1      -1.077  11.515  19.565  0.00  0.00    +0.000 C 
ATOM     21  N   UNL     1      -1.534  11.986  20.776  0.00  0.00    +0.000 N 
ATOM     22  C   UNL     1      -2.231  13.252  20.878  0.00  0.00    +0.000 C 
ATOM     23  C   UNL     1      -1.802  13.784  22.233  0.00  0.00    +0.000 C 
ATOM     24  C   UNL     1      -1.688  12.519  23.075  0.00  0.00    +0.000 C 
ATOM     25  C   UNL     1      -1.196  11.462  22.091  0.00  0.00    +0.000 C 
ENDBRANCH  18  20
ENDBRANCH   1  18
TORSDOF 3
ENDMDL
MODEL 6
REMARK VINA RESULT:      -7.4      2.262      8.407
REMARK  Name = 
REMARK  3 active torsions:
REMARK  status: ('A' for Active; 'I' for Inactive)
REMARK    1  A    between atoms: C_2  and  C_3
REMARK    2  A    between atoms: C_3  and  C_4
REMARK    3  A    between atoms: C_8  and  C_10
REMARK                            x       y       z     vdW  Elec       q    Type
REMARK                         _______ _______ _______ _____ _____    ______ ____
ROOT
ATOM      1  C   UNL     1       0.232  10.013  19.449  0.00  0.00    +0.000 C 
ATOM      2  C   UNL     1       0.435   8.972  20.570  0.00  0.00    +0.000 C 
ATOM      3  C   UNL     1       1.830   8.345  20.555  0.00  0.00    +0.000 C 
ATOM      4  N   UNL     1       2.141   7.802  19.231  0.00  0.00    +0.000 N 
ATOM      5  C   UNL     1       2.410   6.446  19.114  0.00  0.00    +0.000 C 
ATOM      6  O   UNL     1       2.430   5.718  20.118  0.00  0.00    +0.000 OA
ATOM      7  C   UNL     1       2.037   8.785  18.149  0.00  0.00    +0.000 C 
ATOM      8  C   UNL     1       0.631   9.387  18.102  0.00  0.00    +0.000 C 
ENDROOT
BRANCH   5   9
ATOM      9  C   UNL     1       2.739   5.798  17.779  0.00  0.00    +0.000 C 
ATOM     10  C   UNL     1       2.376   4.315  17.699  0.00  0.00    +0.000 C 
ATOM     11  O   UNL     1       3.433   3.590  17.015  0.00  0.00    +0.000 OA
ATOM     12  C   UNL     1       4.476   4.476  16.940  0.00  0.00    +0.000 A 
ATOM     13  C   UNL     1       5.742   4.139  16.511  0.00  0.00    +0.000 A 
ATOM     14  C   UNL     1       6.725   5.130  16.532  0.00  0.00    +0.000 A 
ATOM     15  C   UNL     1       6.417   6.432  16.962  0.00  0.00    +0.000 A 
ATOM     16  C   UNL     1       5.126   6.757  17.379  0.00  0.00    +0.000 A 
ATOM     17  C   UNL     1       4.168   5.756  17.379  0.00  0.00    +0.000 A 
ENDBRANCH   5   9
BRANCH   1  18
ATOM     18  C   UNL     1       1.016  11.319  19.694  0.00  0.00    +0.000 C 
BRANCH  18  20
ATOM     19  O   UNL     1       0.091  13.194  18.504  0.00  0.00    +0.000 OA
ATOM     20  C   UNL     1       0.142  12.554  19.553  0.00  0.00    +0.000 C 
ATOM     21  N   UNL     1      -0.586  12.907  20.667  0.00  0.00    +0.000 N 
ATOM     22  C   UNL     1      -1.552  13.986  20.625  0.00  0.00    +0.000 C 
ATOM     23  C   UNL     1      -1.462  14.595  22.013  0.00  0.00    +0.000 C 
ATOM     24  C   UNL     1      -1.203  13.383  22.900  0.00  0.00    +0.000 C 
ATOM     25  C   UNL     1      -0.346  12.466  22.032  0.00  0.00    +0.000 C 
ENDBRANCH  18  20
ENDBRANCH   1  18
TORSDOF 3
ENDMDL
MODEL 7
REMARK VINA RESULT:      -7.4      1.982      8.146
REMARK  Name = 
REMARK  3 active torsions:
REMARK  status: ('A' for Active; 'I' for Inactive)
REMARK    1  A    between atoms: C_2  and  C_3
REMARK    2  A    between atoms: C_3  and  C_4
REMARK    3  A    between atoms: C_8  and  C_10
REMARK                            x       y       z     vdW  Elec       q    Type
REMARK                         _______ _______ _______ _____ _____    ______ ____
ROOT
ATOM      1  C   UNL     1       0.276  10.069  19.549  0.00  0.00    +0.000 C 
ATOM      2  C   UNL     1       0.420   9.019  20.671  0.00  0.00    +0.000 C 
ATOM      3  C   UNL     1       1.779   8.317  20.658  0.00  0.00    +0.000 C 
ATOM      4  N   UNL     1       2.062   7.757  19.334  0.00  0.00    +0.000 N 
ATOM      5  C   UNL     1       2.257   6.389  19.217  0.00  0.00    +0.000 C 
ATOM      6  O   UNL     1       2.236   5.661  20.222  0.00  0.00    +0.000 OA
ATOM      7  C   UNL     1       2.014   8.744  18.253  0.00  0.00    +0.000 C 
ATOM      8  C   UNL     1       0.643   9.423  18.202  0.00  0.00    +0.000 C 
ENDROOT
BRANCH   5   9
ATOM      9  C   UNL     1       2.553   5.724  17.883  0.00  0.00    +0.000 C 
ATOM     10  C   UNL     1       2.164   4.247  17.822  0.00  0.00    +0.000 C 
ATOM     11  O   UNL     1       3.197   3.498  17.128  0.00  0.00    +0.000 OA
ATOM     12  C   UNL     1       4.253   4.367  17.027  0.00  0.00    +0.000 A 
ATOM     13  C   UNL     1       5.507   4.004  16.580  0.00  0.00    +0.000 A 
ATOM     14  C   UNL     1       6.506   4.979  16.576  0.00  0.00    +0.000 A 
ATOM     15  C   UNL     1       6.227   6.289  16.999  0.00  0.00    +0.000 A 
ATOM     16  C   UNL     1       4.948   6.640  17.435  0.00  0.00    +0.000 A 
ATOM     17  C   UNL     1       3.974   5.655  17.460  0.00  0.00    +0.000 A 
ENDBRANCH   5   9
BRANCH   1  18
ATOM     18  C   UNL     1       1.130  11.331  19.795  0.00  0.00    +0.000 C 
BRANCH  18  20
ATOM     19  O   UNL     1      -0.901  12.605  19.600  0.00  0.00    +0.000 OA
ATOM     20  C   UNL     1       0.329  12.612  19.634  0.00  0.00    +0.000 C 
ATOM     21  N   UNL     1       1.062  13.772  19.529  0.00  0.00    +0.000 N 
ATOM     22  C   UNL     1       0.419  15.070  19.498  0.00  0.00    +0.000 C 
ATOM     23  C   UNL     1       1.310  15.885  18.578  0.00  0.00    +0.000 C 
ATOM     24  C   UNL     1       2.703  15.353  18.895  0.00  0.00    +0.000 C 
ATOM     25  C   UNL     1       2.475  13.876  19.198  0.00  0.00    +0.000 C 
ENDBRANCH  18  20
ENDBRANCH   1  18
TORSDOF 3
ENDMDL
MODEL 8
REMARK VINA RESULT:      -7.3      2.262      8.141
REMARK  Name = 
REMARK  3 active torsions:
REMARK  status: ('A' for Active; 'I' for Inactive)
REMARK    1  A    between atoms: C_2  and  C_3
REMARK    2  A    between atoms: C_3  and  C_4
REMARK    3  A    between atoms: C_8  and  C_10
REMARK                            x       y       z     vdW  Elec       q    Type
REMARK                         _______ _______ _______ _____ _____    ______ ____
ROOT
ATOM      1  C   UNL     1       0.280  10.113  19.242  0.00  0.00    +0.000 C 
ATOM      2  C   UNL     1       0.403   9.104  20.404  0.00  0.00    +0.000 C 
ATOM      3  C   UNL     1       1.777   8.439  20.472  0.00  0.00    +0.000 C 
ATOM      4  N   UNL     1       2.131   7.844  19.181  0.00  0.00    +0.000 N 
ATOM      5  C   UNL     1       2.365   6.478  19.119  0.00  0.00    +0.000 C 
ATOM      6  O   UNL     1       2.319   5.783  20.146  0.00  0.00    +0.000 OA
ATOM      7  C   UNL     1       2.104   8.793  18.066  0.00  0.00    +0.000 C 
ATOM      8  C   UNL     1       0.721   9.433  17.935  0.00  0.00    +0.000 C 
ENDROOT
BRANCH   5   9
ATOM      9  C   UNL     1       2.735   5.778  17.822  0.00  0.00    +0.000 C 
ATOM     10  C   UNL     1       2.448   4.276  17.820  0.00  0.00    +0.000 C 
ATOM     11  O   UNL     1       3.544   3.571  17.179  0.00  0.00    +0.000 OA
ATOM     12  C   UNL     1       4.541   4.504  17.060  0.00  0.00    +0.000 A 
ATOM     13  C   UNL     1       5.825   4.209  16.653  0.00  0.00    +0.000 A 
ATOM     14  C   UNL     1       6.756   5.249  16.625  0.00  0.00    +0.000 A 
ATOM     15  C   UNL     1       6.381   6.554  16.984  0.00  0.00    +0.000 A 
ATOM     16  C   UNL     1       5.072   6.835  17.379  0.00  0.00    +0.000 A 
ATOM     17  C   UNL     1       4.166   5.787  17.430  0.00  0.00    +0.000 A 
ENDBRANCH   5   9
BRANCH   1  18
ATOM     18  C   UNL     1       1.090  11.404  19.481  0.00  0.00    +0.000 C 
BRANCH  18  20
ATOM     19  O   UNL     1      -0.902  12.440  20.343  0.00  0.00    +0.000 OA
ATOM     20  C   UNL     1       0.327  12.420  20.315  0.00  0.00    +0.000 C 
ATOM     21  N   UNL     1       1.095  13.310  21.031  0.00  0.00    +0.000 N 
ATOM     22  C   UNL     1       0.494  14.246  21.961  0.00  0.00    +0.000 C 
ATOM     23  C   UNL     1       1.381  15.472  21.852  0.00  0.00    +0.000 C 
ATOM     24  C   UNL     1       2.766  14.873  21.633  0.00  0.00    +0.000 C 
ATOM     25  C   UNL     1       2.499  13.618  20.807  0.00  0.00    +0.000 C 
ENDBRANCH  18  20
ENDBRANCH   1  18
TORSDOF 3
ENDMDL
MODEL 9
REMARK VINA RESULT:      -7.3      2.192      8.370
REMARK  Name = 
REMARK  3 active torsions:
REMARK  status: ('A' for Active; 'I' for Inactive)
REMARK    1  A    between atoms: C_2  and  C_3
REMARK    2  A    between atoms: C_3  and  C_4
REMARK    3  A    between atoms: C_8  and  C_10
REMARK                            x       y       z     vdW  Elec       q    Type
REMARK                         _______ _______ _______ _____ _____    ______ ____
ROOT
ATOM      1  C   UNL     1       0.166   9.955  19.045  0.00  0.00    +0.000 C 
ATOM      2  C   UNL     1       0.382   9.007  20.244  0.00  0.00    +0.000 C 
ATOM      3  C   UNL     1       1.803   8.448  20.312  0.00  0.00    +0.000 C 
ATOM      4  N   UNL     1       2.180   7.828  19.040  0.00  0.00    +0.000 N 
ATOM      5  C   UNL     1       2.514   6.482  19.028  0.00  0.00    +0.000 C 
ATOM      6  O   UNL     1       2.537   5.828  20.082  0.00  0.00    +0.000 OA
ATOM      7  C   UNL     1       2.064   8.726  17.888  0.00  0.00    +0.000 C 
ATOM      8  C   UNL     1       0.635   9.255  17.758  0.00  0.00    +0.000 C 
ENDROOT
BRANCH   5   9
ATOM      9  C   UNL     1       2.914   5.757  17.753  0.00  0.00    +0.000 C 
ATOM     10  C   UNL     1       2.635   4.254  17.775  0.00  0.00    +0.000 C 
ATOM     11  O   UNL     1       3.748   3.542  17.172  0.00  0.00    +0.000 OA
ATOM     12  C   UNL     1       4.742   4.479  17.054  0.00  0.00    +0.000 A 
ATOM     13  C   UNL     1       6.036   4.183  16.680  0.00  0.00    +0.000 A 
ATOM     14  C   UNL     1       6.962   5.227  16.650  0.00  0.00    +0.000 A 
ATOM     15  C   UNL     1       6.572   6.537  16.975  0.00  0.00    +0.000 A 
ATOM     16  C   UNL     1       5.255   6.818  17.337  0.00  0.00    +0.000 A 
ATOM     17  C   UNL     1       4.353   5.767  17.390  0.00  0.00    +0.000 A 
ENDBRANCH   5   9
BRANCH   1  18
ATOM     18  C   UNL     1       0.881  11.311  19.216  0.00  0.00    +0.000 C 
BRANCH  18  20
ATOM     19  O   UNL     1       1.362  11.922  21.493  0.00  0.00    +0.000 OA
ATOM     20  C   UNL     1       0.570  11.964  20.553  0.00  0.00    +0.000 C 
ATOM     21  N   UNL     1      -0.646  12.602  20.643  0.00  0.00    +0.000 N 
ATOM     22  C   UNL     1      -1.010  13.370  21.817  0.00  0.00    +0.000 C 
ATOM     23  C   UNL     1      -2.508  13.154  21.932  0.00  0.00    +0.000 C 
ATOM     24  C   UNL     1      -2.955  13.090  20.476  0.00  0.00    +0.000 C 
ATOM     25  C   UNL     1      -1.788  12.418  19.759  0.00  0.00    +0.000 C 
ENDBRANCH  18  20
ENDBRANCH   1  18
TORSDOF 3
ENDMDL
