MODEL 1
REMARK VINA RESULT:      -8.0      0.000      0.000
REMARK  Name = 
REMARK  8 active torsions:
REMARK  status: ('A' for Active; 'I' for Inactive)
REMARK    1  A    between atoms: C_1  and  C_2
REMARK    2  A    between atoms: C_2  and  O_3
REMARK    3  A    between atoms: O_3  and  C_4
REMARK    4  A    between atoms: C_7  and  N_8
REMARK    5  A    between atoms: C_9  and  C_10
REMARK    6  A    between atoms: C_13  and  S_14
REMARK    7  A    between atoms: S_14  and  N_17
REMARK    8  A    between atoms: C_21  and  C_22
REMARK                            x       y       z     vdW  Elec       q    Type
REMARK                         _______ _______ _______ _____ _____    ______ ____
ROOT
ATOM      1  C   UNL     1       4.355   4.380  18.950  0.00  0.00    +0.000 A 
ATOM      2  C   UNL     1       2.960   4.469  18.974  0.00  0.00    +0.000 A 
ATOM      3  C   UNL     1       2.296   5.636  18.590  0.00  0.00    +0.000 A 
ATOM      4  C   UNL     1       3.006   6.755  18.180  0.00  0.00    +0.000 A 
ATOM      5  C   UNL     1       4.402   6.700  18.189  0.00  0.00    +0.000 A 
ATOM      6  C   UNL     1       5.077   5.522  18.574  0.00  0.00    +0.000 A 
ENDROOT
BRANCH   4   7
ATOM      7  N   UNL     1       2.372   7.963  17.808  0.00  0.00    +0.000 N 
ATOM      8  C   UNL     1       1.743   8.848  18.663  0.00  0.00    +0.000 C 
ATOM      9  C   UNL     1       1.296  10.116  17.987  0.00  0.00    +0.000 C 
ATOM     10  O   UNL     1       1.504   8.674  19.859  0.00  0.00    +0.000 OA
ATOM     11  H   UNL     1       2.338   8.168  16.818  0.00  0.00    +0.000 HD
ENDBRANCH   4   7
BRANCH   6  12
ATOM     12  S   UNL     1       6.843   5.601  18.716  0.00  0.00    +0.000 S 
ATOM     13  O   UNL     1       7.269   6.800  18.014  0.00  0.00    +0.000 OA
ATOM     14  O   UNL     1       7.267   5.422  20.088  0.00  0.00    +0.000 OA
BRANCH  12  15
ATOM     15  N   UNL     1       7.452   4.334  17.775  0.00  0.00    +0.000 N 
ATOM     16  C   UNL     1       7.044   4.439  16.427  0.00  0.00    +0.000 A 
ATOM     17  N   UNL     1       7.778   5.074  15.545  0.00  0.00    +0.000 NA
ATOM     18  N   UNL     1       7.238   4.994  14.275  0.00  0.00    +0.000 NA
ATOM     19  C   UNL     1       6.118   4.300  14.258  0.00  0.00    +0.000 A 
ATOM     20  C   UNL     1       5.253   4.129  13.063  0.00  0.00    +0.000 C 
ATOM     21  S   UNL     1       5.691   3.620  15.778  0.00  0.00    +0.000 S 
ATOM     22  H   UNL     1       7.119   3.480  18.217  0.00  0.00    +0.000 HD
ENDBRANCH  12  15
ENDBRANCH   6  12
BRANCH   1  23
ATOM     23  O   UNL     1       5.014   3.235  19.320  0.00  0.00    +0.000 OA
BRANCH  23  25
ATOM     24  C   UNL     1       3.885   1.247  18.515  0.00  0.00    +0.000 C 
ATOM     25  C   UNL     1       4.168   2.141  19.707  0.00  0.00    +0.000 C 
ENDBRANCH  23  25
ENDBRANCH   1  23
TORSDOF 5
ENDMDL
MODEL 2
REMARK VINA RESULT:      -7.4      3.219      6.685
REMARK  Name = 
REMARK  8 active torsions:
REMARK  status: ('A' for Active; 'I' for Inactive)
REMARK    1  A    between atoms: C_1  and  C_2
REMARK    2  A    between atoms: C_2  and  O_3
REMARK    3  A    between atoms: O_3  and  C_4
REMARK    4  A    between atoms: C_7  and  N_8
REMARK    5  A    between atoms: C_9  and  C_10
REMARK    6  A    between atoms: C_13  and  S_14
REMARK    7  A    between atoms: S_14  and  N_17
REMARK    8  A    between atoms: C_21  and  C_22
REMARK                            x       y       z     vdW  Elec       q    Type
REMARK                         _______ _______ _______ _____ _____    ______ ____
ROOT
ATOM      1  C   UNL     1       6.362   6.118  16.781  0.00  0.00    +0.000 A 
ATOM      2  C   UNL     1       7.422   5.681  15.983  0.00  0.00    +0.000 A 
ATOM      3  C   UNL     1       7.224   4.785  14.931  0.00  0.00    +0.000 A 
ATOM      4  C   UNL     1       5.960   4.287  14.650  0.00  0.00    +0.000 A 
ATOM      5  C   UNL     1       4.893   4.678  15.463  0.00  0.00    +0.000 A 
ATOM      6  C   UNL     1       5.089   5.586  16.526  0.00  0.00    +0.000 A 
ENDROOT
BRANCH   4   7
ATOM      7  N   UNL     1       5.722   3.358  13.611  0.00  0.00    +0.000 N 
ATOM      8  C   UNL     1       6.330   3.354  12.370  0.00  0.00    +0.000 C 
ATOM      9  C   UNL     1       5.978   2.150  11.537  0.00  0.00    +0.000 C 
ATOM     10  O   UNL     1       7.069   4.224  11.908  0.00  0.00    +0.000 OA
ATOM     11  H   UNL     1       5.004   2.667  13.780  0.00  0.00    +0.000 HD
ENDBRANCH   4   7
BRANCH   6  12
ATOM     12  S   UNL     1       3.714   5.891  17.604  0.00  0.00    +0.000 S 
ATOM     13  O   UNL     1       3.419   7.311  17.520  0.00  0.00    +0.000 OA
ATOM     14  O   UNL     1       2.640   4.951  17.362  0.00  0.00    +0.000 OA
BRANCH  12  15
ATOM     15  N   UNL     1       4.291   5.682  19.181  0.00  0.00    +0.000 N 
ATOM     16  C   UNL     1       3.653   4.605  19.834  0.00  0.00    +0.000 A 
ATOM     17  N   UNL     1       4.153   3.394  19.790  0.00  0.00    +0.000 NA
ATOM     18  N   UNL     1       3.419   2.507  20.554  0.00  0.00    +0.000 NA
ATOM     19  C   UNL     1       2.395   3.091  21.142  0.00  0.00    +0.000 A 
ATOM     20  C   UNL     1       1.365   2.380  21.941  0.00  0.00    +0.000 C 
ATOM     21  S   UNL     1       2.308   4.787  20.874  0.00  0.00    +0.000 S 
ATOM     22  H   UNL     1       4.133   6.571  19.650  0.00  0.00    +0.000 HD
ENDBRANCH  12  15
ENDBRANCH   6  12
BRANCH   1  23
ATOM     23  O   UNL     1       6.547   7.003  17.813  0.00  0.00    +0.000 OA
BRANCH  23  25
ATOM     24  C   UNL     1       8.203   8.765  17.975  0.00  0.00    +0.000 C 
ATOM     25  C   UNL     1       7.917   7.285  18.137  0.00  0.00    +0.000 C 
ENDBRANCH  23  25
ENDBRANCH   1  23
TORSDOF 5
ENDMDL
MODEL 3
REMARK VINA RESULT:      -7.1      2.837      5.835
REMARK  Name = 
REMARK  8 active torsions:
REMARK  status: ('A' for Active; 'I' for Inactive)
REMARK    1  A    between atoms: C_1  and  C_2
REMARK    2  A    between atoms: C_2  and  O_3
REMARK    3  A    between atoms: O_3  and  C_4
REMARK    4  A    between atoms: C_7  and  N_8
REMARK    5  A    between atoms: C_9  and  C_10
REMARK    6  A    between atoms: C_13  and  S_14
REMARK    7  A    between atoms: S_14  and  N_17
REMARK    8  A    between atoms: C_21  and  C_22
REMARK                            x       y       z     vdW  Elec       q    Type
REMARK                         _______ _______ _______ _____ _____    ______ ____
ROOT
ATOM      1  C   UNL     1       5.096   6.330  16.707  0.00  0.00    +0.000 A 
ATOM      2  C   UNL     1       4.996   6.647  15.349  0.00  0.00    +0.000 A 
ATOM      3  C   UNL     1       5.438   5.768  14.359  0.00  0.00    +0.000 A 
ATOM      4  C   UNL     1       6.006   4.547  14.695  0.00  0.00    +0.000 A 
ATOM      5  C   UNL     1       6.154   4.229  16.048  0.00  0.00    +0.000 A 
ATOM      6  C   UNL     1       5.706   5.115  17.052  0.00  0.00    +0.000 A 
ENDROOT
BRANCH   4   7
ATOM      7  N   UNL     1       6.490   3.640  13.724  0.00  0.00    +0.000 N 
ATOM      8  C   UNL     1       5.850   3.288  12.551  0.00  0.00    +0.000 C 
ATOM      9  C   UNL     1       6.686   2.416  11.653  0.00  0.00    +0.000 C 
ATOM     10  O   UNL     1       4.703   3.588  12.217  0.00  0.00    +0.000 OA
ATOM     11  H   UNL     1       7.361   3.173  13.938  0.00  0.00    +0.000 HD
ENDBRANCH   4   7
BRANCH   6  12
ATOM     12  S   UNL     1       6.088   4.704  18.734  0.00  0.00    +0.000 S 
ATOM     13  O   UNL     1       7.534   4.589  18.822  0.00  0.00    +0.000 OA
ATOM     14  O   UNL     1       5.412   5.590  19.656  0.00  0.00    +0.000 OA
BRANCH  12  15
ATOM     15  N   UNL     1       5.534   3.123  18.974  0.00  0.00    +0.000 N 
ATOM     16  C   UNL     1       4.132   3.031  18.827  0.00  0.00    +0.000 A 
ATOM     17  N   UNL     1       3.590   2.746  17.668  0.00  0.00    +0.000 NA
ATOM     18  N   UNL     1       2.216   2.631  17.758  0.00  0.00    +0.000 NA
ATOM     19  C   UNL     1       1.783   2.834  18.986  0.00  0.00    +0.000 A 
ATOM     20  C   UNL     1       0.351   2.880  19.376  0.00  0.00    +0.000 C 
ATOM     21  S   UNL     1       3.034   3.093  20.136  0.00  0.00    +0.000 S 
ATOM     22  H   UNL     1       5.845   2.863  19.907  0.00  0.00    +0.000 HD
ENDBRANCH  12  15
ENDBRANCH   6  12
BRANCH   1  23
ATOM     23  O   UNL     1       4.657   7.186  17.685  0.00  0.00    +0.000 OA
BRANCH  23  25
ATOM     24  C   UNL     1       2.415   6.424  18.198  0.00  0.00    +0.000 C 
ATOM     25  C   UNL     1       3.266   7.535  17.613  0.00  0.00    +0.000 C 
ENDBRANCH  23  25
ENDBRANCH   1  23
TORSDOF 5
ENDMDL
MODEL 4
REMARK VINA RESULT:      -6.9      1.914      4.557
REMARK  Name = 
REMARK  8 active torsions:
REMARK  status: ('A' for Active; 'I' for Inactive)
REMARK    1  A    between atoms: C_1  and  C_2
REMARK    2  A    between atoms: C_2  and  O_3
REMARK    3  A    between atoms: O_3  and  C_4
REMARK    4  A    between atoms: C_7  and  N_8
REMARK    5  A    between atoms: C_9  and  C_10
REMARK    6  A    between atoms: C_13  and  S_14
REMARK    7  A    between atoms: S_14  and  N_17
REMARK    8  A    between atoms: C_21  and  C_22
REMARK                            x       y       z     vdW  Elec       q    Type
REMARK                         _______ _______ _______ _____ _____    ______ ____
ROOT
ATOM      1  C   UNL     1       3.641   6.803  18.186  0.00  0.00    +0.000 A 
ATOM      2  C   UNL     1       2.729   6.160  19.027  0.00  0.00    +0.000 A 
ATOM      3  C   UNL     1       3.053   4.973  19.687  0.00  0.00    +0.000 A 
ATOM      4  C   UNL     1       4.299   4.385  19.518  0.00  0.00    +0.000 A 
ATOM      5  C   UNL     1       5.210   4.989  18.649  0.00  0.00    +0.000 A 
ATOM      6  C   UNL     1       4.886   6.190  17.982  0.00  0.00    +0.000 A 
ENDROOT
BRANCH   4   7
ATOM      7  N   UNL     1       4.658   3.171  20.148  0.00  0.00    +0.000 N 
ATOM      8  C   UNL     1       4.421   1.900  19.657  0.00  0.00    +0.000 C 
ATOM      9  C   UNL     1       5.054   0.814  20.484  0.00  0.00    +0.000 C 
ATOM     10  O   UNL     1       3.743   1.605  18.672  0.00  0.00    +0.000 OA
ATOM     11  H   UNL     1       5.082   3.245  21.062  0.00  0.00    +0.000 HD
ENDBRANCH   4   7
BRANCH   6  12
ATOM     12  S   UNL     1       6.037   6.789  16.773  0.00  0.00    +0.000 S 
ATOM     13  O   UNL     1       5.296   6.966  15.535  0.00  0.00    +0.000 OA
ATOM     14  O   UNL     1       6.798   7.910  17.284  0.00  0.00    +0.000 OA
BRANCH  12  15
ATOM     15  N   UNL     1       7.090   5.507  16.443  0.00  0.00    +0.000 N 
ATOM     16  C   UNL     1       6.911   5.004  15.135  0.00  0.00    +0.000 A 
ATOM     17  N   UNL     1       7.611   5.469  14.129  0.00  0.00    +0.000 NA
ATOM     18  N   UNL     1       7.336   4.792  12.956  0.00  0.00    +0.000 NA
ATOM     19  C   UNL     1       6.439   3.844  13.132  0.00  0.00    +0.000 A 
ATOM     20  C   UNL     1       5.864   3.017  12.041  0.00  0.00    +0.000 C 
ATOM     21  S   UNL     1       5.931   3.653  14.763  0.00  0.00    +0.000 S 
ATOM     22  H   UNL     1       6.902   4.807  17.158  0.00  0.00    +0.000 HD
ENDBRANCH  12  15
ENDBRANCH   6  12
BRANCH   1  23
ATOM     23  O   UNL     1       3.331   7.973  17.540  0.00  0.00    +0.000 OA
BRANCH  23  25
ATOM     24  C   UNL     1       1.914   9.802  18.261  0.00  0.00    +0.000 C 
ATOM     25  C   UNL     1       1.968   8.404  17.676  0.00  0.00    +0.000 C 
ENDBRANCH  23  25
ENDBRANCH   1  23
TORSDOF 5
ENDMDL
MODEL 5
REMARK VINA RESULT:      -6.8      3.303      6.800
REMARK  Name = 
REMARK  8 active torsions:
REMARK  status: ('A' for Active; 'I' for Inactive)
REMARK    1  A    between atoms: C_1  and  C_2
REMARK    2  A    between atoms: C_2  and  O_3
REMARK    3  A    between atoms: O_3  and  C_4
REMARK    4  A    between atoms: C_7  and  N_8
REMARK    5  A    between atoms: C_9  and  C_10
REMARK    6  A    between atoms: C_13  and  S_14
REMARK    7  A    between atoms: S_14  and  N_17
REMARK    8  A    between atoms: C_21  and  C_22
REMARK                            x       y       z     vdW  Elec       q    Type
REMARK                         _______ _______ _______ _____ _____    ______ ____
ROOT
ATOM      1  C   UNL     1       6.398   6.209  16.361  0.00  0.00    +0.000 A 
ATOM      2  C   UNL     1       7.412   6.018  15.419  0.00  0.00    +0.000 A 
ATOM      3  C   UNL     1       7.342   5.001  14.465  0.00  0.00    +0.000 A 
ATOM      4  C   UNL     1       6.258   4.134  14.429  0.00  0.00    +0.000 A 
ATOM      5  C   UNL     1       5.254   4.282  15.389  0.00  0.00    +0.000 A 
ATOM      6  C   UNL     1       5.321   5.310  16.354  0.00  0.00    +0.000 A 
ENDROOT
BRANCH   4   7
ATOM      7  N   UNL     1       6.161   3.076  13.496  0.00  0.00    +0.000 N 
ATOM      8  C   UNL     1       5.477   3.112  12.296  0.00  0.00    +0.000 C 
ATOM      9  C   UNL     1       5.684   1.881  11.454  0.00  0.00    +0.000 C 
ATOM     10  O   UNL     1       4.727   4.005  11.901  0.00  0.00    +0.000 OA
ATOM     11  H   UNL     1       6.594   2.202  13.760  0.00  0.00    +0.000 HD
ENDBRANCH   4   7
BRANCH   6  12
ATOM     12  S   UNL     1       4.090   5.313  17.631  0.00  0.00    +0.000 S 
ATOM     13  O   UNL     1       4.798   5.256  18.899  0.00  0.00    +0.000 OA
ATOM     14  O   UNL     1       3.128   6.374  17.429  0.00  0.00    +0.000 OA
BRANCH  12  15
ATOM     15  N   UNL     1       3.301   3.819  17.533  0.00  0.00    +0.000 N 
ATOM     16  C   UNL     1       2.549   3.546  18.698  0.00  0.00    +0.000 A 
ATOM     17  N   UNL     1       1.287   3.891  18.786  0.00  0.00    +0.000 NA
ATOM     18  N   UNL     1       0.721   3.466  19.972  0.00  0.00    +0.000 NA
ATOM     19  C   UNL     1       1.584   2.817  20.727  0.00  0.00    +0.000 A 
ATOM     20  C   UNL     1       1.301   2.331  22.101  0.00  0.00    +0.000 C 
ATOM     21  S   UNL     1       3.127   2.602  20.001  0.00  0.00    +0.000 S 
ATOM     22  H   UNL     1       4.034   3.132  17.372  0.00  0.00    +0.000 HD
ENDBRANCH  12  15
ENDBRANCH   6  12
BRANCH   1  23
ATOM     23  O   UNL     1       6.457   7.209  17.298  0.00  0.00    +0.000 OA
BRANCH  23  25
ATOM     24  C   UNL     1       8.106   8.887  17.880  0.00  0.00    +0.000 C 
ATOM     25  C   UNL     1       7.748   7.414  17.892  0.00  0.00    +0.000 C 
ENDBRANCH  23  25
ENDBRANCH   1  23
TORSDOF 5
ENDMDL
MODEL 6
REMARK VINA RESULT:      -6.7      1.543      1.793
REMARK  Name = 
REMARK  8 active torsions:
REMARK  status: ('A' for Active; 'I' for Inactive)
REMARK    1  A    between atoms: C_1  and  C_2
REMARK    2  A    between atoms: C_2  and  O_3
REMARK    3  A    between atoms: O_3  and  C_4
REMARK    4  A    between atoms: C_7  and  N_8
REMARK    5  A    between atoms: C_9  and  C_10
REMARK    6  A    between atoms: C_13  and  S_14
REMARK    7  A    between atoms: S_14  and  N_17
REMARK    8  A    between atoms: C_21  and  C_22
REMARK                            x       y       z     vdW  Elec       q    Type
REMARK                         _______ _______ _______ _____ _____    ______ ____
ROOT
ATOM      1  C   UNL     1       4.256   5.690  18.801  0.00  0.00    +0.000 A 
ATOM      2  C   UNL     1       3.210   5.755  19.726  0.00  0.00    +0.000 A 
ATOM      3  C   UNL     1       2.245   6.762  19.667  0.00  0.00    +0.000 A 
ATOM      4  C   UNL     1       2.301   7.744  18.687  0.00  0.00    +0.000 A 
ATOM      5  C   UNL     1       3.362   7.720  17.780  0.00  0.00    +0.000 A 
ATOM      6  C   UNL     1       4.339   6.703  17.834  0.00  0.00    +0.000 A 
ENDROOT
BRANCH   4   7
ATOM      7  N   UNL     1       1.358   8.795  18.609  0.00  0.00    +0.000 N 
ATOM      8  C   UNL     1       0.908   9.562  19.667  0.00  0.00    +0.000 C 
ATOM      9  C   UNL     1       0.020  10.701  19.242  0.00  0.00    +0.000 C 
ATOM     10  O   UNL     1       1.138   9.378  20.863  0.00  0.00    +0.000 OA
ATOM     11  H   UNL     1       0.943   8.962  17.703  0.00  0.00    +0.000 HD
ENDBRANCH   4   7
BRANCH   6  12
ATOM     12  S   UNL     1       5.736   6.852  16.752  0.00  0.00    +0.000 S 
ATOM     13  O   UNL     1       5.213   7.092  15.418  0.00  0.00    +0.000 OA
ATOM     14  O   UNL     1       6.714   7.777  17.284  0.00  0.00    +0.000 OA
BRANCH  12  15
ATOM     15  N   UNL     1       6.426   5.310  16.653  0.00  0.00    +0.000 N 
ATOM     16  C   UNL     1       6.467   4.839  15.321  0.00  0.00    +0.000 A 
ATOM     17  N   UNL     1       7.514   5.051  14.560  0.00  0.00    +0.000 NA
ATOM     18  N   UNL     1       7.381   4.444  13.325  0.00  0.00    +0.000 NA
ATOM     19  C   UNL     1       6.237   3.801  13.211  0.00  0.00    +0.000 A 
ATOM     20  C   UNL     1       5.763   3.142  11.968  0.00  0.00    +0.000 C 
ATOM     21  S   UNL     1       5.279   3.817  14.638  0.00  0.00    +0.000 S 
ATOM     22  H   UNL     1       5.861   4.718  17.258  0.00  0.00    +0.000 HD
ENDBRANCH  12  15
ENDBRANCH   6  12
BRANCH   1  23
ATOM     23  O   UNL     1       5.205   4.700  18.849  0.00  0.00    +0.000 OA
BRANCH  23  25
ATOM     24  C   UNL     1       3.922   2.811  18.036  0.00  0.00    +0.000 C 
ATOM     25  C   UNL     1       4.710   3.396  19.192  0.00  0.00    +0.000 C 
ENDBRANCH  23  25
ENDBRANCH   1  23
TORSDOF 5
ENDMDL
MODEL 7
REMARK VINA RESULT:      -6.7      3.002      6.095
REMARK  Name = 
REMARK  8 active torsions:
REMARK  status: ('A' for Active; 'I' for Inactive)
REMARK    1  A    between atoms: C_1  and  C_2
REMARK    2  A    between atoms: C_2  and  O_3
REMARK    3  A    between atoms: O_3  and  C_4
REMARK    4  A    between atoms: C_7  and  N_8
REMARK    5  A    between atoms: C_9  and  C_10
REMARK    6  A    between atoms: C_13  and  S_14
REMARK    7  A    between atoms: S_14  and  N_17
REMARK    8  A    between atoms: C_21  and  C_22
REMARK                            x       y       z     vdW  Elec       q    Type
REMARK                         _______ _______ _______ _____ _____    ______ ____
ROOT
ATOM      1  C   UNL     1       4.863   6.444  16.983  0.00  0.00    +0.000 A 
ATOM      2  C   UNL     1       4.882   6.789  15.629  0.00  0.00    +0.000 A 
ATOM      3  C   UNL     1       5.398   5.925  14.661  0.00  0.00    +0.000 A 
ATOM      4  C   UNL     1       5.923   4.691  15.019  0.00  0.00    +0.000 A 
ATOM      5  C   UNL     1       5.952   4.344  16.372  0.00  0.00    +0.000 A 
ATOM      6  C   UNL     1       5.429   5.214  17.352  0.00  0.00    +0.000 A 
ENDROOT
BRANCH   4   7
ATOM      7  N   UNL     1       6.478   3.798  14.073  0.00  0.00    +0.000 N 
ATOM      8  C   UNL     1       5.917   3.446  12.861  0.00  0.00    +0.000 C 
ATOM      9  C   UNL     1       6.819   2.592  12.010  0.00  0.00    +0.000 C 
ATOM     10  O   UNL     1       4.788   3.733  12.459  0.00  0.00    +0.000 OA
ATOM     11  H   UNL     1       7.341   3.342  14.336  0.00  0.00    +0.000 HD
ENDBRANCH   4   7
BRANCH   6  12
ATOM     12  S   UNL     1       5.662   4.765  19.052  0.00  0.00    +0.000 S 
ATOM     13  O   UNL     1       5.646   3.313  19.111  0.00  0.00    +0.000 OA
ATOM     14  O   UNL     1       6.792   5.463  19.628  0.00  0.00    +0.000 OA
BRANCH  12  15
ATOM     15  N   UNL     1       4.251   5.226  19.863  0.00  0.00    +0.000 N 
ATOM     16  C   UNL     1       3.248   4.234  19.777  0.00  0.00    +0.000 A 
ATOM     17  N   UNL     1       3.136   3.303  20.693  0.00  0.00    +0.000 NA
ATOM     18  N   UNL     1       2.050   2.481  20.460  0.00  0.00    +0.000 NA
ATOM     19  C   UNL     1       1.389   2.832  19.375  0.00  0.00    +0.000 A 
ATOM     20  C   UNL     1       0.242   2.080  18.809  0.00  0.00    +0.000 C 
ATOM     21  S   UNL     1       1.998   4.247  18.611  0.00  0.00    +0.000 S 
ATOM     22  H   UNL     1       3.965   6.105  19.438  0.00  0.00    +0.000 HD
ENDBRANCH  12  15
ENDBRANCH   6  12
BRANCH   1  23
ATOM     23  O   UNL     1       4.352   7.285  17.938  0.00  0.00    +0.000 OA
BRANCH  23  25
ATOM     24  C   UNL     1       2.229   8.021  18.848  0.00  0.00    +0.000 C 
ATOM     25  C   UNL     1       3.092   7.891  17.608  0.00  0.00    +0.000 C 
ENDBRANCH  23  25
ENDBRANCH   1  23
TORSDOF 5
ENDMDL
MODEL 8
REMARK VINA RESULT:      -6.7      1.380      1.419
REMARK  Name = 
REMARK  8 active torsions:
REMARK  status: ('A' for Active; 'I' for Inactive)
REMARK    1  A    between atoms: C_1  and  C_2
REMARK    2  A    between atoms: C_2  and  O_3
REMARK    3  A    between atoms: O_3  and  C_4
REMARK    4  A    between atoms: C_7  and  N_8
REMARK    5  A    between atoms: C_9  and  C_10
REMARK    6  A    between atoms: C_13  and  S_14
REMARK    7  A    between atoms: S_14  and  N_17
REMARK    8  A    between atoms: C_21  and  C_22
REMARK                            x       y       z     vdW  Elec       q    Type
REMARK                         _______ _______ _______ _____ _____    ______ ____
ROOT
ATOM      1  C   UNL     1       3.354   4.482  19.882  0.00  0.00    +0.000 A 
ATOM      2  C   UNL     1       2.094   4.693  20.450  0.00  0.00    +0.000 A 
ATOM      3  C   UNL     1       1.495   5.954  20.452  0.00  0.00    +0.000 A 
ATOM      4  C   UNL     1       2.142   7.048  19.894  0.00  0.00    +0.000 A 
ATOM      5  C   UNL     1       3.419   6.867  19.358  0.00  0.00    +0.000 A 
ATOM      6  C   UNL     1       4.027   5.593  19.353  0.00  0.00    +0.000 A 
ENDROOT
BRANCH   4   7
ATOM      7  N   UNL     1       1.581   8.346  19.898  0.00  0.00    +0.000 N 
ATOM      8  C   UNL     1       1.391   9.153  18.792  0.00  0.00    +0.000 C 
ATOM      9  C   UNL     1       0.634  10.417  19.099  0.00  0.00    +0.000 C 
ATOM     10  O   UNL     1       1.798   8.945  17.649  0.00  0.00    +0.000 OA
ATOM     11  H   UNL     1       1.344   8.732  20.802  0.00  0.00    +0.000 HD
ENDBRANCH   4   7
BRANCH   6  12
ATOM     12  S   UNL     1       5.711   5.494  18.807  0.00  0.00    +0.000 S 
ATOM     13  O   UNL     1       5.904   6.557  17.835  0.00  0.00    +0.000 OA
ATOM     14  O   UNL     1       6.622   5.417  19.930  0.00  0.00    +0.000 OA
BRANCH  12  15
ATOM     15  N   UNL     1       5.832   4.075  17.894  0.00  0.00    +0.000 N 
ATOM     16  C   UNL     1       6.329   4.326  16.596  0.00  0.00    +0.000 A 
ATOM     17  N   UNL     1       7.614   4.268  16.340  0.00  0.00    +0.000 NA
ATOM     18  N   UNL     1       7.880   4.472  14.999  0.00  0.00    +0.000 NA
ATOM     19  C   UNL     1       6.780   4.676  14.303  0.00  0.00    +0.000 A 
ATOM     20  C   UNL     1       6.750   5.027  12.861  0.00  0.00    +0.000 C 
ATOM     21  S   UNL     1       5.334   4.544  15.223  0.00  0.00    +0.000 S 
ATOM     22  H   UNL     1       4.896   3.676  17.882  0.00  0.00    +0.000 HD
ENDBRANCH  12  15
ENDBRANCH   6  12
BRANCH   1  23
ATOM     23  O   UNL     1       3.946   3.244  19.871  0.00  0.00    +0.000 OA
BRANCH  23  25
ATOM     24  C   UNL     1       3.657   1.369  18.364  0.00  0.00    +0.000 C 
ATOM     25  C   UNL     1       3.078   2.155  19.524  0.00  0.00    +0.000 C 
ENDBRANCH  23  25
ENDBRANCH   1  23
TORSDOF 5
ENDMDL
MODEL 9
REMARK VINA RESULT:      -6.6      1.551      1.711
REMARK  Name = 
REMARK  8 active torsions:
REMARK  status: ('A' for Active; 'I' for Inactive)
REMARK    1  A    between atoms: C_1  and  C_2
REMARK    2  A    between atoms: C_2  and  O_3
REMARK    3  A    between atoms: O_3  and  C_4
REMARK    4  A    between atoms: C_7  and  N_8
REMARK    5  A    between atoms: C_9  and  C_10
REMARK    6  A    between atoms: C_13  and  S_14
REMARK    7  A    between atoms: S_14  and  N_17
REMARK    8  A    between atoms: C_21  and  C_22
REMARK                            x       y       z     vdW  Elec       q    Type
REMARK                         _______ _______ _______ _____ _____    ______ ____
ROOT
ATOM      1  C   UNL     1       3.707   3.655  19.847  0.00  0.00    +0.000 A 
ATOM      2  C   UNL     1       2.494   3.521  20.529  0.00  0.00    +0.000 A 
ATOM      3  C   UNL     1       1.730   4.634  20.886  0.00  0.00    +0.000 A 
ATOM      4  C   UNL     1       2.160   5.918  20.582  0.00  0.00    +0.000 A 
ATOM      5  C   UNL     1       3.390   6.075  19.939  0.00  0.00    +0.000 A 
ATOM      6  C   UNL     1       4.165   4.953  19.575  0.00  0.00    +0.000 A 
ENDROOT
BRANCH   4   7
ATOM      7  N   UNL     1       1.429   7.071  20.949  0.00  0.00    +0.000 N 
ATOM      8  C   UNL     1       1.373   8.257  20.241  0.00  0.00    +0.000 C 
ATOM      9  C   UNL     1       0.391   9.246  20.810  0.00  0.00    +0.000 C 
ATOM     10  O   UNL     1       2.048   8.561  19.257  0.00  0.00    +0.000 OA
ATOM     11  H   UNL     1       0.945   7.035  21.836  0.00  0.00    +0.000 HD
ENDBRANCH   4   7
BRANCH   6  12
ATOM     12  S   UNL     1       5.784   5.255  18.918  0.00  0.00    +0.000 S 
ATOM     13  O   UNL     1       5.646   6.305  17.923  0.00  0.00    +0.000 OA
ATOM     14  O   UNL     1       6.754   5.436  19.977  0.00  0.00    +0.000 OA
BRANCH  12  15
ATOM     15  N   UNL     1       6.194   3.884  18.016  0.00  0.00    +0.000 N 
ATOM     16  C   UNL     1       6.516   4.212  16.680  0.00  0.00    +0.000 A 
ATOM     17  N   UNL     1       7.752   4.471  16.325  0.00  0.00    +0.000 NA
ATOM     18  N   UNL     1       7.860   4.693  14.966  0.00  0.00    +0.000 NA
ATOM     19  C   UNL     1       6.697   4.592  14.355  0.00  0.00    +0.000 A 
ATOM     20  C   UNL     1       6.475   4.879  12.915  0.00  0.00    +0.000 C 
ATOM     21  S   UNL     1       5.402   4.129  15.386  0.00  0.00    +0.000 S 
ATOM     22  H   UNL     1       5.390   3.263  18.080  0.00  0.00    +0.000 HD
ENDBRANCH  12  15
ENDBRANCH   6  12
BRANCH   1  23
ATOM     23  O   UNL     1       4.460   2.566  19.488  0.00  0.00    +0.000 OA
BRANCH  23  25
ATOM     24  C   UNL     1       2.838   2.322  17.705  0.00  0.00    +0.000 C 
ATOM     25  C   UNL     1       3.794   1.614  18.645  0.00  0.00    +0.000 C 
ENDBRANCH  23  25
ENDBRANCH   1  23
TORSDOF 5
ENDMDL
