MODEL 1
REMARK VINA RESULT:      -6.5      0.000      0.000
REMARK  Name = 
REMARK  4 active torsions:
REMARK  status: ('A' for Active; 'I' for Inactive)
REMARK    1  A    between atoms: C_1  and  C_2
REMARK    2  A    between atoms: C_8  and  C_10
REMARK    3  A    between atoms: N_12  and  C_13
REMARK    4  A    between atoms: C_13  and  C_14
REMARK                            x       y       z     vdW  Elec       q    Type
REMARK                         _______ _______ _______ _____ _____    ______ ____
ROOT
ATOM      1  C   UNL     1       5.687   4.775  16.889  0.00  0.00    +0.000 A 
ATOM      2  C   UNL     1       6.389   4.054  15.943  0.00  0.00    +0.000 A 
ATOM      3  N   UNL     1       6.430   4.880  14.855  0.00  0.00    +0.000 N 
ATOM      4  N   UNL     1       5.811   6.046  15.107  0.00  0.00    +0.000 NA
ATOM      5  N   UNL     1       5.306   5.967  16.320  0.00  0.00    +0.000 NA
ENDROOT
BRANCH   1  13
ATOM      6  C   UNL     1       2.766   2.318  17.193  0.00  0.00    +0.000 C 
ATOM      7  C   UNL     1       2.936   3.803  17.532  0.00  0.00    +0.000 C 
ATOM      8  C   UNL     1       1.627   4.453  18.035  0.00  0.00    +0.000 C 
ATOM      9  N   UNL     1       1.217   3.999  19.373  0.00  0.00    +0.000 NA
ATOM     10  C   UNL     1       2.316   4.245  20.327  0.00  0.00    +0.000 C 
ATOM     11  C   UNL     1       3.665   3.634  19.900  0.00  0.00    +0.000 C 
ATOM     12  N   UNL     1       4.021   3.992  18.524  0.00  0.00    +0.000 N 
ATOM     13  C   UNL     1       5.344   4.352  18.246  0.00  0.00    +0.000 C 
ATOM     14  O   UNL     1       6.207   4.374  19.134  0.00  0.00    +0.000 OA
ATOM     15  H   UNL     1       1.040   2.996  19.334  0.00  0.00    +0.000 HD
ENDBRANCH   1  13
BRANCH   3  16
ATOM     16  C   UNL     1       7.083   4.679  13.570  0.00  0.00    +0.000 C 
BRANCH  16  17
ATOM     17  C   UNL     1       6.266   3.789  12.682  0.00  0.00    +0.000 A 
ATOM     18  C   UNL     1       4.907   3.833  12.427  0.00  0.00    +0.000 A 
ATOM     19  C   UNL     1       4.474   2.763  11.592  0.00  0.00    +0.000 A 
ATOM     20  C   UNL     1       5.526   1.979  11.172  0.00  0.00    +0.000 A 
ATOM     21  S   UNL     1       7.020   2.524  11.802  0.00  0.00    +0.000 S 
ENDBRANCH  16  17
ENDBRANCH   3  16
TORSDOF 3
ENDMDL
MODEL 2
REMARK VINA RESULT:      -6.5      1.732      2.254
REMARK  Name = 
REMARK  4 active torsions:
REMARK  status: ('A' for Active; 'I' for Inactive)
REMARK    1  A    between atoms: C_1  and  C_2
REMARK    2  A    between atoms: C_8  and  C_10
REMARK    3  A    between atoms: N_12  and  C_13
REMARK    4  A    between atoms: C_13  and  C_14
REMARK                            x       y       z     vdW  Elec       q    Type
REMARK                         _______ _______ _______ _____ _____    ______ ____
ROOT
ATOM      1  C   UNL     1       4.344   5.792  17.800  0.00  0.00    +0.000 A 
ATOM      2  C   UNL     1       5.414   4.973  17.497  0.00  0.00    +0.000 A 
ATOM      3  N   UNL     1       6.040   5.611  16.462  0.00  0.00    +0.000 N 
ATOM      4  N   UNL     1       5.416   6.759  16.151  0.00  0.00    +0.000 NA
ATOM      5  N   UNL     1       4.351   6.847  16.920  0.00  0.00    +0.000 NA
ENDROOT
BRANCH   1  13
ATOM      6  C   UNL     1       4.391   2.365  19.506  0.00  0.00    +0.000 C 
ATOM      7  C   UNL     1       3.445   3.030  18.500  0.00  0.00    +0.000 C 
ATOM      8  C   UNL     1       2.317   2.085  18.028  0.00  0.00    +0.000 C 
ATOM      9  N   UNL     1       1.316   1.795  19.065  0.00  0.00    +0.000 NA
ATOM     10  C   UNL     1       0.752   3.063  19.565  0.00  0.00    +0.000 C 
ATOM     11  C   UNL     1       1.811   4.070  20.054  0.00  0.00    +0.000 C 
ATOM     12  N   UNL     1       2.874   4.275  19.066  0.00  0.00    +0.000 N 
ATOM     13  C   UNL     1       3.332   5.576  18.834  0.00  0.00    +0.000 C 
ATOM     14  O   UNL     1       2.859   6.545  19.444  0.00  0.00    +0.000 OA
ATOM     15  H   UNL     1       1.780   1.318  19.838  0.00  0.00    +0.000 HD
ENDBRANCH   1  13
BRANCH   3  16
ATOM     16  C   UNL     1       7.260   5.244  15.759  0.00  0.00    +0.000 C 
BRANCH  16  17
ATOM     17  C   UNL     1       6.956   4.713  14.390  0.00  0.00    +0.000 A 
ATOM     18  C   UNL     1       5.940   3.860  13.999  0.00  0.00    +0.000 A 
ATOM     19  C   UNL     1       6.027   3.506  12.621  0.00  0.00    +0.000 A 
ATOM     20  C   UNL     1       7.058   4.160  11.985  0.00  0.00    +0.000 A 
ATOM     21  S   UNL     1       7.926   5.175  13.052  0.00  0.00    +0.000 S 
ENDBRANCH  16  17
ENDBRANCH   3  16
TORSDOF 3
ENDMDL
MODEL 3
REMARK VINA RESULT:      -6.4      1.806      2.377
REMARK  Name = 
REMARK  4 active torsions:
REMARK  status: ('A' for Active; 'I' for Inactive)
REMARK    1  A    between atoms: C_1  and  C_2
REMARK    2  A    between atoms: C_8  and  C_10
REMARK    3  A    between atoms: N_12  and  C_13
REMARK    4  A    between atoms: C_13  and  C_14
REMARK                            x       y       z     vdW  Elec       q    Type
REMARK                         _______ _______ _______ _____ _____    ______ ____
ROOT
ATOM      1  C   UNL     1       5.238   5.111  18.278  0.00  0.00    +0.000 A 
ATOM      2  C   UNL     1       5.421   5.677  17.031  0.00  0.00    +0.000 A 
ATOM      3  N   UNL     1       6.724   5.400  16.726  0.00  0.00    +0.000 N 
ATOM      4  N   UNL     1       7.312   4.694  17.706  0.00  0.00    +0.000 NA
ATOM      5  N   UNL     1       6.434   4.564  18.678  0.00  0.00    +0.000 NA
ENDROOT
BRANCH   1  13
ATOM      6  C   UNL     1       4.419   1.858  20.124  0.00  0.00    +0.000 C 
ATOM      7  C   UNL     1       3.809   2.564  18.908  0.00  0.00    +0.000 C 
ATOM      8  C   UNL     1       2.670   1.748  18.254  0.00  0.00    +0.000 C 
ATOM      9  N   UNL     1       1.447   1.682  19.067  0.00  0.00    +0.000 NA
ATOM     10  C   UNL     1       0.992   3.052  19.372  0.00  0.00    +0.000 C 
ATOM     11  C   UNL     1       2.069   3.940  20.024  0.00  0.00    +0.000 C 
ATOM     12  N   UNL     1       3.329   3.917  19.276  0.00  0.00    +0.000 N 
ATOM     13  C   UNL     1       4.016   5.120  19.082  0.00  0.00    +0.000 C 
ATOM     14  O   UNL     1       3.580   6.191  19.527  0.00  0.00    +0.000 OA
ATOM     15  H   UNL     1       1.667   1.210  19.944  0.00  0.00    +0.000 HD
ENDBRANCH   1  13
BRANCH   3  16
ATOM     16  C   UNL     1       7.470   5.703  15.515  0.00  0.00    +0.000 C 
BRANCH  16  17
ATOM     17  C   UNL     1       6.960   4.906  14.352  0.00  0.00    +0.000 A 
ATOM     18  C   UNL     1       5.874   4.051  14.299  0.00  0.00    +0.000 A 
ATOM     19  C   UNL     1       5.754   3.401  13.036  0.00  0.00    +0.000 A 
ATOM     20  C   UNL     1       6.704   3.838  12.139  0.00  0.00    +0.000 A 
ATOM     21  S   UNL     1       7.744   5.007  12.829  0.00  0.00    +0.000 S 
ENDBRANCH  16  17
ENDBRANCH   3  16
TORSDOF 3
ENDMDL
MODEL 4
REMARK VINA RESULT:      -6.3      5.054      7.636
REMARK  Name = 
REMARK  4 active torsions:
REMARK  status: ('A' for Active; 'I' for Inactive)
REMARK    1  A    between atoms: C_1  and  C_2
REMARK    2  A    between atoms: C_8  and  C_10
REMARK    3  A    between atoms: N_12  and  C_13
REMARK    4  A    between atoms: C_13  and  C_14
REMARK                            x       y       z     vdW  Elec       q    Type
REMARK                         _______ _______ _______ _____ _____    ______ ____
ROOT
ATOM      1  C   UNL     1       2.518   6.554  18.376  0.00  0.00    +0.000 A 
ATOM      2  C   UNL     1       2.353   7.728  17.667  0.00  0.00    +0.000 A 
ATOM      3  N   UNL     1       1.989   8.643  18.616  0.00  0.00    +0.000 N 
ATOM      4  N   UNL     1       1.948   8.085  19.837  0.00  0.00    +0.000 NA
ATOM      5  N   UNL     1       2.210   6.804  19.692  0.00  0.00    +0.000 NA
ENDROOT
BRANCH   1  13
ATOM      6  C   UNL     1       6.040   5.343  19.263  0.00  0.00    +0.000 C 
ATOM      7  C   UNL     1       5.394   5.854  17.970  0.00  0.00    +0.000 C 
ATOM      8  C   UNL     1       6.402   5.967  16.804  0.00  0.00    +0.000 C 
ATOM      9  N   UNL     1       6.857   4.668  16.287  0.00  0.00    +0.000 NA
ATOM     10  C   UNL     1       5.686   3.869  15.881  0.00  0.00    +0.000 C 
ATOM     11  C   UNL     1       4.623   3.708  16.986  0.00  0.00    +0.000 C 
ATOM     12  N   UNL     1       4.250   4.994  17.583  0.00  0.00    +0.000 N 
ATOM     13  C   UNL     1       2.899   5.246  17.843  0.00  0.00    +0.000 C 
ATOM     14  O   UNL     1       2.024   4.410  17.579  0.00  0.00    +0.000 OA
ATOM     15  H   UNL     1       7.343   4.175  17.036  0.00  0.00    +0.000 HD
ENDBRANCH   1  13
BRANCH   3  16
ATOM     16  C   UNL     1       1.730  10.067  18.469  0.00  0.00    +0.000 C 
BRANCH  16  17
ATOM     17  C   UNL     1       0.259  10.357  18.516  0.00  0.00    +0.000 A 
ATOM     18  C   UNL     1      -0.757   9.796  17.764  0.00  0.00    +0.000 A 
ATOM     19  C   UNL     1      -2.024  10.392  18.032  0.00  0.00    +0.000 A 
ATOM     20  C   UNL     1      -1.949  11.334  19.033  0.00  0.00    +0.000 A 
ATOM     21  S   UNL     1      -0.356  11.510  19.627  0.00  0.00    +0.000 S 
ENDBRANCH  16  17
ENDBRANCH   3  16
TORSDOF 3
ENDMDL
MODEL 5
REMARK VINA RESULT:      -6.1      4.971      7.871
REMARK  Name = 
REMARK  4 active torsions:
REMARK  status: ('A' for Active; 'I' for Inactive)
REMARK    1  A    between atoms: C_1  and  C_2
REMARK    2  A    between atoms: C_8  and  C_10
REMARK    3  A    between atoms: N_12  and  C_13
REMARK    4  A    between atoms: C_13  and  C_14
REMARK                            x       y       z     vdW  Elec       q    Type
REMARK                         _______ _______ _______ _____ _____    ______ ____
ROOT
ATOM      1  C   UNL     1       2.766   6.426  18.371  0.00  0.00    +0.000 A 
ATOM      2  C   UNL     1       2.287   6.589  19.656  0.00  0.00    +0.000 A 
ATOM      3  N   UNL     1       1.976   7.918  19.732  0.00  0.00    +0.000 N 
ATOM      4  N   UNL     1       2.226   8.541  18.568  0.00  0.00    +0.000 NA
ATOM      5  N   UNL     1       2.761   7.655  17.756  0.00  0.00    +0.000 NA
ENDROOT
BRANCH   1  13
ATOM      6  C   UNL     1       6.340   5.397  19.279  0.00  0.00    +0.000 C 
ATOM      7  C   UNL     1       5.693   5.955  18.007  0.00  0.00    +0.000 C 
ATOM      8  C   UNL     1       6.721   6.221  16.884  0.00  0.00    +0.000 C 
ATOM      9  N   UNL     1       7.280   4.997  16.290  0.00  0.00    +0.000 NA
ATOM     10  C   UNL     1       6.178   4.152  15.792  0.00  0.00    +0.000 C 
ATOM     11  C   UNL     1       5.101   3.839  16.850  0.00  0.00    +0.000 C 
ATOM     12  N   UNL     1       4.624   5.050  17.524  0.00  0.00    +0.000 N 
ATOM     13  C   UNL     1       3.252   5.190  17.759  0.00  0.00    +0.000 C 
ATOM     14  O   UNL     1       2.445   4.317  17.410  0.00  0.00    +0.000 OA
ATOM     15  H   UNL     1       7.779   4.485  17.017  0.00  0.00    +0.000 HD
ENDBRANCH   1  13
BRANCH   3  16
ATOM     16  C   UNL     1       1.382   8.663  20.831  0.00  0.00    +0.000 C 
BRANCH  16  17
ATOM     17  C   UNL     1       0.555   9.807  20.325  0.00  0.00    +0.000 A 
ATOM     18  C   UNL     1      -0.640   9.768  19.627  0.00  0.00    +0.000 A 
ATOM     19  C   UNL     1      -1.084  11.065  19.238  0.00  0.00    +0.000 A 
ATOM     20  C   UNL     1      -0.258  12.058  19.714  0.00  0.00    +0.000 A 
ATOM     21  S   UNL     1       1.055  11.423  20.608  0.00  0.00    +0.000 S 
ENDBRANCH  16  17
ENDBRANCH   3  16
TORSDOF 3
ENDMDL
MODEL 6
REMARK VINA RESULT:      -6.1      5.328      7.548
REMARK  Name = 
REMARK  4 active torsions:
REMARK  status: ('A' for Active; 'I' for Inactive)
REMARK    1  A    between atoms: C_1  and  C_2
REMARK    2  A    between atoms: C_8  and  C_10
REMARK    3  A    between atoms: N_12  and  C_13
REMARK    4  A    between atoms: C_13  and  C_14
REMARK                            x       y       z     vdW  Elec       q    Type
REMARK                         _______ _______ _______ _____ _____    ______ ____
ROOT
ATOM      1  C   UNL     1       2.877   7.483  18.280  0.00  0.00    +0.000 A 
ATOM      2  C   UNL     1       2.230   7.748  19.471  0.00  0.00    +0.000 A 
ATOM      3  N   UNL     1       1.467   8.849  19.200  0.00  0.00    +0.000 N 
ATOM      4  N   UNL     1       1.612   9.237  17.922  0.00  0.00    +0.000 NA
ATOM      5  N   UNL     1       2.511   8.448  17.373  0.00  0.00    +0.000 NA
ENDROOT
BRANCH   1  13
ATOM      6  C   UNL     1       1.370   4.009  17.714  0.00  0.00    +0.000 C 
ATOM      7  C   UNL     1       2.167   4.640  18.861  0.00  0.00    +0.000 C 
ATOM      8  C   UNL     1       2.329   3.687  20.067  0.00  0.00    +0.000 C 
ATOM      9  N   UNL     1       3.232   2.555  19.810  0.00  0.00    +0.000 NA
ATOM     10  C   UNL     1       4.545   3.070  19.378  0.00  0.00    +0.000 C 
ATOM     11  C   UNL     1       4.476   4.035  18.178  0.00  0.00    +0.000 C 
ATOM     12  N   UNL     1       3.493   5.101  18.385  0.00  0.00    +0.000 N 
ATOM     13  C   UNL     1       3.830   6.407  18.013  0.00  0.00    +0.000 C 
ATOM     14  O   UNL     1       4.935   6.671  17.518  0.00  0.00    +0.000 OA
ATOM     15  H   UNL     1       2.839   1.993  19.056  0.00  0.00    +0.000 HD
ENDBRANCH   1  13
BRANCH   3  16
ATOM     16  C   UNL     1       0.530   9.554  20.061  0.00  0.00    +0.000 C 
BRANCH  16  17
ATOM     17  C   UNL     1      -0.250  10.577  19.289  0.00  0.00    +0.000 A 
ATOM     18  C   UNL     1      -1.383  10.397  18.515  0.00  0.00    +0.000 A 
ATOM     19  C   UNL     1      -1.790  11.596  17.861  0.00  0.00    +0.000 A 
ATOM     20  C   UNL     1      -1.004  12.669  18.215  0.00  0.00    +0.000 A 
ATOM     21  S   UNL     1       0.230  12.224  19.313  0.00  0.00    +0.000 S 
ENDBRANCH  16  17
ENDBRANCH   3  16
TORSDOF 3
ENDMDL
MODEL 7
REMARK VINA RESULT:      -6.1      5.308      7.579
REMARK  Name = 
REMARK  4 active torsions:
REMARK  status: ('A' for Active; 'I' for Inactive)
REMARK    1  A    between atoms: C_1  and  C_2
REMARK    2  A    between atoms: C_8  and  C_10
REMARK    3  A    between atoms: N_12  and  C_13
REMARK    4  A    between atoms: C_13  and  C_14
REMARK                            x       y       z     vdW  Elec       q    Type
REMARK                         _______ _______ _______ _____ _____    ______ ____
ROOT
ATOM      1  C   UNL     1       3.100   6.861  18.818  0.00  0.00    +0.000 A 
ATOM      2  C   UNL     1       2.193   7.588  19.564  0.00  0.00    +0.000 A 
ATOM      3  N   UNL     1       1.840   8.624  18.744  0.00  0.00    +0.000 N 
ATOM      4  N   UNL     1       2.468   8.540  17.559  0.00  0.00    +0.000 NA
ATOM      5  N   UNL     1       3.280   7.506  17.618  0.00  0.00    +0.000 NA
ENDROOT
BRANCH   1  13
ATOM      6  C   UNL     1       1.381   3.554  17.942  0.00  0.00    +0.000 C 
ATOM      7  C   UNL     1       1.609   4.310  19.256  0.00  0.00    +0.000 C 
ATOM      8  C   UNL     1       0.937   3.619  20.464  0.00  0.00    +0.000 C 
ATOM      9  N   UNL     1       1.582   2.358  20.858  0.00  0.00    +0.000 NA
ATOM     10  C   UNL     1       3.010   2.607  21.133  0.00  0.00    +0.000 C 
ATOM     11  C   UNL     1       3.759   3.300  19.978  0.00  0.00    +0.000 C 
ATOM     12  N   UNL     1       3.057   4.497  19.507  0.00  0.00    +0.000 N 
ATOM     13  C   UNL     1       3.805   5.645  19.224  0.00  0.00    +0.000 C 
ATOM     14  O   UNL     1       5.035   5.665  19.365  0.00  0.00    +0.000 OA
ATOM     15  H   UNL     1       1.511   1.702  20.081  0.00  0.00    +0.000 HD
ENDBRANCH   1  13
BRANCH   3  16
ATOM     16  C   UNL     1       0.875   9.688  18.971  0.00  0.00    +0.000 C 
BRANCH  16  17
ATOM     17  C   UNL     1       0.416   9.708  20.398  0.00  0.00    +0.000 A 
ATOM     18  C   UNL     1       0.017   8.648  21.193  0.00  0.00    +0.000 A 
ATOM     19  C   UNL     1      -0.436   9.071  22.476  0.00  0.00    +0.000 A 
ATOM     20  C   UNL     1      -0.298  10.430  22.650  0.00  0.00    +0.000 A 
ATOM     21  S   UNL     1       0.356  11.188  21.263  0.00  0.00    +0.000 S 
ENDBRANCH  16  17
ENDBRANCH   3  16
TORSDOF 3
ENDMDL
MODEL 8
REMARK VINA RESULT:      -6.1      2.217      3.032
REMARK  Name = 
REMARK  4 active torsions:
REMARK  status: ('A' for Active; 'I' for Inactive)
REMARK    1  A    between atoms: C_1  and  C_2
REMARK    2  A    between atoms: C_8  and  C_10
REMARK    3  A    between atoms: N_12  and  C_13
REMARK    4  A    between atoms: C_13  and  C_14
REMARK                            x       y       z     vdW  Elec       q    Type
REMARK                         _______ _______ _______ _____ _____    ______ ____
ROOT
ATOM      1  C   UNL     1       4.870   5.394  19.008  0.00  0.00    +0.000 A 
ATOM      2  C   UNL     1       5.145   5.838  17.730  0.00  0.00    +0.000 A 
ATOM      3  N   UNL     1       6.509   5.790  17.645  0.00  0.00    +0.000 N 
ATOM      4  N   UNL     1       7.050   5.330  18.785  0.00  0.00    +0.000 NA
ATOM      5  N   UNL     1       6.065   5.143  19.639  0.00  0.00    +0.000 NA
ENDROOT
BRANCH   1  13
ATOM      6  C   UNL     1       4.104   1.982  20.567  0.00  0.00    +0.000 C 
ATOM      7  C   UNL     1       3.604   2.705  19.311  0.00  0.00    +0.000 C 
ATOM      8  C   UNL     1       2.644   1.837  18.466  0.00  0.00    +0.000 C 
ATOM      9  N   UNL     1       1.332   1.623  19.095  0.00  0.00    +0.000 NA
ATOM     10  C   UNL     1       0.718   2.929  19.396  0.00  0.00    +0.000 C 
ATOM     11  C   UNL     1       1.612   3.864  20.235  0.00  0.00    +0.000 C 
ATOM     12  N   UNL     1       2.959   3.990  19.671  0.00  0.00    +0.000 N 
ATOM     13  C   UNL     1       3.554   5.255  19.632  0.00  0.00    +0.000 C 
ATOM     14  O   UNL     1       2.967   6.258  20.061  0.00  0.00    +0.000 OA
ATOM     15  H   UNL     1       1.472   1.120  19.971  0.00  0.00    +0.000 HD
ENDBRANCH   1  13
BRANCH   3  16
ATOM     16  C   UNL     1       7.371   6.094  16.514  0.00  0.00    +0.000 C 
BRANCH  16  17
ATOM     17  C   UNL     1       7.032   5.238  15.330  0.00  0.00    +0.000 A 
ATOM     18  C   UNL     1       7.467   5.358  14.022  0.00  0.00    +0.000 A 
ATOM     19  C   UNL     1       6.856   4.406  13.156  0.00  0.00    +0.000 A 
ATOM     20  C   UNL     1       6.032   3.540  13.839  0.00  0.00    +0.000 A 
ATOM     21  S   UNL     1       5.984   3.892  15.513  0.00  0.00    +0.000 S 
ENDBRANCH  16  17
ENDBRANCH   3  16
TORSDOF 3
ENDMDL
MODEL 9
REMARK VINA RESULT:      -6.0      1.379      1.716
REMARK  Name = 
REMARK  4 active torsions:
REMARK  status: ('A' for Active; 'I' for Inactive)
REMARK    1  A    between atoms: C_1  and  C_2
REMARK    2  A    between atoms: C_8  and  C_10
REMARK    3  A    between atoms: N_12  and  C_13
REMARK    4  A    between atoms: C_13  and  C_14
REMARK                            x       y       z     vdW  Elec       q    Type
REMARK                         _______ _______ _______ _____ _____    ______ ____
ROOT
ATOM      1  C   UNL     1       5.280   5.101  16.930  0.00  0.00    +0.000 A 
ATOM      2  C   UNL     1       5.329   5.218  15.555  0.00  0.00    +0.000 A 
ATOM      3  N   UNL     1       6.618   4.891  15.238  0.00  0.00    +0.000 N 
ATOM      4  N   UNL     1       7.323   4.574  16.337  0.00  0.00    +0.000 NA
ATOM      5  N   UNL     1       6.534   4.756  17.374  0.00  0.00    +0.000 NA
ENDROOT
BRANCH   1  13
ATOM      6  C   UNL     1       4.516   2.384  19.518  0.00  0.00    +0.000 C 
ATOM      7  C   UNL     1       3.831   2.829  18.221  0.00  0.00    +0.000 C 
ATOM      8  C   UNL     1       2.620   1.942  17.852  0.00  0.00    +0.000 C 
ATOM      9  N   UNL     1       1.465   2.117  18.746  0.00  0.00    +0.000 NA
ATOM     10  C   UNL     1       1.077   3.540  18.765  0.00  0.00    +0.000 C 
ATOM     11  C   UNL     1       2.229   4.500  19.120  0.00  0.00    +0.000 C 
ATOM     12  N   UNL     1       3.423   4.252  18.307  0.00  0.00    +0.000 N 
ATOM     13  C   UNL     1       4.128   5.347  17.797  0.00  0.00    +0.000 C 
ATOM     14  O   UNL     1       3.762   6.510  18.020  0.00  0.00    +0.000 OA
ATOM     15  H   UNL     1       1.741   1.843  19.688  0.00  0.00    +0.000 HD
ENDBRANCH   1  13
BRANCH   3  16
ATOM     16  C   UNL     1       7.245   4.788  13.929  0.00  0.00    +0.000 C 
BRANCH  16  17
ATOM     17  C   UNL     1       6.408   3.972  12.990  0.00  0.00    +0.000 A 
ATOM     18  C   UNL     1       5.036   3.996  12.812  0.00  0.00    +0.000 A 
ATOM     19  C   UNL     1       4.591   3.008  11.887  0.00  0.00    +0.000 A 
ATOM     20  C   UNL     1       5.640   2.313  11.329  0.00  0.00    +0.000 A 
ATOM     21  S   UNL     1       7.150   2.839  11.938  0.00  0.00    +0.000 S 
ENDBRANCH  16  17
ENDBRANCH   3  16
TORSDOF 3
ENDMDL
