MODEL 1
REMARK VINA RESULT:      -6.7      0.000      0.000
REMARK  Name = 
REMARK  8 active torsions:
REMARK  status: ('A' for Active; 'I' for Inactive)
REMARK    1  A    between atoms: C_1  and  C_2
REMARK    2  A    between atoms: C_2  and  N_3
REMARK    3  A    between atoms: N_3  and  C_4
REMARK    4  A    between atoms: C_4  and  N_6
REMARK    5  A    between atoms: C_9  and  N_10
REMARK    6  A    between atoms: C_13  and  C_14
REMARK    7  A    between atoms: C_14  and  N_15
REMARK    8  A    between atoms: N_18  and  C_19
REMARK                            x       y       z     vdW  Elec       q    Type
REMARK                         _______ _______ _______ _____ _____    ______ ____
ROOT
ATOM      1  N   UNL     1       2.871   5.918  19.898  0.00  0.00    +0.000 N 
ATOM      2  C   UNL     1       2.287   7.163  19.629  0.00  0.00    +0.000 A 
ATOM      3  C   UNL     1       1.682   7.824  20.672  0.00  0.00    +0.000 A 
ATOM      4  C   UNL     1       1.094   9.035  20.370  0.00  0.00    +0.000 A 
ATOM      5  N   UNL     1       1.127   9.580  19.129  0.00  0.00    +0.000 NA
ATOM      6  C   UNL     1       1.776   8.875  18.202  0.00  0.00    +0.000 A 
ATOM      7  N   UNL     1       2.351   7.685  18.387  0.00  0.00    +0.000 NA
ATOM      8  H   UNL     1       2.766   5.535  20.829  0.00  0.00    +0.000 HD
ENDROOT
BRANCH   4   9
ATOM      9  N   UNL     1       0.434   9.766  21.385  0.00  0.00    +0.000 N 
ATOM     10  C   UNL     1       0.163   9.315  22.654  0.00  0.00    +0.000 A 
ATOM     11  N   UNL     1      -0.516  10.186  23.364  0.00  0.00    +0.000 NA
ATOM     12  C   UNL     1      -0.676  11.277  22.536  0.00  0.00    +0.000 A 
ATOM     13  C   UNL     1      -0.073  11.045  21.323  0.00  0.00    +0.000 A 
BRANCH  12  14
ATOM     14  C   UNL     1      -1.429  12.495  22.992  0.00  0.00    +0.000 C 
BRANCH  14  15
ATOM     15  N   UNL     1      -2.884  12.274  22.943  0.00  0.00    +0.000 NA
ATOM     16  C   UNL     1      -3.471  12.839  21.708  0.00  0.00    +0.000 C 
ATOM     17  C   UNL     1      -5.008  12.692  21.667  0.00  0.00    +0.000 C 
ATOM     18  N   UNL     1      -5.721  13.240  22.837  0.00  0.00    +0.000 NA
ATOM     19  C   UNL     1      -5.766  14.700  22.799  0.00  0.00    +0.000 C 
ATOM     20  C   UNL     1      -5.076  12.745  24.069  0.00  0.00    +0.000 C 
ATOM     21  C   UNL     1      -3.535  12.902  24.111  0.00  0.00    +0.000 C 
ENDBRANCH  14  15
ENDBRANCH  12  14
ENDBRANCH   4   9
BRANCH   1  22
ATOM     22  C   UNL     1       3.750   5.222  19.116  0.00  0.00    +0.000 C 
ATOM     23  S   UNL     1       3.308   3.693  18.607  0.00  0.00    +0.000 S 
BRANCH  22  24
ATOM     24  N   UNL     1       4.947   5.826  18.855  0.00  0.00    +0.000 N 
ATOM     25  H   UNL     1       4.877   6.842  18.842  0.00  0.00    +0.000 HD
BRANCH  24  27
ATOM     26  C   UNL     1       7.342   5.667  18.325  0.00  0.00    +0.000 C 
ATOM     27  C   UNL     1       6.228   5.299  19.286  0.00  0.00    +0.000 C 
ENDBRANCH  24  27
ENDBRANCH  22  24
ENDBRANCH   1  22
TORSDOF 6
ENDMDL
MODEL 2
REMARK VINA RESULT:      -6.5      3.299      4.540
REMARK  Name = 
REMARK  8 active torsions:
REMARK  status: ('A' for Active; 'I' for Inactive)
REMARK    1  A    between atoms: C_1  and  C_2
REMARK    2  A    between atoms: C_2  and  N_3
REMARK    3  A    between atoms: N_3  and  C_4
REMARK    4  A    between atoms: C_4  and  N_6
REMARK    5  A    between atoms: C_9  and  N_10
REMARK    6  A    between atoms: C_13  and  C_14
REMARK    7  A    between atoms: C_14  and  N_15
REMARK    8  A    between atoms: N_18  and  C_19
REMARK                            x       y       z     vdW  Elec       q    Type
REMARK                         _______ _______ _______ _____ _____    ______ ____
ROOT
ATOM      1  N   UNL     1       5.304   6.176  16.532  0.00  0.00    +0.000 N 
ATOM      2  C   UNL     1       4.411   6.099  17.608  0.00  0.00    +0.000 A 
ATOM      3  C   UNL     1       3.595   7.180  17.840  0.00  0.00    +0.000 A 
ATOM      4  C   UNL     1       2.744   7.085  18.922  0.00  0.00    +0.000 A 
ATOM      5  N   UNL     1       2.676   5.982  19.709  0.00  0.00    +0.000 NA
ATOM      6  C   UNL     1       3.481   4.975  19.369  0.00  0.00    +0.000 A 
ATOM      7  N   UNL     1       4.356   4.982  18.361  0.00  0.00    +0.000 NA
ATOM      8  H   UNL     1       5.352   7.046  16.014  0.00  0.00    +0.000 HD
ENDROOT
BRANCH   4   9
ATOM      9  N   UNL     1       1.888   8.164  19.239  0.00  0.00    +0.000 N 
ATOM     10  C   UNL     1       1.358   8.434  20.477  0.00  0.00    +0.000 A 
ATOM     11  N   UNL     1       0.547   9.466  20.464  0.00  0.00    +0.000 NA
ATOM     12  C   UNL     1       0.564   9.920  19.162  0.00  0.00    +0.000 A 
ATOM     13  C   UNL     1       1.406   9.146  18.400  0.00  0.00    +0.000 A 
BRANCH  12  14
ATOM     14  C   UNL     1      -0.266  11.099  18.738  0.00  0.00    +0.000 C 
BRANCH  14  15
ATOM     15  N   UNL     1      -1.705  10.791  18.805  0.00  0.00    +0.000 NA
ATOM     16  C   UNL     1      -2.130   9.965  17.653  0.00  0.00    +0.000 C 
ATOM     17  C   UNL     1      -3.651   9.694  17.654  0.00  0.00    +0.000 C 
ATOM     18  N   UNL     1      -4.502  10.898  17.728  0.00  0.00    +0.000 NA
ATOM     19  C   UNL     1      -4.535  11.607  16.451  0.00  0.00    +0.000 C 
ATOM     20  C   UNL     1      -4.018  11.762  18.822  0.00  0.00    +0.000 C 
ATOM     21  C   UNL     1      -2.494  12.040  18.813  0.00  0.00    +0.000 C 
ENDBRANCH  14  15
ENDBRANCH  12  14
ENDBRANCH   4   9
BRANCH   1  22
ATOM     22  C   UNL     1       5.996   5.153  15.945  0.00  0.00    +0.000 C 
ATOM     23  S   UNL     1       7.288   4.500  16.778  0.00  0.00    +0.000 S 
BRANCH  22  24
ATOM     24  N   UNL     1       5.594   4.782  14.693  0.00  0.00    +0.000 N 
ATOM     25  H   UNL     1       4.921   5.433  14.291  0.00  0.00    +0.000 HD
BRANCH  24  27
ATOM     26  C   UNL     1       5.649   3.436  12.637  0.00  0.00    +0.000 C 
ATOM     27  C   UNL     1       6.451   4.106  13.737  0.00  0.00    +0.000 C 
ENDBRANCH  24  27
ENDBRANCH  22  24
ENDBRANCH   1  22
TORSDOF 6
ENDMDL
MODEL 3
REMARK VINA RESULT:      -6.5      3.117      9.783
REMARK  Name = 
REMARK  8 active torsions:
REMARK  status: ('A' for Active; 'I' for Inactive)
REMARK    1  A    between atoms: C_1  and  C_2
REMARK    2  A    between atoms: C_2  and  N_3
REMARK    3  A    between atoms: N_3  and  C_4
REMARK    4  A    between atoms: C_4  and  N_6
REMARK    5  A    between atoms: C_9  and  N_10
REMARK    6  A    between atoms: C_13  and  C_14
REMARK    7  A    between atoms: C_14  and  N_15
REMARK    8  A    between atoms: N_18  and  C_19
REMARK                            x       y       z     vdW  Elec       q    Type
REMARK                         _______ _______ _______ _____ _____    ______ ____
ROOT
ATOM      1  N   UNL     1      -2.099  12.511  20.673  0.00  0.00    +0.000 N 
ATOM      2  C   UNL     1      -1.199  11.510  21.060  0.00  0.00    +0.000 A 
ATOM      3  C   UNL     1      -0.452  10.908  20.075  0.00  0.00    +0.000 A 
ATOM      4  C   UNL     1       0.407   9.908  20.484  0.00  0.00    +0.000 A 
ATOM      5  N   UNL     1       0.549   9.546  21.783  0.00  0.00    +0.000 NA
ATOM      6  C   UNL     1      -0.191  10.225  22.660  0.00  0.00    +0.000 A 
ATOM      7  N   UNL     1      -1.069  11.185  22.362  0.00  0.00    +0.000 NA
ATOM      8  H   UNL     1      -2.205  12.701  19.684  0.00  0.00    +0.000 HD
ENDROOT
BRANCH   4   9
ATOM      9  N   UNL     1       1.194   9.226  19.528  0.00  0.00    +0.000 N 
ATOM     10  C   UNL     1       1.454   9.653  18.249  0.00  0.00    +0.000 A 
ATOM     11  N   UNL     1       2.165   8.787  17.564  0.00  0.00    +0.000 NA
ATOM     12  C   UNL     1       2.413   7.752  18.440  0.00  0.00    +0.000 A 
ATOM     13  C   UNL     1       1.845   8.019  19.663  0.00  0.00    +0.000 A 
BRANCH  12  14
ATOM     14  C   UNL     1       3.198   6.544  18.014  0.00  0.00    +0.000 C 
BRANCH  14  15
ATOM     15  N   UNL     1       2.749   5.336  18.728  0.00  0.00    +0.000 NA
ATOM     16  C   UNL     1       3.898   4.570  19.261  0.00  0.00    +0.000 C 
ATOM     17  C   UNL     1       3.461   3.256  19.946  0.00  0.00    +0.000 C 
ATOM     18  N   UNL     1       2.627   2.365  19.116  0.00  0.00    +0.000 NA
ATOM     19  C   UNL     1       3.424   1.680  18.102  0.00  0.00    +0.000 C 
ATOM     20  C   UNL     1       1.533   3.152  18.514  0.00  0.00    +0.000 C 
ATOM     21  C   UNL     1       1.976   4.465  17.821  0.00  0.00    +0.000 C 
ENDBRANCH  14  15
ENDBRANCH  12  14
ENDBRANCH   4   9
BRANCH   1  22
ATOM     22  C   UNL     1      -2.727  13.425  21.474  0.00  0.00    +0.000 C 
ATOM     23  S   UNL     1      -2.376  15.042  21.244  0.00  0.00    +0.000 S 
BRANCH  22  24
ATOM     24  N   UNL     1      -3.561  12.926  22.434  0.00  0.00    +0.000 N 
ATOM     25  H   UNL     1      -3.801  11.949  22.272  0.00  0.00    +0.000 HD
BRANCH  24  27
ATOM     26  C   UNL     1      -4.378  12.433  24.699  0.00  0.00    +0.000 C 
ATOM     27  C   UNL     1      -3.523  13.333  23.826  0.00  0.00    +0.000 C 
ENDBRANCH  24  27
ENDBRANCH  22  24
ENDBRANCH   1  22
TORSDOF 6
ENDMDL
MODEL 4
REMARK VINA RESULT:      -6.4      3.602      9.947
REMARK  Name = 
REMARK  8 active torsions:
REMARK  status: ('A' for Active; 'I' for Inactive)
REMARK    1  A    between atoms: C_1  and  C_2
REMARK    2  A    between atoms: C_2  and  N_3
REMARK    3  A    between atoms: N_3  and  C_4
REMARK    4  A    between atoms: C_4  and  N_6
REMARK    5  A    between atoms: C_9  and  N_10
REMARK    6  A    between atoms: C_13  and  C_14
REMARK    7  A    between atoms: C_14  and  N_15
REMARK    8  A    between atoms: N_18  and  C_19
REMARK                            x       y       z     vdW  Elec       q    Type
REMARK                         _______ _______ _______ _____ _____    ______ ____
ROOT
ATOM      1  N   UNL     1       1.346  10.858  18.122  0.00  0.00    +0.000 N 
ATOM      2  C   UNL     1       1.370   9.832  19.075  0.00  0.00    +0.000 A 
ATOM      3  C   UNL     1       1.884   8.616  18.693  0.00  0.00    +0.000 A 
ATOM      4  C   UNL     1       1.870   7.619  19.646  0.00  0.00    +0.000 A 
ATOM      5  N   UNL     1       1.412   7.813  20.908  0.00  0.00    +0.000 NA
ATOM      6  C   UNL     1       0.977   9.042  21.185  0.00  0.00    +0.000 A 
ATOM      7  N   UNL     1       0.922  10.063  20.326  0.00  0.00    +0.000 NA
ATOM      8  H   UNL     1       1.648  10.639  17.180  0.00  0.00    +0.000 HD
ENDROOT
BRANCH   4   9
ATOM      9  N   UNL     1       2.362   6.333  19.323  0.00  0.00    +0.000 N 
ATOM     10  C   UNL     1       2.577   5.308  20.212  0.00  0.00    +0.000 A 
ATOM     11  N   UNL     1       3.096   4.246  19.640  0.00  0.00    +0.000 NA
ATOM     12  C   UNL     1       3.201   4.573  18.305  0.00  0.00    +0.000 A 
ATOM     13  C   UNL     1       2.727   5.845  18.088  0.00  0.00    +0.000 A 
BRANCH  12  14
ATOM     14  C   UNL     1       3.776   3.604  17.310  0.00  0.00    +0.000 C 
BRANCH  14  15
ATOM     15  N   UNL     1       5.189   3.904  17.026  0.00  0.00    +0.000 NA
ATOM     16  C   UNL     1       5.895   4.362  18.244  0.00  0.00    +0.000 C 
ATOM     17  C   UNL     1       7.360   4.761  17.959  0.00  0.00    +0.000 C 
ATOM     18  N   UNL     1       7.540   5.762  16.890  0.00  0.00    +0.000 NA
ATOM     19  C   UNL     1       7.166   7.100  17.342  0.00  0.00    +0.000 C 
ATOM     20  C   UNL     1       6.762   5.346  15.706  0.00  0.00    +0.000 C 
ATOM     21  C   UNL     1       5.291   4.955  15.994  0.00  0.00    +0.000 C 
ENDBRANCH  14  15
ENDBRANCH  12  14
ENDBRANCH   4   9
BRANCH   1  22
ATOM     22  C   UNL     1       1.153  12.194  18.336  0.00  0.00    +0.000 C 
ATOM     23  S   UNL     1       2.491  13.138  18.670  0.00  0.00    +0.000 S 
BRANCH  22  24
ATOM     24  N   UNL     1      -0.139  12.638  18.305  0.00  0.00    +0.000 N 
ATOM     25  H   UNL     1      -0.792  11.915  18.009  0.00  0.00    +0.000 HD
BRANCH  24  27
ATOM     26  C   UNL     1      -0.980  13.013  20.584  0.00  0.00    +0.000 C 
ATOM     27  C   UNL     1      -0.677  13.620  19.227  0.00  0.00    +0.000 C 
ENDBRANCH  24  27
ENDBRANCH  22  24
ENDBRANCH   1  22
TORSDOF 6
ENDMDL
MODEL 5
REMARK VINA RESULT:      -6.4      1.206      1.817
REMARK  Name = 
REMARK  8 active torsions:
REMARK  status: ('A' for Active; 'I' for Inactive)
REMARK    1  A    between atoms: C_1  and  C_2
REMARK    2  A    between atoms: C_2  and  N_3
REMARK    3  A    between atoms: N_3  and  C_4
REMARK    4  A    between atoms: C_4  and  N_6
REMARK    5  A    between atoms: C_9  and  N_10
REMARK    6  A    between atoms: C_13  and  C_14
REMARK    7  A    between atoms: C_14  and  N_15
REMARK    8  A    between atoms: N_18  and  C_19
REMARK                            x       y       z     vdW  Elec       q    Type
REMARK                         _______ _______ _______ _____ _____    ______ ____
ROOT
ATOM      1  N   UNL     1       2.932   5.633  19.982  0.00  0.00    +0.000 N 
ATOM      2  C   UNL     1       2.374   6.880  19.671  0.00  0.00    +0.000 A 
ATOM      3  C   UNL     1       1.743   7.567  20.680  0.00  0.00    +0.000 A 
ATOM      4  C   UNL     1       1.181   8.780  20.337  0.00  0.00    +0.000 A 
ATOM      5  N   UNL     1       1.264   9.302  19.088  0.00  0.00    +0.000 NA
ATOM      6  C   UNL     1       1.936   8.572  18.197  0.00  0.00    +0.000 A 
ATOM      7  N   UNL     1       2.488   7.378  18.423  0.00  0.00    +0.000 NA
ATOM      8  H   UNL     1       2.790   5.268  20.916  0.00  0.00    +0.000 HD
ENDROOT
BRANCH   4   9
ATOM      9  N   UNL     1       0.496   9.537  21.315  0.00  0.00    +0.000 N 
ATOM     10  C   UNL     1       0.058   9.072  22.530  0.00  0.00    +0.000 A 
ATOM     11  N   UNL     1      -0.602   9.981  23.209  0.00  0.00    +0.000 NA
ATOM     12  C   UNL     1      -0.573  11.111  22.420  0.00  0.00    +0.000 A 
ATOM     13  C   UNL     1       0.123  10.863  21.261  0.00  0.00    +0.000 A 
BRANCH  12  14
ATOM     14  C   UNL     1      -1.247  12.382  22.855  0.00  0.00    +0.000 C 
BRANCH  14  15
ATOM     15  N   UNL     1      -2.711  12.230  22.875  0.00  0.00    +0.000 NA
ATOM     16  C   UNL     1      -3.337  12.907  21.717  0.00  0.00    +0.000 C 
ATOM     17  C   UNL     1      -4.879  12.833  21.755  0.00  0.00    +0.000 C 
ATOM     18  N   UNL     1      -5.499  13.329  22.999  0.00  0.00    +0.000 NA
ATOM     19  C   UNL     1      -5.476  14.788  23.063  0.00  0.00    +0.000 C 
ATOM     20  C   UNL     1      -4.813  12.719  24.155  0.00  0.00    +0.000 C 
ATOM     21  C   UNL     1      -3.267  12.803  24.118  0.00  0.00    +0.000 C 
ENDBRANCH  14  15
ENDBRANCH  12  14
ENDBRANCH   4   9
BRANCH   1  22
ATOM     22  C   UNL     1       3.828   4.911  19.244  0.00  0.00    +0.000 C 
ATOM     23  S   UNL     1       5.419   5.421  19.222  0.00  0.00    +0.000 S 
BRANCH  22  24
ATOM     24  N   UNL     1       3.329   3.850  18.542  0.00  0.00    +0.000 N 
ATOM     25  H   UNL     1       3.884   3.634  17.715  0.00  0.00    +0.000 HD
BRANCH  24  27
ATOM     26  C   UNL     1       1.181   2.695  18.844  0.00  0.00    +0.000 C 
ATOM     27  C   UNL     1       2.666   2.717  19.157  0.00  0.00    +0.000 C 
ENDBRANCH  24  27
ENDBRANCH  22  24
ENDBRANCH   1  22
TORSDOF 6
ENDMDL
MODEL 6
REMARK VINA RESULT:      -6.3      1.783      2.556
REMARK  Name = 
REMARK  8 active torsions:
REMARK  status: ('A' for Active; 'I' for Inactive)
REMARK    1  A    between atoms: C_1  and  C_2
REMARK    2  A    between atoms: C_2  and  N_3
REMARK    3  A    between atoms: N_3  and  C_4
REMARK    4  A    between atoms: C_4  and  N_6
REMARK    5  A    between atoms: C_9  and  N_10
REMARK    6  A    between atoms: C_13  and  C_14
REMARK    7  A    between atoms: C_14  and  N_15
REMARK    8  A    between atoms: N_18  and  C_19
REMARK                            x       y       z     vdW  Elec       q    Type
REMARK                         _______ _______ _______ _____ _____    ______ ____
ROOT
ATOM      1  N   UNL     1       3.002   5.513  19.657  0.00  0.00    +0.000 N 
ATOM      2  C   UNL     1       2.464   6.793  19.464  0.00  0.00    +0.000 A 
ATOM      3  C   UNL     1       1.870   7.405  20.541  0.00  0.00    +0.000 A 
ATOM      4  C   UNL     1       1.327   8.653  20.313  0.00  0.00    +0.000 A 
ATOM      5  N   UNL     1       1.394   9.276  19.110  0.00  0.00    +0.000 NA
ATOM      6  C   UNL     1       2.031   8.611  18.147  0.00  0.00    +0.000 A 
ATOM      7  N   UNL     1       2.563   7.391  18.260  0.00  0.00    +0.000 NA
ATOM      8  H   UNL     1       2.872   5.074  20.560  0.00  0.00    +0.000 HD
ENDROOT
BRANCH   4   9
ATOM      9  N   UNL     1       0.679   9.339  21.366  0.00  0.00    +0.000 N 
ATOM     10  C   UNL     1       0.972   9.220  22.703  0.00  0.00    +0.000 A 
ATOM     11  N   UNL     1       0.168   9.930  23.459  0.00  0.00    +0.000 NA
ATOM     12  C   UNL     1      -0.678  10.573  22.581  0.00  0.00    +0.000 A 
ATOM     13  C   UNL     1      -0.359  10.241  21.286  0.00  0.00    +0.000 A 
BRANCH  12  14
ATOM     14  C   UNL     1      -1.769  11.481  23.074  0.00  0.00    +0.000 C 
BRANCH  14  15
ATOM     15  N   UNL     1      -1.730  12.785  22.389  0.00  0.00    +0.000 NA
ATOM     16  C   UNL     1      -1.230  13.848  23.289  0.00  0.00    +0.000 C 
ATOM     17  C   UNL     1      -1.254  15.241  22.622  0.00  0.00    +0.000 C 
ATOM     18  N   UNL     1      -2.560  15.649  22.069  0.00  0.00    +0.000 NA
ATOM     19  C   UNL     1      -3.490  16.037  23.126  0.00  0.00    +0.000 C 
ATOM     20  C   UNL     1      -3.097  14.549  21.244  0.00  0.00    +0.000 C 
ATOM     21  C   UNL     1      -3.080  13.155  21.918  0.00  0.00    +0.000 C 
ENDBRANCH  14  15
ENDBRANCH  12  14
ENDBRANCH   4   9
BRANCH   1  22
ATOM     22  C   UNL     1       3.867   4.839  18.840  0.00  0.00    +0.000 C 
ATOM     23  S   UNL     1       5.502   5.134  19.013  0.00  0.00    +0.000 S 
BRANCH  22  24
ATOM     24  N   UNL     1       3.308   4.007  17.912  0.00  0.00    +0.000 N 
ATOM     25  H   UNL     1       3.884   3.187  17.726  0.00  0.00    +0.000 HD
BRANCH  24  27
ATOM     26  C   UNL     1       1.413   2.540  18.458  0.00  0.00    +0.000 C 
ATOM     27  C   UNL     1       1.879   3.806  17.764  0.00  0.00    +0.000 C 
ENDBRANCH  24  27
ENDBRANCH  22  24
ENDBRANCH   1  22
TORSDOF 6
ENDMDL
MODEL 7
REMARK VINA RESULT:      -6.2      3.649      4.651
REMARK  Name = 
REMARK  8 active torsions:
REMARK  status: ('A' for Active; 'I' for Inactive)
REMARK    1  A    between atoms: C_1  and  C_2
REMARK    2  A    between atoms: C_2  and  N_3
REMARK    3  A    between atoms: N_3  and  C_4
REMARK    4  A    between atoms: C_4  and  N_6
REMARK    5  A    between atoms: C_9  and  N_10
REMARK    6  A    between atoms: C_13  and  C_14
REMARK    7  A    between atoms: C_14  and  N_15
REMARK    8  A    between atoms: N_18  and  C_19
REMARK                            x       y       z     vdW  Elec       q    Type
REMARK                         _______ _______ _______ _____ _____    ______ ____
ROOT
ATOM      1  N   UNL     1       5.091   6.006  16.885  0.00  0.00    +0.000 N 
ATOM      2  C   UNL     1       4.140   6.046  17.913  0.00  0.00    +0.000 A 
ATOM      3  C   UNL     1       3.418   7.205  18.071  0.00  0.00    +0.000 A 
ATOM      4  C   UNL     1       2.508   7.222  19.108  0.00  0.00    +0.000 A 
ATOM      5  N   UNL     1       2.296   6.156  19.919  0.00  0.00    +0.000 NA
ATOM      6  C   UNL     1       3.018   5.069  19.649  0.00  0.00    +0.000 A 
ATOM      7  N   UNL     1       3.941   4.962  18.690  0.00  0.00    +0.000 NA
ATOM      8  H   UNL     1       5.247   6.851  16.348  0.00  0.00    +0.000 HD
ENDROOT
BRANCH   4   9
ATOM      9  N   UNL     1       1.742   8.386  19.349  0.00  0.00    +0.000 N 
ATOM     10  C   UNL     1       1.135   8.718  20.536  0.00  0.00    +0.000 A 
ATOM     11  N   UNL     1       0.439   9.827  20.452  0.00  0.00    +0.000 NA
ATOM     12  C   UNL     1       0.617  10.267  19.158  0.00  0.00    +0.000 A 
ATOM     13  C   UNL     1       1.440   9.406  18.473  0.00  0.00    +0.000 A 
BRANCH  12  14
ATOM     14  C   UNL     1      -0.046  11.522  18.664  0.00  0.00    +0.000 C 
BRANCH  14  15
ATOM     15  N   UNL     1       0.339  12.687  19.479  0.00  0.00    +0.000 NA
ATOM     16  C   UNL     1      -0.376  13.907  19.043  0.00  0.00    +0.000 C 
ATOM     17  C   UNL     1       0.068  15.161  19.828  0.00  0.00    +0.000 C 
ATOM     18  N   UNL     1       1.521  15.422  19.820  0.00  0.00    +0.000 NA
ATOM     19  C   UNL     1       1.960  15.958  18.534  0.00  0.00    +0.000 C 
ATOM     20  C   UNL     1       2.235  14.179  20.169  0.00  0.00    +0.000 C 
ATOM     21  C   UNL     1       1.793  12.924  19.374  0.00  0.00    +0.000 C 
ENDBRANCH  14  15
ENDBRANCH  12  14
ENDBRANCH   4   9
BRANCH   1  22
ATOM     22  C   UNL     1       5.712   4.905  16.363  0.00  0.00    +0.000 C 
ATOM     23  S   UNL     1       5.449   4.543  14.754  0.00  0.00    +0.000 S 
BRANCH  22  24
ATOM     24  N   UNL     1       6.466   4.162  17.227  0.00  0.00    +0.000 N 
ATOM     25  H   UNL     1       6.322   3.161  17.108  0.00  0.00    +0.000 HD
BRANCH  24  27
ATOM     26  C   UNL     1       7.722   5.506  18.858  0.00  0.00    +0.000 C 
ATOM     27  C   UNL     1       7.788   4.549  17.682  0.00  0.00    +0.000 C 
ENDBRANCH  24  27
ENDBRANCH  22  24
ENDBRANCH   1  22
TORSDOF 6
ENDMDL
MODEL 8
REMARK VINA RESULT:      -6.2      1.405      1.741
REMARK  Name = 
REMARK  8 active torsions:
REMARK  status: ('A' for Active; 'I' for Inactive)
REMARK    1  A    between atoms: C_1  and  C_2
REMARK    2  A    between atoms: C_2  and  N_3
REMARK    3  A    between atoms: N_3  and  C_4
REMARK    4  A    between atoms: C_4  and  N_6
REMARK    5  A    between atoms: C_9  and  N_10
REMARK    6  A    between atoms: C_13  and  C_14
REMARK    7  A    between atoms: C_14  and  N_15
REMARK    8  A    between atoms: N_18  and  C_19
REMARK                            x       y       z     vdW  Elec       q    Type
REMARK                         _______ _______ _______ _____ _____    ______ ____
ROOT
ATOM      1  N   UNL     1       2.870   5.497  20.210  0.00  0.00    +0.000 N 
ATOM      2  C   UNL     1       2.455   6.701  19.626  0.00  0.00    +0.000 A 
ATOM      3  C   UNL     1       1.793   7.602  20.425  0.00  0.00    +0.000 A 
ATOM      4  C   UNL     1       1.374   8.767  19.815  0.00  0.00    +0.000 A 
ATOM      5  N   UNL     1       1.621   9.045  18.510  0.00  0.00    +0.000 NA
ATOM      6  C   UNL     1       2.308   8.120  17.840  0.00  0.00    +0.000 A 
ATOM      7  N   UNL     1       2.731   6.953  18.331  0.00  0.00    +0.000 NA
ATOM      8  H   UNL     1       2.609   5.319  21.173  0.00  0.00    +0.000 HD
ENDROOT
BRANCH   4   9
ATOM      9  N   UNL     1       0.668   9.736  20.564  0.00  0.00    +0.000 N 
ATOM     10  C   UNL     1       0.715   9.889  21.928  0.00  0.00    +0.000 A 
ATOM     11  N   UNL     1      -0.091  10.832  22.357  0.00  0.00    +0.000 NA
ATOM     12  C   UNL     1      -0.678  11.348  21.221  0.00  0.00    +0.000 A 
ATOM     13  C   UNL     1      -0.201  10.703  20.105  0.00  0.00    +0.000 A 
BRANCH  12  14
ATOM     14  C   UNL     1      -1.692  12.454  21.303  0.00  0.00    +0.000 C 
BRANCH  14  15
ATOM     15  N   UNL     1      -2.000  12.794  22.703  0.00  0.00    +0.000 NA
ATOM     16  C   UNL     1      -3.440  12.612  22.993  0.00  0.00    +0.000 C 
ATOM     17  C   UNL     1      -3.807  13.038  24.432  0.00  0.00    +0.000 C 
ATOM     18  N   UNL     1      -3.408  14.410  24.801  0.00  0.00    +0.000 NA
ATOM     19  C   UNL     1      -4.282  15.405  24.185  0.00  0.00    +0.000 C 
ATOM     20  C   UNL     1      -1.995  14.616  24.427  0.00  0.00    +0.000 C 
ATOM     21  C   UNL     1      -1.631  14.197  22.981  0.00  0.00    +0.000 C 
ENDBRANCH  14  15
ENDBRANCH  12  14
ENDBRANCH   4   9
BRANCH   1  22
ATOM     22  C   UNL     1       3.767   4.592  19.712  0.00  0.00    +0.000 C 
ATOM     23  S   UNL     1       3.409   2.967  19.862  0.00  0.00    +0.000 S 
BRANCH  22  24
ATOM     24  N   UNL     1       4.913   5.102  19.171  0.00  0.00    +0.000 N 
ATOM     25  H   UNL     1       5.482   5.596  19.856  0.00  0.00    +0.000 HD
BRANCH  24  27
ATOM     26  C   UNL     1       4.923   4.574  16.770  0.00  0.00    +0.000 C 
ATOM     27  C   UNL     1       5.651   4.464  18.097  0.00  0.00    +0.000 C 
ENDBRANCH  24  27
ENDBRANCH  22  24
ENDBRANCH   1  22
TORSDOF 6
ENDMDL
MODEL 9
REMARK VINA RESULT:      -6.2      3.841      6.137
REMARK  Name = 
REMARK  8 active torsions:
REMARK  status: ('A' for Active; 'I' for Inactive)
REMARK    1  A    between atoms: C_1  and  C_2
REMARK    2  A    between atoms: C_2  and  N_3
REMARK    3  A    between atoms: N_3  and  C_4
REMARK    4  A    between atoms: C_4  and  N_6
REMARK    5  A    between atoms: C_9  and  N_10
REMARK    6  A    between atoms: C_13  and  C_14
REMARK    7  A    between atoms: C_14  and  N_15
REMARK    8  A    between atoms: N_18  and  C_19
REMARK                            x       y       z     vdW  Elec       q    Type
REMARK                         _______ _______ _______ _____ _____    ______ ____
ROOT
ATOM      1  N   UNL     1       6.104   5.676  14.522  0.00  0.00    +0.000 N 
ATOM      2  C   UNL     1       5.656   5.482  15.835  0.00  0.00    +0.000 A 
ATOM      3  C   UNL     1       4.703   6.346  16.319  0.00  0.00    +0.000 A 
ATOM      4  C   UNL     1       4.300   6.145  17.623  0.00  0.00    +0.000 A 
ATOM      5  N   UNL     1       4.779   5.137  18.394  0.00  0.00    +0.000 NA
ATOM      6  C   UNL     1       5.667   4.332  17.811  0.00  0.00    +0.000 A 
ATOM      7  N   UNL     1       6.140   4.460  16.569  0.00  0.00    +0.000 NA
ATOM      8  H   UNL     1       5.754   6.479  14.013  0.00  0.00    +0.000 HD
ENDROOT
BRANCH   4   9
ATOM      9  N   UNL     1       3.338   7.005  18.201  0.00  0.00    +0.000 N 
ATOM     10  C   UNL     1       2.790   6.873  19.453  0.00  0.00    +0.000 A 
ATOM     11  N   UNL     1       1.876   7.782  19.701  0.00  0.00    +0.000 NA
ATOM     12  C   UNL     1       1.839   8.572  18.572  0.00  0.00    +0.000 A 
ATOM     13  C   UNL     1       2.753   8.124  17.649  0.00  0.00    +0.000 A 
BRANCH  12  14
ATOM     14  C   UNL     1       0.889   9.732  18.465  0.00  0.00    +0.000 C 
BRANCH  14  15
ATOM     15  N   UNL     1       1.271  10.821  19.379  0.00  0.00    +0.000 NA
ATOM     16  C   UNL     1       0.104  11.308  20.150  0.00  0.00    +0.000 C 
ATOM     17  C   UNL     1       0.459  12.505  21.059  0.00  0.00    +0.000 C 
ATOM     18  N   UNL     1       1.096  13.646  20.373  0.00  0.00    +0.000 NA
ATOM     19  C   UNL     1       0.126  14.408  19.591  0.00  0.00    +0.000 C 
ATOM     20  C   UNL     1       2.203  13.145  19.535  0.00  0.00    +0.000 C 
ATOM     21  C   UNL     1       1.842  11.950  18.617  0.00  0.00    +0.000 C 
ENDBRANCH  14  15
ENDBRANCH  12  14
ENDBRANCH   4   9
BRANCH   1  22
ATOM     22  C   UNL     1       6.816   4.805  13.745  0.00  0.00    +0.000 C 
ATOM     23  S   UNL     1       8.221   5.356  13.030  0.00  0.00    +0.000 S 
BRANCH  22  24
ATOM     24  N   UNL     1       6.283   3.557  13.581  0.00  0.00    +0.000 N 
ATOM     25  H   UNL     1       5.649   3.302  14.336  0.00  0.00    +0.000 HD
BRANCH  24  27
ATOM     26  C   UNL     1       4.643   3.470  11.752  0.00  0.00    +0.000 C 
ATOM     27  C   UNL     1       5.973   2.975  12.288  0.00  0.00    +0.000 C 
ENDBRANCH  24  27
ENDBRANCH  22  24
ENDBRANCH   1  22
TORSDOF 6
ENDMDL
