MODEL 1
REMARK VINA RESULT:      -8.1      0.000      0.000
REMARK  Name = 
REMARK  5 active torsions:
REMARK  status: ('A' for Active; 'I' for Inactive)
REMARK    1  A    between atoms: C_1  and  C_2
REMARK    2  A    between atoms: C_4  and  C_5
REMARK    3  A    between atoms: N_7  and  C_8
REMARK    4  A    between atoms: C_8  and  C_9
REMARK    5  A    between atoms: N_11  and  C_12
REMARK                            x       y       z     vdW  Elec       q    Type
REMARK                         _______ _______ _______ _____ _____    ______ ____
ROOT
ATOM      1  C   UNL     1       7.042   4.643  18.557  0.00  0.00    +0.000 C 
ENDROOT
BRANCH   1   4
ATOM      2  C   UNL     1       6.908   5.295  16.148  0.00  0.00    +0.000 C 
ATOM      3  O   UNL     1       7.017   6.496  16.403  0.00  0.00    +0.000 OA
ATOM      4  N   UNL     1       6.913   4.352  17.135  0.00  0.00    +0.000 N 
ATOM      5  H   UNL     1       6.828   3.365  16.881  0.00  0.00    +0.000 HD
BRANCH   2   9
ATOM      6  C   UNL     1       5.743   2.885  11.843  0.00  0.00    +0.000 C 
ATOM      7  C   UNL     1       6.296   3.754  12.907  0.00  0.00    +0.000 A 
ATOM      8  C   UNL     1       5.962   3.789  14.281  0.00  0.00    +0.000 A 
ATOM      9  C   UNL     1       6.765   4.774  14.809  0.00  0.00    +0.000 A 
ATOM     10  O   UNL     1       7.531   5.293  13.806  0.00  0.00    +0.000 OA
ATOM     11  N   UNL     1       7.238   4.654  12.617  0.00  0.00    +0.000 NA
ENDBRANCH   2   9
ENDBRANCH   1   4
BRANCH   1  12
ATOM     12  C   UNL     1       5.621   4.649  19.114  0.00  0.00    +0.000 C 
ATOM     13  O   UNL     1       5.094   5.731  19.389  0.00  0.00    +0.000 OA
ATOM     14  N   UNL     1       5.038   3.404  19.291  0.00  0.00    +0.000 N 
ATOM     15  H   UNL     1       5.626   2.578  19.256  0.00  0.00    +0.000 HD
BRANCH  14  16
ATOM     16  C   UNL     1       3.692   3.207  19.714  0.00  0.00    +0.000 A 
ATOM     17  C   UNL     1       3.395   2.889  21.046  0.00  0.00    +0.000 A 
ATOM     18  C   UNL     1       2.087   2.665  21.471  0.00  0.00    +0.000 A 
ATOM     19  C   UNL     1       1.036   2.798  20.577  0.00  0.00    +0.000 A 
ATOM     20  C   UNL     1       1.298   3.134  19.249  0.00  0.00    +0.000 A 
ATOM     21  C   UNL     1       2.619   3.328  18.814  0.00  0.00    +0.000 A 
ATOM     22 BR   UNL     1       2.894   3.659  16.964  0.00  0.00    +0.000 Br
ENDBRANCH  14  16
ENDBRANCH   1  12
TORSDOF 4
ENDMDL
MODEL 2
REMARK VINA RESULT:      -7.9      1.186      1.245
REMARK  Name = 
REMARK  5 active torsions:
REMARK  status: ('A' for Active; 'I' for Inactive)
REMARK    1  A    between atoms: C_1  and  C_2
REMARK    2  A    between atoms: C_4  and  C_5
REMARK    3  A    between atoms: N_7  and  C_8
REMARK    4  A    between atoms: C_8  and  C_9
REMARK    5  A    between atoms: N_11  and  C_12
REMARK                            x       y       z     vdW  Elec       q    Type
REMARK                         _______ _______ _______ _____ _____    ______ ____
ROOT
ATOM      1  C   UNL     1       7.886   4.524  18.077  0.00  0.00    +0.000 C 
ENDROOT
BRANCH   1   4
ATOM      2  C   UNL     1       7.291   5.160  15.733  0.00  0.00    +0.000 C 
ATOM      3  O   UNL     1       7.517   6.355  15.934  0.00  0.00    +0.000 OA
ATOM      4  N   UNL     1       7.449   4.227  16.718  0.00  0.00    +0.000 N 
ATOM      5  H   UNL     1       7.259   3.245  16.509  0.00  0.00    +0.000 HD
BRANCH   2   9
ATOM      6  C   UNL     1       5.015   2.918  11.798  0.00  0.00    +0.000 C 
ATOM      7  C   UNL     1       5.893   3.678  12.716  0.00  0.00    +0.000 A 
ATOM      8  C   UNL     1       5.778   3.839  14.117  0.00  0.00    +0.000 A 
ATOM      9  C   UNL     1       6.845   4.635  14.465  0.00  0.00    +0.000 A 
ATOM     10  O   UNL     1       7.553   4.929  13.335  0.00  0.00    +0.000 OA
ATOM     11  N   UNL     1       6.958   4.329  12.243  0.00  0.00    +0.000 NA
ENDBRANCH   2   9
ENDBRANCH   1   4
BRANCH   1  12
ATOM     12  C   UNL     1       6.613   4.642  18.910  0.00  0.00    +0.000 C 
ATOM     13  O   UNL     1       6.612   5.390  19.893  0.00  0.00    +0.000 OA
ATOM     14  N   UNL     1       5.547   3.861  18.495  0.00  0.00    +0.000 N 
ATOM     15  H   UNL     1       5.716   3.117  17.827  0.00  0.00    +0.000 HD
BRANCH  14  16
ATOM     16  C   UNL     1       4.252   3.899  19.088  0.00  0.00    +0.000 A 
ATOM     17  C   UNL     1       3.803   2.855  19.906  0.00  0.00    +0.000 A 
ATOM     18  C   UNL     1       2.529   2.862  20.471  0.00  0.00    +0.000 A 
ATOM     19  C   UNL     1       1.687   3.944  20.265  0.00  0.00    +0.000 A 
ATOM     20  C   UNL     1       2.112   5.009  19.471  0.00  0.00    +0.000 A 
ATOM     21  C   UNL     1       3.384   4.985  18.876  0.00  0.00    +0.000 A 
ATOM     22 BR   UNL     1       3.835   6.416  17.712  0.00  0.00    +0.000 Br
ENDBRANCH  14  16
ENDBRANCH   1  12
TORSDOF 4
ENDMDL
MODEL 3
REMARK VINA RESULT:      -7.8      1.292      1.689
REMARK  Name = 
REMARK  5 active torsions:
REMARK  status: ('A' for Active; 'I' for Inactive)
REMARK    1  A    between atoms: C_1  and  C_2
REMARK    2  A    between atoms: C_4  and  C_5
REMARK    3  A    between atoms: N_7  and  C_8
REMARK    4  A    between atoms: C_8  and  C_9
REMARK    5  A    between atoms: N_11  and  C_12
REMARK                            x       y       z     vdW  Elec       q    Type
REMARK                         _______ _______ _______ _____ _____    ______ ____
ROOT
ATOM      1  C   UNL     1       7.434   4.794  18.125  0.00  0.00    +0.000 C 
ENDROOT
BRANCH   1   4
ATOM      2  C   UNL     1       6.901   5.308  15.737  0.00  0.00    +0.000 C 
ATOM      3  O   UNL     1       6.627   6.484  15.987  0.00  0.00    +0.000 OA
ATOM      4  N   UNL     1       7.296   4.443  16.717  0.00  0.00    +0.000 N 
ATOM      5  H   UNL     1       7.522   3.477  16.467  0.00  0.00    +0.000 HD
BRANCH   2   9
ATOM      6  C   UNL     1       6.027   2.693  11.483  0.00  0.00    +0.000 C 
ATOM      7  C   UNL     1       6.489   3.630  12.533  0.00  0.00    +0.000 A 
ATOM      8  C   UNL     1       6.113   3.685  13.895  0.00  0.00    +0.000 A 
ATOM      9  C   UNL     1       6.833   4.738  14.413  0.00  0.00    +0.000 A 
ATOM     10  O   UNL     1       7.593   5.275  13.415  0.00  0.00    +0.000 OA
ATOM     11  N   UNL     1       7.378   4.582  12.240  0.00  0.00    +0.000 NA
ENDBRANCH   2   9
ENDBRANCH   1   4
BRANCH   1  12
ATOM     12  C   UNL     1       6.031   4.702  18.719  0.00  0.00    +0.000 C 
ATOM     13  O   UNL     1       5.726   5.460  19.644  0.00  0.00    +0.000 OA
ATOM     14  N   UNL     1       5.206   3.733  18.170  0.00  0.00    +0.000 N 
ATOM     15  H   UNL     1       5.617   3.016  17.582  0.00  0.00    +0.000 HD
BRANCH  14  16
ATOM     16  C   UNL     1       3.839   3.554  18.528  0.00  0.00    +0.000 A 
ATOM     17  C   UNL     1       2.822   4.248  17.859  0.00  0.00    +0.000 A 
ATOM     18  C   UNL     1       1.483   4.107  18.214  0.00  0.00    +0.000 A 
ATOM     19  C   UNL     1       1.123   3.228  19.225  0.00  0.00    +0.000 A 
ATOM     20  C   UNL     1       2.111   2.507  19.896  0.00  0.00    +0.000 A 
ATOM     21  C   UNL     1       3.464   2.674  19.559  0.00  0.00    +0.000 A 
ATOM     22 BR   UNL     1       4.750   1.749  20.605  0.00  0.00    +0.000 Br
ENDBRANCH  14  16
ENDBRANCH   1  12
TORSDOF 4
ENDMDL
MODEL 4
REMARK VINA RESULT:      -7.7      1.377      1.455
REMARK  Name = 
REMARK  5 active torsions:
REMARK  status: ('A' for Active; 'I' for Inactive)
REMARK    1  A    between atoms: C_1  and  C_2
REMARK    2  A    between atoms: C_4  and  C_5
REMARK    3  A    between atoms: N_7  and  C_8
REMARK    4  A    between atoms: C_8  and  C_9
REMARK    5  A    between atoms: N_11  and  C_12
REMARK                            x       y       z     vdW  Elec       q    Type
REMARK                         _______ _______ _______ _____ _____    ______ ____
ROOT
ATOM      1  C   UNL     1       6.260   6.475  17.888  0.00  0.00    +0.000 C 
ENDROOT
BRANCH   1   4
ATOM      2  C   UNL     1       7.061   4.950  16.076  0.00  0.00    +0.000 C 
ATOM      3  O   UNL     1       7.964   4.489  16.778  0.00  0.00    +0.000 OA
ATOM      4  N   UNL     1       6.207   5.906  16.547  0.00  0.00    +0.000 N 
ATOM      5  H   UNL     1       5.466   6.257  15.936  0.00  0.00    +0.000 HD
BRANCH   2   9
ATOM      6  C   UNL     1       5.577   2.896  11.686  0.00  0.00    +0.000 C 
ATOM      7  C   UNL     1       6.211   3.675  12.774  0.00  0.00    +0.000 A 
ATOM      8  C   UNL     1       5.973   3.602  14.166  0.00  0.00    +0.000 A 
ATOM      9  C   UNL     1       6.821   4.538  14.714  0.00  0.00    +0.000 A 
ATOM     10  O   UNL     1       7.522   5.131  13.704  0.00  0.00    +0.000 OA
ATOM     11  N   UNL     1       7.141   4.590  12.491  0.00  0.00    +0.000 NA
ENDBRANCH   2   9
ENDBRANCH   1   4
BRANCH   1  12
ATOM     12  C   UNL     1       5.366   5.592  18.754  0.00  0.00    +0.000 C 
ATOM     13  O   UNL     1       5.868   4.988  19.706  0.00  0.00    +0.000 OA
ATOM     14  N   UNL     1       4.036   5.523  18.371  0.00  0.00    +0.000 N 
ATOM     15  H   UNL     1       3.772   5.864  17.453  0.00  0.00    +0.000 HD
BRANCH  14  16
ATOM     16  C   UNL     1       3.031   4.825  19.101  0.00  0.00    +0.000 A 
ATOM     17  C   UNL     1       2.318   5.456  20.129  0.00  0.00    +0.000 A 
ATOM     18  C   UNL     1       1.353   4.781  20.872  0.00  0.00    +0.000 A 
ATOM     19  C   UNL     1       1.045   3.462  20.573  0.00  0.00    +0.000 A 
ATOM     20  C   UNL     1       1.724   2.812  19.542  0.00  0.00    +0.000 A 
ATOM     21  C   UNL     1       2.719   3.484  18.814  0.00  0.00    +0.000 A 
ATOM     22 BR   UNL     1       3.678   2.488  17.513  0.00  0.00    +0.000 Br
ENDBRANCH  14  16
ENDBRANCH   1  12
TORSDOF 4
ENDMDL
MODEL 5
REMARK VINA RESULT:      -7.6      1.707      1.892
REMARK  Name = 
REMARK  5 active torsions:
REMARK  status: ('A' for Active; 'I' for Inactive)
REMARK    1  A    between atoms: C_1  and  C_2
REMARK    2  A    between atoms: C_4  and  C_5
REMARK    3  A    between atoms: N_7  and  C_8
REMARK    4  A    between atoms: C_8  and  C_9
REMARK    5  A    between atoms: N_11  and  C_12
REMARK                            x       y       z     vdW  Elec       q    Type
REMARK                         _______ _______ _______ _____ _____    ______ ____
ROOT
ATOM      1  C   UNL     1       5.834   6.703  17.456  0.00  0.00    +0.000 C 
ENDROOT
BRANCH   1   4
ATOM      2  C   UNL     1       6.886   5.166  15.788  0.00  0.00    +0.000 C 
ATOM      3  O   UNL     1       7.826   4.895  16.539  0.00  0.00    +0.000 OA
ATOM      4  N   UNL     1       5.895   6.026  16.167  0.00  0.00    +0.000 N 
ATOM      5  H   UNL     1       5.128   6.219  15.518  0.00  0.00    +0.000 HD
BRANCH   2   9
ATOM      6  C   UNL     1       5.723   2.654  11.542  0.00  0.00    +0.000 C 
ATOM      7  C   UNL     1       6.272   3.551  12.584  0.00  0.00    +0.000 A 
ATOM      8  C   UNL     1       5.946   3.611  13.959  0.00  0.00    +0.000 A 
ATOM      9  C   UNL     1       6.741   4.616  14.462  0.00  0.00    +0.000 A 
ATOM     10  O   UNL     1       7.494   5.123  13.443  0.00  0.00    +0.000 OA
ATOM     11  N   UNL     1       7.201   4.456  12.269  0.00  0.00    +0.000 NA
ENDBRANCH   2   9
ENDBRANCH   1   4
BRANCH   1  12
ATOM     12  C   UNL     1       5.058   5.770  18.382  0.00  0.00    +0.000 C 
ATOM     13  O   UNL     1       5.594   5.384  19.424  0.00  0.00    +0.000 OA
ATOM     14  N   UNL     1       3.791   5.409  17.949  0.00  0.00    +0.000 N 
ATOM     15  H   UNL     1       3.534   5.588  16.985  0.00  0.00    +0.000 HD
BRANCH  14  16
ATOM     16  C   UNL     1       2.883   4.622  18.713  0.00  0.00    +0.000 A 
ATOM     17  C   UNL     1       2.751   3.246  18.482  0.00  0.00    +0.000 A 
ATOM     18  C   UNL     1       1.847   2.466  19.199  0.00  0.00    +0.000 A 
ATOM     19  C   UNL     1       1.080   3.040  20.202  0.00  0.00    +0.000 A 
ATOM     20  C   UNL     1       1.202   4.404  20.469  0.00  0.00    +0.000 A 
ATOM     21  C   UNL     1       2.091   5.195  19.723  0.00  0.00    +0.000 A 
ATOM     22 BR   UNL     1       2.104   7.063  20.069  0.00  0.00    +0.000 Br
ENDBRANCH  14  16
ENDBRANCH   1  12
TORSDOF 4
ENDMDL
MODEL 6
REMARK VINA RESULT:      -7.5      1.684      1.792
REMARK  Name = 
REMARK  5 active torsions:
REMARK  status: ('A' for Active; 'I' for Inactive)
REMARK    1  A    between atoms: C_1  and  C_2
REMARK    2  A    between atoms: C_4  and  C_5
REMARK    3  A    between atoms: N_7  and  C_8
REMARK    4  A    between atoms: C_8  and  C_9
REMARK    5  A    between atoms: N_11  and  C_12
REMARK                            x       y       z     vdW  Elec       q    Type
REMARK                         _______ _______ _______ _____ _____    ______ ____
ROOT
ATOM      1  C   UNL     1       5.817   6.987  17.146  0.00  0.00    +0.000 C 
ENDROOT
BRANCH   1   4
ATOM      2  C   UNL     1       6.820   5.265  15.636  0.00  0.00    +0.000 C 
ATOM      3  O   UNL     1       7.700   4.974  16.449  0.00  0.00    +0.000 OA
ATOM      4  N   UNL     1       5.884   6.223  15.907  0.00  0.00    +0.000 N 
ATOM      5  H   UNL     1       5.167   6.429  15.209  0.00  0.00    +0.000 HD
BRANCH   2   9
ATOM      6  C   UNL     1       5.713   2.515  11.524  0.00  0.00    +0.000 C 
ATOM      7  C   UNL     1       6.249   3.469  12.521  0.00  0.00    +0.000 A 
ATOM      8  C   UNL     1       5.903   3.609  13.885  0.00  0.00    +0.000 A 
ATOM      9  C   UNL     1       6.693   4.640  14.341  0.00  0.00    +0.000 A 
ATOM     10  O   UNL     1       7.464   5.085  13.307  0.00  0.00    +0.000 OA
ATOM     11  N   UNL     1       7.187   4.352  12.169  0.00  0.00    +0.000 NA
ENDBRANCH   2   9
ENDBRANCH   1   4
BRANCH   1  12
ATOM     12  C   UNL     1       4.468   6.650  17.774  0.00  0.00    +0.000 C 
ATOM     13  O   UNL     1       3.511   7.400  17.567  0.00  0.00    +0.000 OA
ATOM     14  N   UNL     1       4.440   5.511  18.564  0.00  0.00    +0.000 N 
ATOM     15  H   UNL     1       5.318   5.097  18.858  0.00  0.00    +0.000 HD
BRANCH  14  16
ATOM     16  C   UNL     1       3.258   4.985  19.161  0.00  0.00    +0.000 A 
ATOM     17  C   UNL     1       2.585   5.688  20.168  0.00  0.00    +0.000 A 
ATOM     18  C   UNL     1       1.444   5.176  20.783  0.00  0.00    +0.000 A 
ATOM     19  C   UNL     1       0.923   3.959  20.370  0.00  0.00    +0.000 A 
ATOM     20  C   UNL     1       1.560   3.243  19.356  0.00  0.00    +0.000 A 
ATOM     21  C   UNL     1       2.727   3.746  18.759  0.00  0.00    +0.000 A 
ATOM     22 BR   UNL     1       3.598   2.651  17.475  0.00  0.00    +0.000 Br
ENDBRANCH  14  16
ENDBRANCH   1  12
TORSDOF 4
ENDMDL
MODEL 7
REMARK VINA RESULT:      -7.4      1.811      2.192
REMARK  Name = 
REMARK  5 active torsions:
REMARK  status: ('A' for Active; 'I' for Inactive)
REMARK    1  A    between atoms: C_1  and  C_2
REMARK    2  A    between atoms: C_4  and  C_5
REMARK    3  A    between atoms: N_7  and  C_8
REMARK    4  A    between atoms: C_8  and  C_9
REMARK    5  A    between atoms: N_11  and  C_12
REMARK                            x       y       z     vdW  Elec       q    Type
REMARK                         _______ _______ _______ _____ _____    ______ ____
ROOT
ATOM      1  C   UNL     1       7.197   4.679  16.925  0.00  0.00    +0.000 C 
ENDROOT
BRANCH   1   4
ATOM      2  C   UNL     1       6.890   4.615  14.444  0.00  0.00    +0.000 C 
ATOM      3  O   UNL     1       7.748   5.480  14.254  0.00  0.00    +0.000 OA
ATOM      4  N   UNL     1       6.577   4.185  15.702  0.00  0.00    +0.000 N 
ATOM      5  H   UNL     1       5.865   3.460  15.817  0.00  0.00    +0.000 HD
BRANCH   2   9
ATOM      6  C   UNL     1       3.566   3.017  10.967  0.00  0.00    +0.000 C 
ATOM      7  C   UNL     1       4.731   3.251  11.850  0.00  0.00    +0.000 A 
ATOM      8  C   UNL     1       4.870   4.189  12.899  0.00  0.00    +0.000 A 
ATOM      9  C   UNL     1       6.143   3.986  13.382  0.00  0.00    +0.000 A 
ATOM     10  O   UNL     1       6.725   2.984  12.661  0.00  0.00    +0.000 OA
ATOM     11  N   UNL     1       5.841   2.524  11.703  0.00  0.00    +0.000 NA
ENDBRANCH   2   9
ENDBRANCH   1   4
BRANCH   1  12
ATOM     12  C   UNL     1       6.121   4.596  18.004  0.00  0.00    +0.000 C 
ATOM     13  O   UNL     1       6.464   4.386  19.171  0.00  0.00    +0.000 OA
ATOM     14  N   UNL     1       4.815   4.744  17.565  0.00  0.00    +0.000 N 
ATOM     15  H   UNL     1       4.623   4.681  16.571  0.00  0.00    +0.000 HD
BRANCH  14  16
ATOM     16  C   UNL     1       3.684   4.786  18.429  0.00  0.00    +0.000 A 
ATOM     17  C   UNL     1       3.293   5.981  19.047  0.00  0.00    +0.000 A 
ATOM     18  C   UNL     1       2.206   6.034  19.918  0.00  0.00    +0.000 A 
ATOM     19  C   UNL     1       1.454   4.894  20.156  0.00  0.00    +0.000 A 
ATOM     20  C   UNL     1       1.805   3.693  19.539  0.00  0.00    +0.000 A 
ATOM     21  C   UNL     1       2.920   3.634  18.687  0.00  0.00    +0.000 A 
ATOM     22 BR   UNL     1       3.401   1.935  17.989  0.00  0.00    +0.000 Br
ENDBRANCH  14  16
ENDBRANCH   1  12
TORSDOF 4
ENDMDL
MODEL 8
REMARK VINA RESULT:      -7.3      2.723      4.140
REMARK  Name = 
REMARK  5 active torsions:
REMARK  status: ('A' for Active; 'I' for Inactive)
REMARK    1  A    between atoms: C_1  and  C_2
REMARK    2  A    between atoms: C_4  and  C_5
REMARK    3  A    between atoms: N_7  and  C_8
REMARK    4  A    between atoms: C_8  and  C_9
REMARK    5  A    between atoms: N_11  and  C_12
REMARK                            x       y       z     vdW  Elec       q    Type
REMARK                         _______ _______ _______ _____ _____    ______ ____
ROOT
ATOM      1  C   UNL     1       5.568   3.910  16.324  0.00  0.00    +0.000 C 
ENDROOT
BRANCH   1   4
ATOM      2  C   UNL     1       7.160   5.402  17.545  0.00  0.00    +0.000 C 
ATOM      3  O   UNL     1       7.704   4.455  18.118  0.00  0.00    +0.000 OA
ATOM      4  N   UNL     1       6.129   5.210  16.671  0.00  0.00    +0.000 N 
ATOM      5  H   UNL     1       5.709   6.021  16.210  0.00  0.00    +0.000 HD
BRANCH   2   9
ATOM      6  C   UNL     1       9.055   9.891  18.943  0.00  0.00    +0.000 C 
ATOM      7  C   UNL     1       8.342   8.760  18.306  0.00  0.00    +0.000 A 
ATOM      8  C   UNL     1       8.388   7.386  18.641  0.00  0.00    +0.000 A 
ATOM      9  C   UNL     1       7.547   6.779  17.736  0.00  0.00    +0.000 A 
ATOM     10  O   UNL     1       7.032   7.737  16.912  0.00  0.00    +0.000 OA
ATOM     11  N   UNL     1       7.529   8.976  17.270  0.00  0.00    +0.000 NA
ENDBRANCH   2   9
ENDBRANCH   1   4
BRANCH   1  12
ATOM     12  C   UNL     1       4.345   3.730  17.218  0.00  0.00    +0.000 C 
ATOM     13  O   UNL     1       3.285   3.352  16.709  0.00  0.00    +0.000 OA
ATOM     14  N   UNL     1       4.527   4.036  18.558  0.00  0.00    +0.000 N 
ATOM     15  H   UNL     1       5.355   4.552  18.834  0.00  0.00    +0.000 HD
BRANCH  14  16
ATOM     16  C   UNL     1       3.533   3.848  19.561  0.00  0.00    +0.000 A 
ATOM     17  C   UNL     1       3.421   2.630  20.244  0.00  0.00    +0.000 A 
ATOM     18  C   UNL     1       2.437   2.418  21.208  0.00  0.00    +0.000 A 
ATOM     19  C   UNL     1       1.565   3.443  21.544  0.00  0.00    +0.000 A 
ATOM     20  C   UNL     1       1.664   4.674  20.895  0.00  0.00    +0.000 A 
ATOM     21  C   UNL     1       2.636   4.875  19.901  0.00  0.00    +0.000 A 
ATOM     22 BR   UNL     1       2.620   6.538  18.984  0.00  0.00    +0.000 Br
ENDBRANCH  14  16
ENDBRANCH   1  12
TORSDOF 4
ENDMDL
MODEL 9
REMARK VINA RESULT:      -7.2      1.313      1.557
REMARK  Name = 
REMARK  5 active torsions:
REMARK  status: ('A' for Active; 'I' for Inactive)
REMARK    1  A    between atoms: C_1  and  C_2
REMARK    2  A    between atoms: C_4  and  C_5
REMARK    3  A    between atoms: N_7  and  C_8
REMARK    4  A    between atoms: C_8  and  C_9
REMARK    5  A    between atoms: N_11  and  C_12
REMARK                            x       y       z     vdW  Elec       q    Type
REMARK                         _______ _______ _______ _____ _____    ______ ____
ROOT
ATOM      1  C   UNL     1       7.783   4.661  18.073  0.00  0.00    +0.000 C 
ENDROOT
BRANCH   1   4
ATOM      2  C   UNL     1       7.006   5.212  15.761  0.00  0.00    +0.000 C 
ATOM      3  O   UNL     1       6.950   6.420  16.001  0.00  0.00    +0.000 OA
ATOM      4  N   UNL     1       7.398   4.312  16.711  0.00  0.00    +0.000 N 
ATOM      5  H   UNL     1       7.438   3.320  16.470  0.00  0.00    +0.000 HD
BRANCH   2   9
ATOM      6  C   UNL     1       5.089   2.780  11.748  0.00  0.00    +0.000 C 
ATOM      7  C   UNL     1       5.874   3.597  12.701  0.00  0.00    +0.000 A 
ATOM      8  C   UNL     1       5.656   3.791  14.085  0.00  0.00    +0.000 A 
ATOM      9  C   UNL     1       6.668   4.637  14.482  0.00  0.00    +0.000 A 
ATOM     10  O   UNL     1       7.441   4.927  13.395  0.00  0.00    +0.000 OA
ATOM     11  N   UNL     1       6.944   4.276  12.282  0.00  0.00    +0.000 NA
ENDBRANCH   2   9
ENDBRANCH   1   4
BRANCH   1  12
ATOM     12  C   UNL     1       6.482   4.761  18.864  0.00  0.00    +0.000 C 
ATOM     13  O   UNL     1       6.530   5.102  20.049  0.00  0.00    +0.000 OA
ATOM     14  N   UNL     1       5.329   4.428  18.171  0.00  0.00    +0.000 N 
ATOM     15  H   UNL     1       5.413   3.944  17.283  0.00  0.00    +0.000 HD
BRANCH  14  16
ATOM     16  C   UNL     1       4.014   4.543  18.708  0.00  0.00    +0.000 A 
ATOM     17  C   UNL     1       3.548   5.762  19.217  0.00  0.00    +0.000 A 
ATOM     18  C   UNL     1       2.277   5.886  19.772  0.00  0.00    +0.000 A 
ATOM     19  C   UNL     1       1.420   4.796  19.790  0.00  0.00    +0.000 A 
ATOM     20  C   UNL     1       1.847   3.573  19.272  0.00  0.00    +0.000 A 
ATOM     21  C   UNL     1       3.141   3.441  18.742  0.00  0.00    +0.000 A 
ATOM     22 BR   UNL     1       3.684   1.713  18.173  0.00  0.00    +0.000 Br
ENDBRANCH  14  16
ENDBRANCH   1  12
TORSDOF 4
ENDMDL
