MODEL 1
REMARK VINA RESULT:      -7.3      0.000      0.000
REMARK  Name = 
REMARK  6 active torsions:
REMARK  status: ('A' for Active; 'I' for Inactive)
REMARK    1  A    between atoms: C_1  and  C_2
REMARK    2  A    between atoms: C_5  and  C_6
REMARK    3  A    between atoms: C_6  and  N_7
REMARK    4  A    between atoms: N_7  and  C_8
REMARK    5  A    between atoms: C_8  and  C_9
REMARK    6  A    between atoms: C_14  and  C_16
REMARK                            x       y       z     vdW  Elec       q    Type
REMARK                         _______ _______ _______ _____ _____    ______ ____
ROOT
ATOM      1  C   UNL     1       2.463   5.589  19.145  0.00  0.00    +0.000 C 
ATOM      2  F   UNL     1       3.712   5.916  19.645  0.00  0.00    +0.000 F 
ATOM      3  C   UNL     1       1.502   5.491  20.320  0.00  0.00    +0.000 C 
ATOM      4  C   UNL     1       1.654   6.730  21.176  0.00  0.00    +0.000 C 
ATOM      5  N   UNL     1       1.399   7.924  20.377  0.00  0.00    +0.000 N 
ATOM      6  C   UNL     1       0.727   8.966  21.044  0.00  0.00    +0.000 C 
ATOM      7  O   UNL     1       0.358   8.872  22.192  0.00  0.00    +0.000 OA
ATOM      8  C   UNL     1       2.229   8.040  19.166  0.00  0.00    +0.000 C 
ATOM      9  C   UNL     1       2.069   6.798  18.276  0.00  0.00    +0.000 C 
ENDROOT
BRANCH   6  10
ATOM     10  C   UNL     1       0.458  10.174  20.273  0.00  0.00    +0.000 A 
ATOM     11  C   UNL     1       1.170  11.345  20.362  0.00  0.00    +0.000 A 
ATOM     12  O   UNL     1       0.705  12.280  19.503  0.00  0.00    +0.000 OA
ATOM     13  C   UNL     1      -0.312  11.696  18.822  0.00  0.00    +0.000 A 
ATOM     14  C   UNL     1      -1.042  12.309  17.806  0.00  0.00    +0.000 A 
ATOM     15  C   UNL     1      -2.056  11.547  17.218  0.00  0.00    +0.000 A 
ATOM     16  C   UNL     1      -2.339  10.254  17.662  0.00  0.00    +0.000 A 
ATOM     17  C   UNL     1      -1.600   9.674  18.704  0.00  0.00    +0.000 A 
ATOM     18  C   UNL     1      -0.533  10.399  19.272  0.00  0.00    +0.000 A 
ENDBRANCH   6  10
BRANCH   1  19
ATOM     19  C   UNL     1       2.630   4.208  18.460  0.00  0.00    +0.000 C 
BRANCH  19  20
ATOM     20  N   UNL     1       3.473   4.488  17.306  0.00  0.00    +0.000 NA
ATOM     21  H   UNL     1       2.973   4.258  16.449  0.00  0.00    +0.000 HD
BRANCH  20  22
ATOM     22  C   UNL     1       4.831   4.009  17.219  0.00  0.00    +0.000 C 
BRANCH  22  27
ATOM     23  C   UNL     1       8.272   8.612  17.999  0.00  0.00    +0.000 C 
ATOM     24  C   UNL     1       7.447   7.381  17.802  0.00  0.00    +0.000 A 
ATOM     25  C   UNL     1       7.787   6.164  18.389  0.00  0.00    +0.000 A 
ATOM     26  C   UNL     1       6.971   5.050  18.179  0.00  0.00    +0.000 A 
ATOM     27  C   UNL     1       5.814   5.172  17.402  0.00  0.00    +0.000 A 
ATOM     28  N   UNL     1       5.474   6.351  16.821  0.00  0.00    +0.000 NA
ATOM     29  C   UNL     1       6.301   7.409  17.017  0.00  0.00    +0.000 A 
ENDBRANCH  22  27
ENDBRANCH  20  22
ENDBRANCH  19  20
ENDBRANCH   1  19
TORSDOF 5
ENDMDL
MODEL 2
REMARK VINA RESULT:      -7.3      5.118      7.403
REMARK  Name = 
REMARK  6 active torsions:
REMARK  status: ('A' for Active; 'I' for Inactive)
REMARK    1  A    between atoms: C_1  and  C_2
REMARK    2  A    between atoms: C_5  and  C_6
REMARK    3  A    between atoms: C_6  and  N_7
REMARK    4  A    between atoms: N_7  and  C_8
REMARK    5  A    between atoms: C_8  and  C_9
REMARK    6  A    between atoms: C_14  and  C_16
REMARK                            x       y       z     vdW  Elec       q    Type
REMARK                         _______ _______ _______ _____ _____    ______ ____
ROOT
ATOM      1  C   UNL     1       7.152   7.136  17.757  0.00  0.00    +0.000 C 
ATOM      2  F   UNL     1       7.800   6.567  18.840  0.00  0.00    +0.000 F 
ATOM      3  C   UNL     1       7.305   6.193  16.575  0.00  0.00    +0.000 C 
ATOM      4  C   UNL     1       6.921   4.797  17.015  0.00  0.00    +0.000 C 
ATOM      5  N   UNL     1       5.555   4.791  17.528  0.00  0.00    +0.000 N 
ATOM      6  C   UNL     1       4.799   3.643  17.224  0.00  0.00    +0.000 C 
ATOM      7  O   UNL     1       5.237   2.733  16.559  0.00  0.00    +0.000 OA
ATOM      8  C   UNL     1       5.306   5.752  18.616  0.00  0.00    +0.000 C 
ATOM      9  C   UNL     1       5.671   7.179  18.176  0.00  0.00    +0.000 C 
ENDROOT
BRANCH   6  10
ATOM     10  C   UNL     1       3.430   3.606  17.724  0.00  0.00    +0.000 A 
ATOM     11  C   UNL     1       2.304   3.829  16.970  0.00  0.00    +0.000 A 
ATOM     12  O   UNL     1       1.176   3.700  17.703  0.00  0.00    +0.000 OA
ATOM     13  C   UNL     1       1.575   3.357  18.954  0.00  0.00    +0.000 A 
ATOM     14  C   UNL     1       0.714   3.088  20.015  0.00  0.00    +0.000 A 
ATOM     15  C   UNL     1       1.311   2.750  21.233  0.00  0.00    +0.000 A 
ATOM     16  C   UNL     1       2.700   2.726  21.376  0.00  0.00    +0.000 A 
ATOM     17  C   UNL     1       3.539   3.026  20.293  0.00  0.00    +0.000 A 
ATOM     18  C   UNL     1       2.962   3.310  19.039  0.00  0.00    +0.000 A 
ENDBRANCH   6  10
BRANCH   1  19
ATOM     19  C   UNL     1       7.882   8.477  17.484  0.00  0.00    +0.000 C 
BRANCH  19  20
ATOM     20  N   UNL     1       8.813   8.602  18.597  0.00  0.00    +0.000 NA
ATOM     21  H   UNL     1       8.755   7.777  19.190  0.00  0.00    +0.000 HD
BRANCH  20  22
ATOM     22  C   UNL     1       8.865   9.788  19.418  0.00  0.00    +0.000 C 
BRANCH  22  27
ATOM     23  C   UNL     1      11.441  14.273  16.795  0.00  0.00    +0.000 C 
ATOM     24  C   UNL     1      10.835  13.073  17.449  0.00  0.00    +0.000 A 
ATOM     25  C   UNL     1      11.617  12.064  18.007  0.00  0.00    +0.000 A 
ATOM     26  C   UNL     1      10.995  10.971  18.616  0.00  0.00    +0.000 A 
ATOM     27  C   UNL     1       9.599  10.913  18.677  0.00  0.00    +0.000 A 
ATOM     28  N   UNL     1       8.825  11.887  18.133  0.00  0.00    +0.000 NA
ATOM     29  C   UNL     1       9.456  12.921  17.522  0.00  0.00    +0.000 A 
ENDBRANCH  22  27
ENDBRANCH  20  22
ENDBRANCH  19  20
ENDBRANCH   1  19
TORSDOF 5
ENDMDL
MODEL 3
REMARK VINA RESULT:      -7.3      0.974      1.849
REMARK  Name = 
REMARK  6 active torsions:
REMARK  status: ('A' for Active; 'I' for Inactive)
REMARK    1  A    between atoms: C_1  and  C_2
REMARK    2  A    between atoms: C_5  and  C_6
REMARK    3  A    between atoms: C_6  and  N_7
REMARK    4  A    between atoms: N_7  and  C_8
REMARK    5  A    between atoms: C_8  and  C_9
REMARK    6  A    between atoms: C_14  and  C_16
REMARK                            x       y       z     vdW  Elec       q    Type
REMARK                         _______ _______ _______ _____ _____    ______ ____
ROOT
ATOM      1  C   UNL     1       2.651   5.612  19.278  0.00  0.00    +0.000 C 
ATOM      2  F   UNL     1       3.881   6.108  19.673  0.00  0.00    +0.000 F 
ATOM      3  C   UNL     1       1.737   5.609  20.493  0.00  0.00    +0.000 C 
ATOM      4  C   UNL     1       1.807   6.968  21.156  0.00  0.00    +0.000 C 
ATOM      5  N   UNL     1       1.427   8.008  20.206  0.00  0.00    +0.000 N 
ATOM      6  C   UNL     1       0.687   9.079  20.744  0.00  0.00    +0.000 C 
ATOM      7  O   UNL     1       0.362   9.124  21.908  0.00  0.00    +0.000 OA
ATOM      8  C   UNL     1       2.208   8.012  18.957  0.00  0.00    +0.000 C 
ATOM      9  C   UNL     1       2.129   6.645  18.261  0.00  0.00    +0.000 C 
ENDROOT
BRANCH   6  10
ATOM     10  C   UNL     1       0.293  10.136  19.820  0.00  0.00    +0.000 A 
ATOM     11  C   UNL     1      -0.610   9.996  18.795  0.00  0.00    +0.000 A 
ATOM     12  O   UNL     1      -0.793  11.157  18.128  0.00  0.00    +0.000 OA
ATOM     13  C   UNL     1      -0.013  12.078  18.749  0.00  0.00    +0.000 A 
ATOM     14  C   UNL     1       0.061  13.423  18.395  0.00  0.00    +0.000 A 
ATOM     15  C   UNL     1       0.922  14.222  19.153  0.00  0.00    +0.000 A 
ATOM     16  C   UNL     1       1.692  13.679  20.184  0.00  0.00    +0.000 A 
ATOM     17  C   UNL     1       1.612  12.315  20.499  0.00  0.00    +0.000 A 
ATOM     18  C   UNL     1       0.707  11.501  19.788  0.00  0.00    +0.000 A 
ENDBRANCH   6  10
BRANCH   1  19
ATOM     19  C   UNL     1       2.916   4.164  18.791  0.00  0.00    +0.000 C 
BRANCH  19  20
ATOM     20  N   UNL     1       3.254   4.323  17.384  0.00  0.00    +0.000 NA
ATOM     21  H   UNL     1       2.514   3.931  16.804  0.00  0.00    +0.000 HD
BRANCH  20  22
ATOM     22  C   UNL     1       4.541   3.931  16.859  0.00  0.00    +0.000 C 
BRANCH  22  27
ATOM     23  C   UNL     1       8.214   8.256  18.056  0.00  0.00    +0.000 C 
ATOM     24  C   UNL     1       7.326   7.094  17.749  0.00  0.00    +0.000 A 
ATOM     25  C   UNL     1       7.589   5.816  18.239  0.00  0.00    +0.000 A 
ATOM     26  C   UNL     1       6.717   4.770  17.928  0.00  0.00    +0.000 A 
ATOM     27  C   UNL     1       5.583   5.019  17.149  0.00  0.00    +0.000 A 
ATOM     28  N   UNL     1       5.317   6.258  16.661  0.00  0.00    +0.000 NA
ATOM     29  C   UNL     1       6.197   7.248  16.954  0.00  0.00    +0.000 A 
ENDBRANCH  22  27
ENDBRANCH  20  22
ENDBRANCH  19  20
ENDBRANCH   1  19
TORSDOF 5
ENDMDL
MODEL 4
REMARK VINA RESULT:      -7.3      1.672      2.637
REMARK  Name = 
REMARK  6 active torsions:
REMARK  status: ('A' for Active; 'I' for Inactive)
REMARK    1  A    between atoms: C_1  and  C_2
REMARK    2  A    between atoms: C_5  and  C_6
REMARK    3  A    between atoms: C_6  and  N_7
REMARK    4  A    between atoms: N_7  and  C_8
REMARK    5  A    between atoms: C_8  and  C_9
REMARK    6  A    between atoms: C_14  and  C_16
REMARK                            x       y       z     vdW  Elec       q    Type
REMARK                         _______ _______ _______ _____ _____    ______ ____
ROOT
ATOM      1  C   UNL     1       3.234   5.368  18.797  0.00  0.00    +0.000 C 
ATOM      2  F   UNL     1       2.090   4.911  18.167  0.00  0.00    +0.000 F 
ATOM      3  C   UNL     1       3.691   6.627  18.078  0.00  0.00    +0.000 C 
ATOM      4  C   UNL     1       2.507   7.559  17.931  0.00  0.00    +0.000 C 
ATOM      5  N   UNL     1       1.948   7.867  19.243  0.00  0.00    +0.000 N 
ATOM      6  C   UNL     1       1.477   9.184  19.406  0.00  0.00    +0.000 C 
ATOM      7  O   UNL     1       1.555  10.016  18.531  0.00  0.00    +0.000 OA
ATOM      8  C   UNL     1       1.569   6.688  20.040  0.00  0.00    +0.000 C 
ATOM      9  C   UNL     1       2.768   5.743  20.216  0.00  0.00    +0.000 C 
ENDROOT
BRANCH   6  10
ATOM     10  C   UNL     1       0.911   9.524  20.706  0.00  0.00    +0.000 A 
ATOM     11  C   UNL     1       1.343   9.030  21.912  0.00  0.00    +0.000 A 
ATOM     12  O   UNL     1       0.642   9.548  22.946  0.00  0.00    +0.000 OA
ATOM     13  C   UNL     1      -0.245  10.420  22.402  0.00  0.00    +0.000 A 
ATOM     14  C   UNL     1      -1.137  11.202  23.132  0.00  0.00    +0.000 A 
ATOM     15  C   UNL     1      -1.976  12.044  22.396  0.00  0.00    +0.000 A 
ATOM     16  C   UNL     1      -1.940  12.061  21.000  0.00  0.00    +0.000 A 
ATOM     17  C   UNL     1      -1.046  11.242  20.294  0.00  0.00    +0.000 A 
ATOM     18  C   UNL     1      -0.148  10.429  21.015  0.00  0.00    +0.000 A 
ENDBRANCH   6  10
BRANCH   1  19
ATOM     19  C   UNL     1       4.284   4.237  18.638  0.00  0.00    +0.000 C 
BRANCH  19  20
ATOM     20  N   UNL     1       4.714   4.350  17.252  0.00  0.00    +0.000 NA
ATOM     21  H   UNL     1       4.152   3.735  16.665  0.00  0.00    +0.000 HD
BRANCH  20  22
ATOM     22  C   UNL     1       6.102   4.248  16.872  0.00  0.00    +0.000 C 
BRANCH  22  27
ATOM     23  C   UNL     1       8.710   9.139  18.578  0.00  0.00    +0.000 C 
ATOM     24  C   UNL     1       8.093   7.840  18.172  0.00  0.00    +0.000 A 
ATOM     25  C   UNL     1       8.192   6.698  18.965  0.00  0.00    +0.000 A 
ATOM     26  C   UNL     1       7.586   5.513  18.540  0.00  0.00    +0.000 A 
ATOM     27  C   UNL     1       6.870   5.492  17.338  0.00  0.00    +0.000 A 
ATOM     28  N   UNL     1       6.769   6.596  16.554  0.00  0.00    +0.000 NA
ATOM     29  C   UNL     1       7.394   7.724  16.977  0.00  0.00    +0.000 A 
ENDBRANCH  22  27
ENDBRANCH  20  22
ENDBRANCH  19  20
ENDBRANCH   1  19
TORSDOF 5
ENDMDL
MODEL 5
REMARK VINA RESULT:      -7.1      3.590      8.205
REMARK  Name = 
REMARK  6 active torsions:
REMARK  status: ('A' for Active; 'I' for Inactive)
REMARK    1  A    between atoms: C_1  and  C_2
REMARK    2  A    between atoms: C_5  and  C_6
REMARK    3  A    between atoms: C_6  and  N_7
REMARK    4  A    between atoms: N_7  and  C_8
REMARK    5  A    between atoms: C_8  and  C_9
REMARK    6  A    between atoms: C_14  and  C_16
REMARK                            x       y       z     vdW  Elec       q    Type
REMARK                         _______ _______ _______ _____ _____    ______ ____
ROOT
ATOM      1  C   UNL     1       2.517   5.720  19.498  0.00  0.00    +0.000 C 
ATOM      2  F   UNL     1       1.455   5.734  18.610  0.00  0.00    +0.000 F 
ATOM      3  C   UNL     1       2.954   4.275  19.678  0.00  0.00    +0.000 C 
ATOM      4  C   UNL     1       3.126   3.647  18.311  0.00  0.00    +0.000 C 
ATOM      5  N   UNL     1       4.098   4.405  17.530  0.00  0.00    +0.000 N 
ATOM      6  C   UNL     1       4.939   3.639  16.701  0.00  0.00    +0.000 C 
ATOM      7  O   UNL     1       4.882   2.432  16.656  0.00  0.00    +0.000 OA
ATOM      8  C   UNL     1       3.789   5.839  17.394  0.00  0.00    +0.000 C 
ATOM      9  C   UNL     1       3.633   6.496  18.775  0.00  0.00    +0.000 C 
ENDROOT
BRANCH   6  10
ATOM     10  C   UNL     1       5.920   4.368  15.906  0.00  0.00    +0.000 A 
ATOM     11  C   UNL     1       6.804   5.297  16.397  0.00  0.00    +0.000 A 
ATOM     12  O   UNL     1       7.610   5.783  15.426  0.00  0.00    +0.000 OA
ATOM     13  C   UNL     1       7.261   5.135  14.285  0.00  0.00    +0.000 A 
ATOM     14  C   UNL     1       7.879   5.316  13.050  0.00  0.00    +0.000 A 
ATOM     15  C   UNL     1       7.381   4.559  11.986  0.00  0.00    +0.000 A 
ATOM     16  C   UNL     1       6.294   3.699  12.156  0.00  0.00    +0.000 A 
ATOM     17  C   UNL     1       5.678   3.558  13.409  0.00  0.00    +0.000 A 
ATOM     18  C   UNL     1       6.200   4.265  14.511  0.00  0.00    +0.000 A 
ENDBRANCH   6  10
BRANCH   1  19
ATOM     19  C   UNL     1       1.962   6.291  20.829  0.00  0.00    +0.000 C 
BRANCH  19  20
ATOM     20  N   UNL     1       1.850   7.721  20.578  0.00  0.00    +0.000 NA
ATOM     21  H   UNL     1       2.765   8.160  20.669  0.00  0.00    +0.000 HD
BRANCH  20  22
ATOM     22  C   UNL     1       0.854   8.535  21.231  0.00  0.00    +0.000 C 
BRANCH  22  27
ATOM     23  C   UNL     1       0.805  13.778  18.753  0.00  0.00    +0.000 C 
ATOM     24  C   UNL     1       0.761  12.407  19.346  0.00  0.00    +0.000 A 
ATOM     25  C   UNL     1       0.406  11.290  18.593  0.00  0.00    +0.000 A 
ATOM     26  C   UNL     1       0.393  10.031  19.198  0.00  0.00    +0.000 A 
ATOM     27  C   UNL     1       0.755   9.903  20.543  0.00  0.00    +0.000 A 
ATOM     28  N   UNL     1       1.099  10.984  21.289  0.00  0.00    +0.000 NA
ATOM     29  C   UNL     1       1.073  12.197  20.683  0.00  0.00    +0.000 A 
ENDBRANCH  22  27
ENDBRANCH  20  22
ENDBRANCH  19  20
ENDBRANCH   1  19
TORSDOF 5
ENDMDL
MODEL 6
REMARK VINA RESULT:      -7.1      3.460      7.755
REMARK  Name = 
REMARK  6 active torsions:
REMARK  status: ('A' for Active; 'I' for Inactive)
REMARK    1  A    between atoms: C_1  and  C_2
REMARK    2  A    between atoms: C_5  and  C_6
REMARK    3  A    between atoms: C_6  and  N_7
REMARK    4  A    between atoms: N_7  and  C_8
REMARK    5  A    between atoms: C_8  and  C_9
REMARK    6  A    between atoms: C_14  and  C_16
REMARK                            x       y       z     vdW  Elec       q    Type
REMARK                         _______ _______ _______ _____ _____    ______ ____
ROOT
ATOM      1  C   UNL     1       0.503   9.673  19.606  0.00  0.00    +0.000 C 
ATOM      2  F   UNL     1       1.512  10.424  20.184  0.00  0.00    +0.000 F 
ATOM      3  C   UNL     1       0.782   9.588  18.114  0.00  0.00    +0.000 C 
ATOM      4  C   UNL     1       2.222   9.168  17.913  0.00  0.00    +0.000 C 
ATOM      5  N   UNL     1       2.468   7.891  18.575  0.00  0.00    +0.000 N 
ATOM      6  C   UNL     1       3.340   7.017  17.899  0.00  0.00    +0.000 C 
ATOM      7  O   UNL     1       3.833   7.289  16.829  0.00  0.00    +0.000 OA
ATOM      8  C   UNL     1       2.128   7.869  20.008  0.00  0.00    +0.000 C 
ATOM      9  C   UNL     1       0.662   8.273  20.226  0.00  0.00    +0.000 C 
ENDROOT
BRANCH   6  10
ATOM     10  C   UNL     1       3.608   5.733  18.536  0.00  0.00    +0.000 A 
ATOM     11  C   UNL     1       4.750   5.414  19.229  0.00  0.00    +0.000 A 
ATOM     12  O   UNL     1       4.698   4.160  19.730  0.00  0.00    +0.000 OA
ATOM     13  C   UNL     1       3.485   3.662  19.381  0.00  0.00    +0.000 A 
ATOM     14  C   UNL     1       3.012   2.402  19.737  0.00  0.00    +0.000 A 
ATOM     15  C   UNL     1       1.734   2.063  19.284  0.00  0.00    +0.000 A 
ATOM     16  C   UNL     1       0.996   2.935  18.482  0.00  0.00    +0.000 A 
ATOM     17  C   UNL     1       1.512   4.189  18.121  0.00  0.00    +0.000 A 
ATOM     18  C   UNL     1       2.773   4.578  18.615  0.00  0.00    +0.000 A 
ENDBRANCH   6  10
BRANCH   1  19
ATOM     19  C   UNL     1      -0.810  10.455  19.871  0.00  0.00    +0.000 C 
BRANCH  19  20
ATOM     20  N   UNL     1      -0.374  11.838  20.006  0.00  0.00    +0.000 NA
ATOM     21  H   UNL     1      -0.571  12.172  20.948  0.00  0.00    +0.000 HD
BRANCH  20  22
ATOM     22  C   UNL     1      -0.742  12.851  19.046  0.00  0.00    +0.000 C 
BRANCH  22  27
ATOM     23  C   UNL     1       3.781  16.369  18.151  0.00  0.00    +0.000 C 
ATOM     24  C   UNL     1       2.642  15.417  18.327  0.00  0.00    +0.000 A 
ATOM     25  C   UNL     1       2.791  14.045  18.131  0.00  0.00    +0.000 A 
ATOM     26  C   UNL     1       1.694  13.202  18.322  0.00  0.00    +0.000 A 
ATOM     27  C   UNL     1       0.468  13.739  18.727  0.00  0.00    +0.000 A 
ATOM     28  N   UNL     1       0.308  15.073  18.917  0.00  0.00    +0.000 NA
ATOM     29  C   UNL     1       1.382  15.871  18.695  0.00  0.00    +0.000 A 
ENDBRANCH  22  27
ENDBRANCH  20  22
ENDBRANCH  19  20
ENDBRANCH   1  19
TORSDOF 5
ENDMDL
MODEL 7
REMARK VINA RESULT:      -7.0      3.277      8.925
REMARK  Name = 
REMARK  6 active torsions:
REMARK  status: ('A' for Active; 'I' for Inactive)
REMARK    1  A    between atoms: C_1  and  C_2
REMARK    2  A    between atoms: C_5  and  C_6
REMARK    3  A    between atoms: C_6  and  N_7
REMARK    4  A    between atoms: N_7  and  C_8
REMARK    5  A    between atoms: C_8  and  C_9
REMARK    6  A    between atoms: C_14  and  C_16
REMARK                            x       y       z     vdW  Elec       q    Type
REMARK                         _______ _______ _______ _____ _____    ______ ____
ROOT
ATOM      1  C   UNL     1       0.854   9.272  19.474  0.00  0.00    +0.000 C 
ATOM      2  F   UNL     1       1.837   9.972  20.152  0.00  0.00    +0.000 F 
ATOM      3  C   UNL     1       1.208   9.285  17.996  0.00  0.00    +0.000 C 
ATOM      4  C   UNL     1       2.653   8.865  17.840  0.00  0.00    +0.000 C 
ATOM      5  N   UNL     1       2.857   7.544  18.426  0.00  0.00    +0.000 N 
ATOM      6  C   UNL     1       3.757   6.708  17.737  0.00  0.00    +0.000 C 
ATOM      7  O   UNL     1       4.305   7.046  16.714  0.00  0.00    +0.000 OA
ATOM      8  C   UNL     1       2.445   7.429  19.835  0.00  0.00    +0.000 C 
ATOM      9  C   UNL     1       0.971   7.832  20.006  0.00  0.00    +0.000 C 
ENDROOT
BRANCH   6  10
ATOM     10  C   UNL     1       3.983   5.382  18.299  0.00  0.00    +0.000 A 
ATOM     11  C   UNL     1       5.171   4.935  18.823  0.00  0.00    +0.000 A 
ATOM     12  O   UNL     1       5.067   3.672  19.293  0.00  0.00    +0.000 OA
ATOM     13  C   UNL     1       3.777   3.300  19.099  0.00  0.00    +0.000 A 
ATOM     14  C   UNL     1       3.238   2.075  19.483  0.00  0.00    +0.000 A 
ATOM     15  C   UNL     1       1.885   1.871  19.198  0.00  0.00    +0.000 A 
ATOM     16  C   UNL     1       1.133   2.837  18.526  0.00  0.00    +0.000 A 
ATOM     17  C   UNL     1       1.713   4.051  18.131  0.00  0.00    +0.000 A 
ATOM     18  C   UNL     1       3.060   4.305  18.460  0.00  0.00    +0.000 A 
ENDBRANCH   6  10
BRANCH   1  19
ATOM     19  C   UNL     1      -0.466  10.048  19.726  0.00  0.00    +0.000 C 
BRANCH  19  20
ATOM     20  N   UNL     1      -0.831  10.555  18.411  0.00  0.00    +0.000 NA
ATOM     21  H   UNL     1      -0.055  10.426  17.763  0.00  0.00    +0.000 HD
BRANCH  20  22
ATOM     22  C   UNL     1      -1.400  11.869  18.230  0.00  0.00    +0.000 C 
BRANCH  22  27
ATOM     23  C   UNL     1      -7.198  11.891  18.358  0.00  0.00    +0.000 C 
ATOM     24  C   UNL     1      -5.707  11.825  18.280  0.00  0.00    +0.000 A 
ATOM     25  C   UNL     1      -5.048  11.377  17.136  0.00  0.00    +0.000 A 
ATOM     26  C   UNL     1      -3.651  11.348  17.116  0.00  0.00    +0.000 A 
ATOM     27  C   UNL     1      -2.931  11.787  18.232  0.00  0.00    +0.000 A 
ATOM     28  N   UNL     1      -3.560  12.220  19.355  0.00  0.00    +0.000 NA
ATOM     29  C   UNL     1      -4.917  12.209  19.357  0.00  0.00    +0.000 A 
ENDBRANCH  22  27
ENDBRANCH  20  22
ENDBRANCH  19  20
ENDBRANCH   1  19
TORSDOF 5
ENDMDL
MODEL 8
REMARK VINA RESULT:      -7.0      3.684      8.442
REMARK  Name = 
REMARK  6 active torsions:
REMARK  status: ('A' for Active; 'I' for Inactive)
REMARK    1  A    between atoms: C_1  and  C_2
REMARK    2  A    between atoms: C_5  and  C_6
REMARK    3  A    between atoms: C_6  and  N_7
REMARK    4  A    between atoms: N_7  and  C_8
REMARK    5  A    between atoms: C_8  and  C_9
REMARK    6  A    between atoms: C_14  and  C_16
REMARK                            x       y       z     vdW  Elec       q    Type
REMARK                         _______ _______ _______ _____ _____    ______ ____
ROOT
ATOM      1  C   UNL     1       2.492   5.575  19.593  0.00  0.00    +0.000 C 
ATOM      2  F   UNL     1       1.434   5.632  18.702  0.00  0.00    +0.000 F 
ATOM      3  C   UNL     1       2.905   4.118  19.730  0.00  0.00    +0.000 C 
ATOM      4  C   UNL     1       3.072   3.528  18.347  0.00  0.00    +0.000 C 
ATOM      5  N   UNL     1       4.059   4.294  17.591  0.00  0.00    +0.000 N 
ATOM      6  C   UNL     1       4.890   3.539  16.742  0.00  0.00    +0.000 C 
ATOM      7  O   UNL     1       4.814   2.334  16.661  0.00  0.00    +0.000 OA
ATOM      8  C   UNL     1       3.773   5.736  17.497  0.00  0.00    +0.000 C 
ATOM      9  C   UNL     1       3.623   6.353  18.896  0.00  0.00    +0.000 C 
ENDROOT
BRANCH   6  10
ATOM     10  C   UNL     1       5.885   4.275  15.972  0.00  0.00    +0.000 A 
ATOM     11  C   UNL     1       6.795   5.161  16.495  0.00  0.00    +0.000 A 
ATOM     12  O   UNL     1       7.607   5.667  15.540  0.00  0.00    +0.000 OA
ATOM     13  C   UNL     1       7.237   5.075  14.376  0.00  0.00    +0.000 A 
ATOM     14  C   UNL     1       7.853   5.291  13.146  0.00  0.00    +0.000 A 
ATOM     15  C   UNL     1       7.332   4.590  12.055  0.00  0.00    +0.000 A 
ATOM     16  C   UNL     1       6.224   3.751  12.196  0.00  0.00    +0.000 A 
ATOM     17  C   UNL     1       5.612   3.575  13.445  0.00  0.00    +0.000 A 
ATOM     18  C   UNL     1       6.156   4.223  14.572  0.00  0.00    +0.000 A 
ENDBRANCH   6  10
BRANCH   1  19
ATOM     19  C   UNL     1       1.941   6.115  20.938  0.00  0.00    +0.000 C 
BRANCH  19  20
ATOM     20  N   UNL     1       2.082   7.559  20.820  0.00  0.00    +0.000 NA
ATOM     21  H   UNL     1       2.198   7.972  21.745  0.00  0.00    +0.000 HD
BRANCH  20  22
ATOM     22  C   UNL     1       1.161   8.355  20.046  0.00  0.00    +0.000 C 
BRANCH  22  27
ATOM     23  C   UNL     1      -1.236  12.705  23.040  0.00  0.00    +0.000 C 
ATOM     24  C   UNL     1      -0.607  11.548  22.334  0.00  0.00    +0.000 A 
ATOM     25  C   UNL     1      -0.730  10.242  22.804  0.00  0.00    +0.000 A 
ATOM     26  C   UNL     1      -0.131   9.198  22.096  0.00  0.00    +0.000 A 
ATOM     27  C   UNL     1       0.567   9.471  20.915  0.00  0.00    +0.000 A 
ATOM     28  N   UNL     1       0.699  10.739  20.448  0.00  0.00    +0.000 NA
ATOM     29  C   UNL     1       0.131  11.736  21.172  0.00  0.00    +0.000 A 
ENDBRANCH  22  27
ENDBRANCH  20  22
ENDBRANCH  19  20
ENDBRANCH   1  19
TORSDOF 5
ENDMDL
MODEL 9
REMARK VINA RESULT:      -7.0      2.858      7.623
REMARK  Name = 
REMARK  6 active torsions:
REMARK  status: ('A' for Active; 'I' for Inactive)
REMARK    1  A    between atoms: C_1  and  C_2
REMARK    2  A    between atoms: C_5  and  C_6
REMARK    3  A    between atoms: C_6  and  N_7
REMARK    4  A    between atoms: N_7  and  C_8
REMARK    5  A    between atoms: C_8  and  C_9
REMARK    6  A    between atoms: C_14  and  C_16
REMARK                            x       y       z     vdW  Elec       q    Type
REMARK                         _______ _______ _______ _____ _____    ______ ____
ROOT
ATOM      1  C   UNL     1       0.668   8.762  21.304  0.00  0.00    +0.000 C 
ATOM      2  F   UNL     1       1.767   9.438  21.804  0.00  0.00    +0.000 F 
ATOM      3  C   UNL     1       0.371   9.316  19.919  0.00  0.00    +0.000 C 
ATOM      4  C   UNL     1       1.654   9.334  19.118  0.00  0.00    +0.000 C 
ATOM      5  N   UNL     1       2.218   7.989  19.045  0.00  0.00    +0.000 N 
ATOM      6  C   UNL     1       2.829   7.655  17.821  0.00  0.00    +0.000 C 
ATOM      7  O   UNL     1       2.864   8.416  16.882  0.00  0.00    +0.000 OA
ATOM      8  C   UNL     1       2.444   7.349  20.351  0.00  0.00    +0.000 C 
ATOM      9  C   UNL     1       1.144   7.303  21.168  0.00  0.00    +0.000 C 
ENDROOT
BRANCH   6  10
ATOM     10  C   UNL     1       3.403   6.319  17.717  0.00  0.00    +0.000 A 
ATOM     11  C   UNL     1       4.729   6.042  17.490  0.00  0.00    +0.000 A 
ATOM     12  O   UNL     1       4.966   4.711  17.472  0.00  0.00    +0.000 OA
ATOM     13  C   UNL     1       3.775   4.111  17.723  0.00  0.00    +0.000 A 
ATOM     14  C   UNL     1       3.587   2.735  17.831  0.00  0.00    +0.000 A 
ATOM     15  C   UNL     1       2.285   2.301  18.093  0.00  0.00    +0.000 A 
ATOM     16  C   UNL     1       1.228   3.207  18.198  0.00  0.00    +0.000 A 
ATOM     17  C   UNL     1       1.447   4.586  18.060  0.00  0.00    +0.000 A 
ATOM     18  C   UNL     1       2.761   5.052  17.856  0.00  0.00    +0.000 A 
ENDBRANCH   6  10
BRANCH   1  19
ATOM     19  C   UNL     1      -0.499   9.072  22.278  0.00  0.00    +0.000 C 
BRANCH  19  20
ATOM     20  N   UNL     1      -0.148  10.366  22.844  0.00  0.00    +0.000 NA
ATOM     21  H   UNL     1      -0.005  10.276  23.849  0.00  0.00    +0.000 HD
BRANCH  20  22
ATOM     22  C   UNL     1      -0.920  11.554  22.568  0.00  0.00    +0.000 C 
BRANCH  22  27
ATOM     23  C   UNL     1       1.863  14.401  18.351  0.00  0.00    +0.000 C 
ATOM     24  C   UNL     1       1.083  13.706  19.420  0.00  0.00    +0.000 A 
ATOM     25  C   UNL     1      -0.275  13.429  19.280  0.00  0.00    +0.000 A 
ATOM     26  C   UNL     1      -0.950  12.766  20.307  0.00  0.00    +0.000 A 
ATOM     27  C   UNL     1      -0.253  12.370  21.454  0.00  0.00    +0.000 A 
ATOM     28  N   UNL     1       1.069  12.638  21.606  0.00  0.00    +0.000 NA
ATOM     29  C   UNL     1       1.692  13.309  20.605  0.00  0.00    +0.000 A 
ENDBRANCH  22  27
ENDBRANCH  20  22
ENDBRANCH  19  20
ENDBRANCH   1  19
TORSDOF 5
ENDMDL
