MODEL 1
REMARK VINA RESULT:      -7.2      0.000      0.000
REMARK  Name = 
REMARK  4 active torsions:
REMARK  status: ('A' for Active; 'I' for Inactive)
REMARK    1  A    between atoms: C_1  and  O_2
REMARK    2  A    between atoms: O_2  and  C_3
REMARK    3  A    between atoms: C_8  and  O_9
REMARK    4  A    between atoms: O_9  and  C_10
REMARK                            x       y       z     vdW  Elec       q    Type
REMARK                         _______ _______ _______ _____ _____    ______ ____
ROOT
ATOM      1  C   UNL     1       3.690   4.686  18.373  0.00  0.00    +0.000 A 
ATOM      2  N   UNL     1       3.499   5.907  17.937  0.00  0.00    +0.000 NA
ATOM      3  C   UNL     1       2.697   6.713  18.794  0.00  0.00    +0.000 A 
ATOM      4  C   UNL     1       2.376   8.065  18.528  0.00  0.00    +0.000 A 
ATOM      5  C   UNL     1       1.617   8.609  19.549  0.00  0.00    +0.000 A 
ATOM      6  S   UNL     1       1.282   7.469  20.795  0.00  0.00    +0.000 S 
ATOM      7  C   UNL     1       2.168   6.277  19.992  0.00  0.00    +0.000 A 
ATOM      8  C   UNL     1       2.426   4.959  20.416  0.00  0.00    +0.000 A 
ATOM      9  N   UNL     1       2.124   4.269  21.487  0.00  0.00    +0.000 NA
ATOM     10  N   UNL     1       2.734   3.040  21.297  0.00  0.00    +0.000 NA
ATOM     11  N   UNL     1       3.387   2.991  20.137  0.00  0.00    +0.000 NA
ATOM     12  N   UNL     1       3.187   4.199  19.581  0.00  0.00    +0.000 N 
ENDROOT
BRANCH   1  13
ATOM     13  O   UNL     1       4.438   3.686  17.763  0.00  0.00    +0.000 OA
BRANCH  13  19
ATOM     14  C   UNL     1       6.664   4.452  17.073  0.00  0.00    +0.000 A 
ATOM     15  C   UNL     1       7.503   4.843  16.025  0.00  0.00    +0.000 A 
ATOM     16  C   UNL     1       7.034   4.850  14.706  0.00  0.00    +0.000 A 
ATOM     17  C   UNL     1       5.728   4.453  14.421  0.00  0.00    +0.000 A 
ATOM     18  C   UNL     1       4.894   4.023  15.452  0.00  0.00    +0.000 A 
ATOM     19  C   UNL     1       5.376   4.002  16.763  0.00  0.00    +0.000 A 
BRANCH  14  21
ATOM     20  C   UNL     1       7.448   5.753  18.879  0.00  0.00    +0.000 C 
ATOM     21  O   UNL     1       7.019   4.484  18.396  0.00  0.00    +0.000 OA
ENDBRANCH  14  21
ENDBRANCH  13  19
ENDBRANCH   1  13
TORSDOF 3
ENDMDL
MODEL 2
REMARK VINA RESULT:      -7.2      3.057      5.883
REMARK  Name = 
REMARK  4 active torsions:
REMARK  status: ('A' for Active; 'I' for Inactive)
REMARK    1  A    between atoms: C_1  and  O_2
REMARK    2  A    between atoms: O_2  and  C_3
REMARK    3  A    between atoms: C_8  and  O_9
REMARK    4  A    between atoms: O_9  and  C_10
REMARK                            x       y       z     vdW  Elec       q    Type
REMARK                         _______ _______ _______ _____ _____    ______ ____
ROOT
ATOM      1  C   UNL     1       5.269   4.012  18.132  0.00  0.00    +0.000 A 
ATOM      2  N   UNL     1       4.872   3.480  17.003  0.00  0.00    +0.000 NA
ATOM      3  C   UNL     1       5.576   3.950  15.857  0.00  0.00    +0.000 A 
ATOM      4  C   UNL     1       5.323   3.500  14.541  0.00  0.00    +0.000 A 
ATOM      5  C   UNL     1       6.181   4.098  13.634  0.00  0.00    +0.000 A 
ATOM      6  S   UNL     1       7.255   5.213  14.388  0.00  0.00    +0.000 S 
ATOM      7  C   UNL     1       6.601   4.873  15.906  0.00  0.00    +0.000 A 
ATOM      8  C   UNL     1       6.995   5.395  17.154  0.00  0.00    +0.000 A 
ATOM      9  N   UNL     1       7.932   6.222  17.542  0.00  0.00    +0.000 NA
ATOM     10  N   UNL     1       7.812   6.268  18.921  0.00  0.00    +0.000 NA
ATOM     11  N   UNL     1       6.823   5.486  19.353  0.00  0.00    +0.000 NA
ATOM     12  N   UNL     1       6.306   4.942  18.237  0.00  0.00    +0.000 N 
ENDROOT
BRANCH   1  13
ATOM     13  O   UNL     1       4.783   3.737  19.404  0.00  0.00    +0.000 OA
BRANCH  13  19
ATOM     14  C   UNL     1       2.659   4.877  19.864  0.00  0.00    +0.000 A 
ATOM     15  C   UNL     1       1.309   4.757  20.205  0.00  0.00    +0.000 A 
ATOM     16  C   UNL     1       0.734   3.496  20.398  0.00  0.00    +0.000 A 
ATOM     17  C   UNL     1       1.499   2.342  20.237  0.00  0.00    +0.000 A 
ATOM     18  C   UNL     1       2.837   2.445  19.858  0.00  0.00    +0.000 A 
ATOM     19  C   UNL     1       3.398   3.708  19.651  0.00  0.00    +0.000 A 
BRANCH  14  21
ATOM     20  C   UNL     1       2.888   6.879  18.636  0.00  0.00    +0.000 C 
ATOM     21  O   UNL     1       3.317   6.070  19.728  0.00  0.00    +0.000 OA
ENDBRANCH  14  21
ENDBRANCH  13  19
ENDBRANCH   1  13
TORSDOF 3
ENDMDL
MODEL 3
REMARK VINA RESULT:      -7.1      3.059      5.360
REMARK  Name = 
REMARK  4 active torsions:
REMARK  status: ('A' for Active; 'I' for Inactive)
REMARK    1  A    between atoms: C_1  and  O_2
REMARK    2  A    between atoms: O_2  and  C_3
REMARK    3  A    between atoms: C_8  and  O_9
REMARK    4  A    between atoms: O_9  and  C_10
REMARK                            x       y       z     vdW  Elec       q    Type
REMARK                         _______ _______ _______ _____ _____    ______ ____
ROOT
ATOM      1  C   UNL     1       1.979   7.609  20.301  0.00  0.00    +0.000 A 
ATOM      2  N   UNL     1       1.410   7.701  21.476  0.00  0.00    +0.000 NA
ATOM      3  C   UNL     1       0.619   8.873  21.651  0.00  0.00    +0.000 A 
ATOM      4  C   UNL     1      -0.096   9.168  22.834  0.00  0.00    +0.000 A 
ATOM      5  C   UNL     1      -0.805  10.350  22.708  0.00  0.00    +0.000 A 
ATOM      6  S   UNL     1      -0.569  11.095  21.174  0.00  0.00    +0.000 S 
ATOM      7  C   UNL     1       0.440   9.835  20.679  0.00  0.00    +0.000 A 
ATOM      8  C   UNL     1       1.064   9.669  19.426  0.00  0.00    +0.000 A 
ATOM      9  N   UNL     1       1.061  10.348  18.307  0.00  0.00    +0.000 NA
ATOM     10  N   UNL     1       1.845   9.604  17.441  0.00  0.00    +0.000 NA
ATOM     11  N   UNL     1       2.311   8.502  18.027  0.00  0.00    +0.000 NA
ATOM     12  N   UNL     1       1.823   8.548  19.279  0.00  0.00    +0.000 N 
ENDROOT
BRANCH   1  13
ATOM     13  O   UNL     1       2.788   6.577  19.840  0.00  0.00    +0.000 OA
BRANCH  13  19
ATOM     14  C   UNL     1       2.384   4.671  18.349  0.00  0.00    +0.000 A 
ATOM     15  C   UNL     1       1.733   3.450  18.148  0.00  0.00    +0.000 A 
ATOM     16  C   UNL     1       0.909   2.913  19.143  0.00  0.00    +0.000 A 
ATOM     17  C   UNL     1       0.740   3.583  20.354  0.00  0.00    +0.000 A 
ATOM     18  C   UNL     1       1.415   4.780  20.583  0.00  0.00    +0.000 A 
ATOM     19  C   UNL     1       2.249   5.301  19.591  0.00  0.00    +0.000 A 
BRANCH  14  21
ATOM     20  C   UNL     1       4.466   4.784  17.243  0.00  0.00    +0.000 C 
ATOM     21  O   UNL     1       3.149   5.301  17.403  0.00  0.00    +0.000 OA
ENDBRANCH  14  21
ENDBRANCH  13  19
ENDBRANCH   1  13
TORSDOF 3
ENDMDL
MODEL 4
REMARK VINA RESULT:      -7.0      3.160      5.700
REMARK  Name = 
REMARK  4 active torsions:
REMARK  status: ('A' for Active; 'I' for Inactive)
REMARK    1  A    between atoms: C_1  and  O_2
REMARK    2  A    between atoms: O_2  and  C_3
REMARK    3  A    between atoms: C_8  and  O_9
REMARK    4  A    between atoms: O_9  and  C_10
REMARK                            x       y       z     vdW  Elec       q    Type
REMARK                         _______ _______ _______ _____ _____    ______ ____
ROOT
ATOM      1  C   UNL     1       4.805   5.232  18.462  0.00  0.00    +0.000 A 
ATOM      2  N   UNL     1       4.242   5.067  17.291  0.00  0.00    +0.000 NA
ATOM      3  C   UNL     1       5.165   4.864  16.224  0.00  0.00    +0.000 A 
ATOM      4  C   UNL     1       4.778   4.650  14.881  0.00  0.00    +0.000 A 
ATOM      5  C   UNL     1       5.879   4.446  14.070  0.00  0.00    +0.000 A 
ATOM      6  S   UNL     1       7.361   4.545  14.941  0.00  0.00    +0.000 S 
ATOM      7  C   UNL     1       6.535   4.824  16.385  0.00  0.00    +0.000 A 
ATOM      8  C   UNL     1       7.079   4.989  17.675  0.00  0.00    +0.000 A 
ATOM      9  N   UNL     1       8.292   4.957  18.164  0.00  0.00    +0.000 NA
ATOM     10  N   UNL     1       8.127   5.141  19.527  0.00  0.00    +0.000 NA
ATOM     11  N   UNL     1       6.842   5.281  19.850  0.00  0.00    +0.000 NA
ATOM     12  N   UNL     1       6.184   5.190  18.681  0.00  0.00    +0.000 N 
ENDROOT
BRANCH   1  13
ATOM     13  O   UNL     1       4.164   5.431  19.679  0.00  0.00    +0.000 OA
BRANCH  13  19
ATOM     14  C   UNL     1       3.355   3.190  20.264  0.00  0.00    +0.000 A 
ATOM     15  C   UNL     1       2.262   2.379  20.585  0.00  0.00    +0.000 A 
ATOM     16  C   UNL     1       0.974   2.922  20.666  0.00  0.00    +0.000 A 
ATOM     17  C   UNL     1       0.770   4.283  20.443  0.00  0.00    +0.000 A 
ATOM     18  C   UNL     1       1.856   5.110  20.162  0.00  0.00    +0.000 A 
ATOM     19  C   UNL     1       3.140   4.563  20.099  0.00  0.00    +0.000 A 
BRANCH  14  21
ATOM     20  C   UNL     1       4.926   1.497  20.748  0.00  0.00    +0.000 C 
ATOM     21  O   UNL     1       4.633   2.728  20.093  0.00  0.00    +0.000 OA
ENDBRANCH  14  21
ENDBRANCH  13  19
ENDBRANCH   1  13
TORSDOF 3
ENDMDL
MODEL 5
REMARK VINA RESULT:      -6.8      3.245      6.039
REMARK  Name = 
REMARK  4 active torsions:
REMARK  status: ('A' for Active; 'I' for Inactive)
REMARK    1  A    between atoms: C_1  and  O_2
REMARK    2  A    between atoms: O_2  and  C_3
REMARK    3  A    between atoms: C_8  and  O_9
REMARK    4  A    between atoms: O_9  and  C_10
REMARK                            x       y       z     vdW  Elec       q    Type
REMARK                         _______ _______ _______ _____ _____    ______ ____
ROOT
ATOM      1  C   UNL     1       5.717   4.394  17.971  0.00  0.00    +0.000 A 
ATOM      2  N   UNL     1       5.339   3.636  16.972  0.00  0.00    +0.000 NA
ATOM      3  C   UNL     1       5.862   4.033  15.708  0.00  0.00    +0.000 A 
ATOM      4  C   UNL     1       5.597   3.350  14.498  0.00  0.00    +0.000 A 
ATOM      5  C   UNL     1       6.265   3.934  13.437  0.00  0.00    +0.000 A 
ATOM      6  S   UNL     1       7.177   5.314  13.918  0.00  0.00    +0.000 S 
ATOM      7  C   UNL     1       6.707   5.108  15.526  0.00  0.00    +0.000 A 
ATOM      8  C   UNL     1       7.094   5.874  16.644  0.00  0.00    +0.000 A 
ATOM      9  N   UNL     1       7.895   6.894  16.819  0.00  0.00    +0.000 NA
ATOM     10  N   UNL     1       7.870   7.132  18.183  0.00  0.00    +0.000 NA
ATOM     11  N   UNL     1       7.070   6.274  18.815  0.00  0.00    +0.000 NA
ATOM     12  N   UNL     1       6.578   5.486  17.843  0.00  0.00    +0.000 N 
ENDROOT
BRANCH   1  13
ATOM     13  O   UNL     1       5.383   4.242  19.311  0.00  0.00    +0.000 OA
BRANCH  13  19
ATOM     14  C   UNL     1       3.265   3.164  19.922  0.00  0.00    +0.000 A 
ATOM     15  C   UNL     1       1.912   3.321  20.236  0.00  0.00    +0.000 A 
ATOM     16  C   UNL     1       1.336   4.596  20.282  0.00  0.00    +0.000 A 
ATOM     17  C   UNL     1       2.111   5.727  20.029  0.00  0.00    +0.000 A 
ATOM     18  C   UNL     1       3.471   5.588  19.755  0.00  0.00    +0.000 A 
ATOM     19  C   UNL     1       4.041   4.312  19.727  0.00  0.00    +0.000 A 
BRANCH  14  21
ATOM     20  C   UNL     1       3.577   1.240  18.591  0.00  0.00    +0.000 C 
ATOM     21  O   UNL     1       3.888   1.952  19.785  0.00  0.00    +0.000 OA
ENDBRANCH  14  21
ENDBRANCH  13  19
ENDBRANCH   1  13
TORSDOF 3
ENDMDL
MODEL 6
REMARK VINA RESULT:      -6.8      2.876      5.844
REMARK  Name = 
REMARK  4 active torsions:
REMARK  status: ('A' for Active; 'I' for Inactive)
REMARK    1  A    between atoms: C_1  and  O_2
REMARK    2  A    between atoms: O_2  and  C_3
REMARK    3  A    between atoms: C_8  and  O_9
REMARK    4  A    between atoms: O_9  and  C_10
REMARK                            x       y       z     vdW  Elec       q    Type
REMARK                         _______ _______ _______ _____ _____    ______ ____
ROOT
ATOM      1  C   UNL     1       3.419   6.051  18.729  0.00  0.00    +0.000 A 
ATOM      2  N   UNL     1       4.609   6.460  18.366  0.00  0.00    +0.000 NA
ATOM      3  C   UNL     1       5.246   5.620  17.408  0.00  0.00    +0.000 A 
ATOM      4  C   UNL     1       6.527   5.878  16.865  0.00  0.00    +0.000 A 
ATOM      5  C   UNL     1       6.877   4.918  15.932  0.00  0.00    +0.000 A 
ATOM      6  S   UNL     1       5.666   3.708  15.751  0.00  0.00    +0.000 S 
ATOM      7  C   UNL     1       4.677   4.479  16.881  0.00  0.00    +0.000 A 
ATOM      8  C   UNL     1       3.384   4.102  17.299  0.00  0.00    +0.000 A 
ATOM      9  N   UNL     1       2.565   3.136  16.970  0.00  0.00    +0.000 NA
ATOM     10  N   UNL     1       1.424   3.372  17.720  0.00  0.00    +0.000 NA
ATOM     11  N   UNL     1       1.556   4.456  18.484  0.00  0.00    +0.000 NA
ATOM     12  N   UNL     1       2.793   4.911  18.221  0.00  0.00    +0.000 N 
ENDROOT
BRANCH   1  13
ATOM     13  O   UNL     1       2.560   6.671  19.628  0.00  0.00    +0.000 OA
BRANCH  13  19
ATOM     14  C   UNL     1       1.363   8.696  20.325  0.00  0.00    +0.000 A 
ATOM     15  C   UNL     1       0.773   9.905  19.944  0.00  0.00    +0.000 A 
ATOM     16  C   UNL     1       0.787  10.311  18.604  0.00  0.00    +0.000 A 
ATOM     17  C   UNL     1       1.404   9.520  17.636  0.00  0.00    +0.000 A 
ATOM     18  C   UNL     1       2.032   8.332  18.009  0.00  0.00    +0.000 A 
ATOM     19  C   UNL     1       2.027   7.943  19.350  0.00  0.00    +0.000 A 
BRANCH  14  21
ATOM     20  C   UNL     1       0.972   9.123  22.613  0.00  0.00    +0.000 C 
ATOM     21  O   UNL     1       1.331   8.191  21.597  0.00  0.00    +0.000 OA
ENDBRANCH  14  21
ENDBRANCH  13  19
ENDBRANCH   1  13
TORSDOF 3
ENDMDL
MODEL 7
REMARK VINA RESULT:      -6.8      3.308      6.375
REMARK  Name = 
REMARK  4 active torsions:
REMARK  status: ('A' for Active; 'I' for Inactive)
REMARK    1  A    between atoms: C_1  and  O_2
REMARK    2  A    between atoms: O_2  and  C_3
REMARK    3  A    between atoms: C_8  and  O_9
REMARK    4  A    between atoms: O_9  and  C_10
REMARK                            x       y       z     vdW  Elec       q    Type
REMARK                         _______ _______ _______ _____ _____    ______ ____
ROOT
ATOM      1  C   UNL     1       2.471   6.579  19.274  0.00  0.00    +0.000 A 
ATOM      2  N   UNL     1       1.719   5.704  19.893  0.00  0.00    +0.000 NA
ATOM      3  C   UNL     1       1.805   4.384  19.366  0.00  0.00    +0.000 A 
ATOM      4  C   UNL     1       1.092   3.281  19.890  0.00  0.00    +0.000 A 
ATOM      5  C   UNL     1       1.397   2.117  19.207  0.00  0.00    +0.000 A 
ATOM      6  S   UNL     1       2.517   2.385  17.927  0.00  0.00    +0.000 S 
ATOM      7  C   UNL     1       2.613   4.027  18.307  0.00  0.00    +0.000 A 
ATOM      8  C   UNL     1       3.415   5.010  17.694  0.00  0.00    +0.000 A 
ATOM      9  N   UNL     1       4.301   4.996  16.730  0.00  0.00    +0.000 NA
ATOM     10  N   UNL     1       4.762   6.300  16.656  0.00  0.00    +0.000 NA
ATOM     11  N   UNL     1       4.167   7.082  17.556  0.00  0.00    +0.000 NA
ATOM     12  N   UNL     1       3.314   6.269  18.204  0.00  0.00    +0.000 N 
ENDROOT
BRANCH   1  13
ATOM     13  O   UNL     1       2.606   7.929  19.573  0.00  0.00    +0.000 OA
BRANCH  13  19
ATOM     14  C   UNL     1       0.727   9.198  20.510  0.00  0.00    +0.000 A 
ATOM     15  C   UNL     1      -0.397   9.992  20.263  0.00  0.00    +0.000 A 
ATOM     16  C   UNL     1      -0.757  10.325  18.952  0.00  0.00    +0.000 A 
ATOM     17  C   UNL     1       0.010   9.881  17.877  0.00  0.00    +0.000 A 
ATOM     18  C   UNL     1       1.157   9.122  18.111  0.00  0.00    +0.000 A 
ATOM     19  C   UNL     1       1.518   8.809  19.423  0.00  0.00    +0.000 A 
BRANCH  14  21
ATOM     20  C   UNL     1       0.405   9.357  22.842  0.00  0.00    +0.000 C 
ATOM     21  O   UNL     1       1.108   8.767  21.752  0.00  0.00    +0.000 OA
ENDBRANCH  14  21
ENDBRANCH  13  19
ENDBRANCH   1  13
TORSDOF 3
ENDMDL
MODEL 8
REMARK VINA RESULT:      -6.8      3.161      5.940
REMARK  Name = 
REMARK  4 active torsions:
REMARK  status: ('A' for Active; 'I' for Inactive)
REMARK    1  A    between atoms: C_1  and  O_2
REMARK    2  A    between atoms: O_2  and  C_3
REMARK    3  A    between atoms: C_8  and  O_9
REMARK    4  A    between atoms: O_9  and  C_10
REMARK                            x       y       z     vdW  Elec       q    Type
REMARK                         _______ _______ _______ _____ _____    ______ ____
ROOT
ATOM      1  C   UNL     1       4.873   5.233  18.447  0.00  0.00    +0.000 A 
ATOM      2  N   UNL     1       4.311   5.082  17.274  0.00  0.00    +0.000 NA
ATOM      3  C   UNL     1       5.234   4.877  16.208  0.00  0.00    +0.000 A 
ATOM      4  C   UNL     1       4.848   4.677  14.862  0.00  0.00    +0.000 A 
ATOM      5  C   UNL     1       5.949   4.467  14.052  0.00  0.00    +0.000 A 
ATOM      6  S   UNL     1       7.430   4.545  14.927  0.00  0.00    +0.000 S 
ATOM      7  C   UNL     1       6.603   4.823  16.372  0.00  0.00    +0.000 A 
ATOM      8  C   UNL     1       7.146   4.972  17.664  0.00  0.00    +0.000 A 
ATOM      9  N   UNL     1       8.358   4.926  18.156  0.00  0.00    +0.000 NA
ATOM     10  N   UNL     1       8.191   5.101  19.519  0.00  0.00    +0.000 NA
ATOM     11  N   UNL     1       6.907   5.251  19.841  0.00  0.00    +0.000 NA
ATOM     12  N   UNL     1       6.251   5.176  18.669  0.00  0.00    +0.000 N 
ENDROOT
BRANCH   1  13
ATOM     13  O   UNL     1       4.231   5.429  19.664  0.00  0.00    +0.000 OA
BRANCH  13  19
ATOM     14  C   UNL     1       1.838   5.175  20.142  0.00  0.00    +0.000 A 
ATOM     15  C   UNL     1       0.812   4.348  20.607  0.00  0.00    +0.000 A 
ATOM     16  C   UNL     1       1.086   3.037  21.014  0.00  0.00    +0.000 A 
ATOM     17  C   UNL     1       2.385   2.536  20.947  0.00  0.00    +0.000 A 
ATOM     18  C   UNL     1       3.411   3.337  20.447  0.00  0.00    +0.000 A 
ATOM     19  C   UNL     1       3.125   4.639  20.027  0.00  0.00    +0.000 A 
BRANCH  14  21
ATOM     20  C   UNL     1       1.517   7.392  20.883  0.00  0.00    +0.000 C 
ATOM     21  O   UNL     1       1.670   6.489  19.793  0.00  0.00    +0.000 OA
ENDBRANCH  14  21
ENDBRANCH  13  19
ENDBRANCH   1  13
TORSDOF 3
ENDMDL
MODEL 9
REMARK VINA RESULT:      -6.7      3.571      5.960
REMARK  Name = 
REMARK  4 active torsions:
REMARK  status: ('A' for Active; 'I' for Inactive)
REMARK    1  A    between atoms: C_1  and  O_2
REMARK    2  A    between atoms: O_2  and  C_3
REMARK    3  A    between atoms: C_8  and  O_9
REMARK    4  A    between atoms: O_9  and  C_10
REMARK                            x       y       z     vdW  Elec       q    Type
REMARK                         _______ _______ _______ _____ _____    ______ ____
ROOT
ATOM      1  C   UNL     1       5.286   4.400  17.365  0.00  0.00    +0.000 A 
ATOM      2  N   UNL     1       5.022   3.704  16.286  0.00  0.00    +0.000 NA
ATOM      3  C   UNL     1       5.788   4.084  15.146  0.00  0.00    +0.000 A 
ATOM      4  C   UNL     1       5.678   3.458  13.883  0.00  0.00    +0.000 A 
ATOM      5  C   UNL     1       6.567   4.006  12.975  0.00  0.00    +0.000 A 
ATOM      6  S   UNL     1       7.495   5.285  13.658  0.00  0.00    +0.000 S 
ATOM      7  C   UNL     1       6.740   5.083  15.154  0.00  0.00    +0.000 A 
ATOM      8  C   UNL     1       6.991   5.782  16.351  0.00  0.00    +0.000 A 
ATOM      9  N   UNL     1       7.833   6.722  16.700  0.00  0.00    +0.000 NA
ATOM     10  N   UNL     1       7.594   6.926  18.048  0.00  0.00    +0.000 NA
ATOM     11  N   UNL     1       6.627   6.128  18.501  0.00  0.00    +0.000 NA
ATOM     12  N   UNL     1       6.245   5.413  17.428  0.00  0.00    +0.000 N 
ENDROOT
BRANCH   1  13
ATOM     13  O   UNL     1       4.713   4.245  18.621  0.00  0.00    +0.000 OA
BRANCH  13  19
ATOM     14  C   UNL     1       3.285   2.319  19.143  0.00  0.00    +0.000 A 
ATOM     15  C   UNL     1       1.995   1.781  19.161  0.00  0.00    +0.000 A 
ATOM     16  C   UNL     1       0.901   2.545  18.740  0.00  0.00    +0.000 A 
ATOM     17  C   UNL     1       1.084   3.858  18.310  0.00  0.00    +0.000 A 
ATOM     18  C   UNL     1       2.359   4.421  18.325  0.00  0.00    +0.000 A 
ATOM     19  C   UNL     1       3.443   3.657  18.763  0.00  0.00    +0.000 A 
BRANCH  14  21
ATOM     20  C   UNL     1       4.833   1.737  20.826  0.00  0.00    +0.000 C 
ATOM     21  O   UNL     1       4.417   1.620  19.468  0.00  0.00    +0.000 OA
ENDBRANCH  14  21
ENDBRANCH  13  19
ENDBRANCH   1  13
TORSDOF 3
ENDMDL
