MODEL 1
REMARK VINA RESULT:      -7.2      0.000      0.000
REMARK  Name = 
REMARK  2 active torsions:
REMARK  status: ('A' for Active; 'I' for Inactive)
REMARK    1  A    between atoms: C_4  and  N_5
REMARK    2  A    between atoms: C_9  and  C_10
REMARK                            x       y       z     vdW  Elec       q    Type
REMARK                         _______ _______ _______ _____ _____    ______ ____
ROOT
ATOM      1  N   UNL     1       2.777   4.572  18.102  0.00  0.00    +0.000 N 
ATOM      2  N   UNL     1       1.813   3.902  17.400  0.00  0.00    +0.000 NA
ATOM      3  N   UNL     1       2.146   2.694  17.290  0.00  0.00    +0.000 NA
ATOM      4  C   UNL     1       3.350   2.376  18.071  0.00  0.00    +0.000 C 
ATOM      5  C   UNL     1       3.914   3.735  18.432  0.00  0.00    +0.000 C 
ENDROOT
BRANCH   1   9
ATOM      6  C   UNL     1       1.752   8.270  19.889  0.00  0.00    +0.000 A 
ATOM      7  C   UNL     1       1.718   7.103  20.641  0.00  0.00    +0.000 A 
ATOM      8  C   UNL     1       2.083   5.881  20.061  0.00  0.00    +0.000 A 
ATOM      9  C   UNL     1       2.464   5.787  18.712  0.00  0.00    +0.000 A 
ATOM     10  C   UNL     1       2.510   6.992  17.986  0.00  0.00    +0.000 A 
ATOM     11  C   UNL     1       2.161   8.218  18.562  0.00  0.00    +0.000 A 
ENDBRANCH   1   9
BRANCH   5  12
ATOM     12  C   UNL     1       5.143   4.112  17.623  0.00  0.00    +0.000 A 
ATOM     13  C   UNL     1       5.172   4.012  16.225  0.00  0.00    +0.000 A 
ATOM     14  C   UNL     1       6.334   4.351  15.550  0.00  0.00    +0.000 A 
ATOM     15  N   UNL     1       7.459   4.778  16.161  0.00  0.00    +0.000 NA
ATOM     16  C   UNL     1       7.413   4.883  17.505  0.00  0.00    +0.000 A 
ATOM     17  C   UNL     1       6.299   4.566  18.268  0.00  0.00    +0.000 A 
ENDBRANCH   5  12
TORSDOF 2
ENDMDL
MODEL 2
REMARK VINA RESULT:      -7.2      0.142      1.170
REMARK  Name = 
REMARK  2 active torsions:
REMARK  status: ('A' for Active; 'I' for Inactive)
REMARK    1  A    between atoms: C_4  and  N_5
REMARK    2  A    between atoms: C_9  and  C_10
REMARK                            x       y       z     vdW  Elec       q    Type
REMARK                         _______ _______ _______ _____ _____    ______ ____
ROOT
ATOM      1  N   UNL     1       2.799   4.438  18.111  0.00  0.00    +0.000 N 
ATOM      2  N   UNL     1       1.857   3.726  17.421  0.00  0.00    +0.000 NA
ATOM      3  N   UNL     1       2.229   2.529  17.327  0.00  0.00    +0.000 NA
ATOM      4  C   UNL     1       3.444   2.262  18.111  0.00  0.00    +0.000 C 
ATOM      5  C   UNL     1       3.963   3.644  18.452  0.00  0.00    +0.000 C 
ENDROOT
BRANCH   1   9
ATOM      6  C   UNL     1       1.799   8.103  19.980  0.00  0.00    +0.000 A 
ATOM      7  C   UNL     1       2.214   8.091  18.654  0.00  0.00    +0.000 A 
ATOM      8  C   UNL     1       2.520   6.877  18.024  0.00  0.00    +0.000 A 
ATOM      9  C   UNL     1       2.446   5.651  18.705  0.00  0.00    +0.000 A 
ATOM     10  C   UNL     1       1.999   5.697  20.039  0.00  0.00    +0.000 A 
ATOM     11  C   UNL     1       1.679   6.903  20.671  0.00  0.00    +0.000 A 
ENDBRANCH   1   9
BRANCH   5  12
ATOM     12  C   UNL     1       5.178   4.050  17.636  0.00  0.00    +0.000 A 
ATOM     13  C   UNL     1       5.225   3.891  16.244  0.00  0.00    +0.000 A 
ATOM     14  C   UNL     1       6.374   4.262  15.562  0.00  0.00    +0.000 A 
ATOM     15  N   UNL     1       7.469   4.774  16.162  0.00  0.00    +0.000 NA
ATOM     16  C   UNL     1       7.405   4.935  17.500  0.00  0.00    +0.000 A 
ATOM     17  C   UNL     1       6.302   4.592  18.268  0.00  0.00    +0.000 A 
ENDBRANCH   5  12
TORSDOF 2
ENDMDL
MODEL 3
REMARK VINA RESULT:      -7.2      1.952      6.156
REMARK  Name = 
REMARK  2 active torsions:
REMARK  status: ('A' for Active; 'I' for Inactive)
REMARK    1  A    between atoms: C_4  and  N_5
REMARK    2  A    between atoms: C_9  and  C_10
REMARK                            x       y       z     vdW  Elec       q    Type
REMARK                         _______ _______ _______ _____ _____    ______ ____
ROOT
ATOM      1  N   UNL     1       6.716   5.272  15.898  0.00  0.00    +0.000 N 
ATOM      2  N   UNL     1       7.471   6.358  16.245  0.00  0.00    +0.000 NA
ATOM      3  N   UNL     1       7.674   6.341  17.486  0.00  0.00    +0.000 NA
ATOM      4  C   UNL     1       7.183   5.105  18.112  0.00  0.00    +0.000 C 
ATOM      5  C   UNL     1       6.308   4.483  17.043  0.00  0.00    +0.000 C 
ENDROOT
BRANCH   1   9
ATOM      6  C   UNL     1       6.785   3.916  11.888  0.00  0.00    +0.000 A 
ATOM      7  C   UNL     1       5.837   3.418  12.773  0.00  0.00    +0.000 A 
ATOM      8  C   UNL     1       5.794   3.884  14.093  0.00  0.00    +0.000 A 
ATOM      9  C   UNL     1       6.708   4.837  14.572  0.00  0.00    +0.000 A 
ATOM     10  C   UNL     1       7.639   5.337  13.643  0.00  0.00    +0.000 A 
ATOM     11  C   UNL     1       7.681   4.887  12.319  0.00  0.00    +0.000 A 
ENDBRANCH   1   9
BRANCH   5  12
ATOM     12  C   UNL     1       4.822   4.626  17.323  0.00  0.00    +0.000 A 
ATOM     13  C   UNL     1       4.252   5.846  17.712  0.00  0.00    +0.000 A 
ATOM     14  C   UNL     1       2.893   5.901  17.974  0.00  0.00    +0.000 A 
ATOM     15  N   UNL     1       2.067   4.838  17.876  0.00  0.00    +0.000 NA
ATOM     16  C   UNL     1       2.625   3.674  17.487  0.00  0.00    +0.000 A 
ATOM     17  C   UNL     1       3.974   3.519  17.205  0.00  0.00    +0.000 A 
ENDBRANCH   5  12
TORSDOF 2
ENDMDL
MODEL 4
REMARK VINA RESULT:      -7.2      0.096      1.141
REMARK  Name = 
REMARK  2 active torsions:
REMARK  status: ('A' for Active; 'I' for Inactive)
REMARK    1  A    between atoms: C_4  and  N_5
REMARK    2  A    between atoms: C_9  and  C_10
REMARK                            x       y       z     vdW  Elec       q    Type
REMARK                         _______ _______ _______ _____ _____    ______ ____
ROOT
ATOM      1  N   UNL     1       2.794   4.492  18.117  0.00  0.00    +0.000 N 
ATOM      2  N   UNL     1       1.828   3.816  17.425  0.00  0.00    +0.000 NA
ATOM      3  N   UNL     1       2.165   2.609  17.316  0.00  0.00    +0.000 NA
ATOM      4  C   UNL     1       3.376   2.299  18.089  0.00  0.00    +0.000 C 
ATOM      5  C   UNL     1       3.936   3.661  18.442  0.00  0.00    +0.000 C 
ENDROOT
BRANCH   1   9
ATOM      6  C   UNL     1       1.769   8.194  19.897  0.00  0.00    +0.000 A 
ATOM      7  C   UNL     1       1.678   7.021  20.635  0.00  0.00    +0.000 A 
ATOM      8  C   UNL     1       2.043   5.797  20.058  0.00  0.00    +0.000 A 
ATOM      9  C   UNL     1       2.479   5.708  18.726  0.00  0.00    +0.000 A 
ATOM     10  C   UNL     1       2.582   6.918  18.015  0.00  0.00    +0.000 A 
ATOM     11  C   UNL     1       2.233   8.146  18.588  0.00  0.00    +0.000 A 
ENDBRANCH   1   9
BRANCH   5  12
ATOM     12  C   UNL     1       5.158   4.041  17.623  0.00  0.00    +0.000 A 
ATOM     13  C   UNL     1       6.315   4.568  18.213  0.00  0.00    +0.000 A 
ATOM     14  C   UNL     1       7.386   4.915  17.405  0.00  0.00    +0.000 A 
ATOM     15  N   UNL     1       7.387   4.775  16.062  0.00  0.00    +0.000 NA
ATOM     16  C   UNL     1       6.274   4.254  15.509  0.00  0.00    +0.000 A 
ATOM     17  C   UNL     1       5.152   3.879  16.233  0.00  0.00    +0.000 A 
ENDBRANCH   5  12
TORSDOF 2
ENDMDL
MODEL 5
REMARK VINA RESULT:      -7.2      1.941      6.107
REMARK  Name = 
REMARK  2 active torsions:
REMARK  status: ('A' for Active; 'I' for Inactive)
REMARK    1  A    between atoms: C_4  and  N_5
REMARK    2  A    between atoms: C_9  and  C_10
REMARK                            x       y       z     vdW  Elec       q    Type
REMARK                         _______ _______ _______ _____ _____    ______ ____
ROOT
ATOM      1  N   UNL     1       6.720   5.236  15.893  0.00  0.00    +0.000 N 
ATOM      2  N   UNL     1       7.430   6.350  16.245  0.00  0.00    +0.000 NA
ATOM      3  N   UNL     1       7.643   6.330  17.484  0.00  0.00    +0.000 NA
ATOM      4  C   UNL     1       7.212   5.068  18.101  0.00  0.00    +0.000 C 
ATOM      5  C   UNL     1       6.356   4.419  17.033  0.00  0.00    +0.000 C 
ENDROOT
BRANCH   1   9
ATOM      6  C   UNL     1       6.812   3.920  11.870  0.00  0.00    +0.000 A 
ATOM      7  C   UNL     1       5.866   3.405  12.747  0.00  0.00    +0.000 A 
ATOM      8  C   UNL     1       5.815   3.858  14.072  0.00  0.00    +0.000 A 
ATOM      9  C   UNL     1       6.720   4.813  14.562  0.00  0.00    +0.000 A 
ATOM     10  C   UNL     1       7.650   5.331  13.642  0.00  0.00    +0.000 A 
ATOM     11  C   UNL     1       7.699   4.895  12.313  0.00  0.00    +0.000 A 
ENDBRANCH   1   9
BRANCH   5  12
ATOM     12  C   UNL     1       4.867   4.494  17.326  0.00  0.00    +0.000 A 
ATOM     13  C   UNL     1       4.034   3.371  17.233  0.00  0.00    +0.000 A 
ATOM     14  C   UNL     1       2.680   3.513  17.492  0.00  0.00    +0.000 A 
ATOM     15  N   UNL     1       2.102   4.684  17.834  0.00  0.00    +0.000 NA
ATOM     16  C   UNL     1       2.917   5.754  17.933  0.00  0.00    +0.000 A 
ATOM     17  C   UNL     1       4.282   5.711  17.692  0.00  0.00    +0.000 A 
ENDBRANCH   5  12
TORSDOF 2
ENDMDL
MODEL 6
REMARK VINA RESULT:      -7.2      0.154      1.633
REMARK  Name = 
REMARK  2 active torsions:
REMARK  status: ('A' for Active; 'I' for Inactive)
REMARK    1  A    between atoms: C_4  and  N_5
REMARK    2  A    between atoms: C_9  and  C_10
REMARK                            x       y       z     vdW  Elec       q    Type
REMARK                         _______ _______ _______ _____ _____    ______ ____
ROOT
ATOM      1  N   UNL     1       2.807   4.429  18.119  0.00  0.00    +0.000 N 
ATOM      2  N   UNL     1       1.869   3.723  17.419  0.00  0.00    +0.000 NA
ATOM      3  N   UNL     1       2.239   2.524  17.325  0.00  0.00    +0.000 NA
ATOM      4  C   UNL     1       3.445   2.251  18.118  0.00  0.00    +0.000 C 
ATOM      5  C   UNL     1       3.966   3.630  18.468  0.00  0.00    +0.000 C 
ENDROOT
BRANCH   1   9
ATOM      6  C   UNL     1       1.804   8.092  19.990  0.00  0.00    +0.000 A 
ATOM      7  C   UNL     1       2.225   8.081  18.666  0.00  0.00    +0.000 A 
ATOM      8  C   UNL     1       2.532   6.868  18.035  0.00  0.00    +0.000 A 
ATOM      9  C   UNL     1       2.453   5.641  18.714  0.00  0.00    +0.000 A 
ATOM     10  C   UNL     1       2.001   5.686  20.046  0.00  0.00    +0.000 A 
ATOM     11  C   UNL     1       1.679   6.891  20.679  0.00  0.00    +0.000 A 
ENDBRANCH   1   9
BRANCH   5  12
ATOM     12  C   UNL     1       5.189   4.035  17.663  0.00  0.00    +0.000 A 
ATOM     13  C   UNL     1       6.324   4.594  18.267  0.00  0.00    +0.000 A 
ATOM     14  C   UNL     1       7.398   4.961  17.471  0.00  0.00    +0.000 A 
ATOM     15  N   UNL     1       7.422   4.813  16.130  0.00  0.00    +0.000 NA
ATOM     16  C   UNL     1       6.330   4.262  15.564  0.00  0.00    +0.000 A 
ATOM     17  C   UNL     1       5.207   3.865  16.274  0.00  0.00    +0.000 A 
ENDBRANCH   5  12
TORSDOF 2
ENDMDL
MODEL 7
REMARK VINA RESULT:      -7.1      1.942      6.219
REMARK  Name = 
REMARK  2 active torsions:
REMARK  status: ('A' for Active; 'I' for Inactive)
REMARK    1  A    between atoms: C_4  and  N_5
REMARK    2  A    between atoms: C_9  and  C_10
REMARK                            x       y       z     vdW  Elec       q    Type
REMARK                         _______ _______ _______ _____ _____    ______ ____
ROOT
ATOM      1  N   UNL     1       6.774   5.301  15.927  0.00  0.00    +0.000 N 
ATOM      2  N   UNL     1       7.494   6.411  16.274  0.00  0.00    +0.000 NA
ATOM      3  N   UNL     1       7.676   6.413  17.519  0.00  0.00    +0.000 NA
ATOM      4  C   UNL     1       7.209   5.170  18.150  0.00  0.00    +0.000 C 
ATOM      5  C   UNL     1       6.369   4.513  17.074  0.00  0.00    +0.000 C 
ENDROOT
BRANCH   1   9
ATOM      6  C   UNL     1       6.761   3.967  11.909  0.00  0.00    +0.000 A 
ATOM      7  C   UNL     1       7.675   4.929  12.317  0.00  0.00    +0.000 A 
ATOM      8  C   UNL     1       7.701   5.354  13.653  0.00  0.00    +0.000 A 
ATOM      9  C   UNL     1       6.801   4.851  14.606  0.00  0.00    +0.000 A 
ATOM     10  C   UNL     1       5.904   3.861  14.164  0.00  0.00    +0.000 A 
ATOM     11  C   UNL     1       5.881   3.421  12.836  0.00  0.00    +0.000 A 
ENDBRANCH   1   9
BRANCH   5  12
ATOM     12  C   UNL     1       4.875   4.618  17.328  0.00  0.00    +0.000 A 
ATOM     13  C   UNL     1       4.265   5.828  17.687  0.00  0.00    +0.000 A 
ATOM     14  C   UNL     1       2.900   5.849  17.926  0.00  0.00    +0.000 A 
ATOM     15  N   UNL     1       2.106   4.761  17.834  0.00  0.00    +0.000 NA
ATOM     16  C   UNL     1       2.703   3.607  17.474  0.00  0.00    +0.000 A 
ATOM     17  C   UNL     1       4.061   3.486  17.217  0.00  0.00    +0.000 A 
ENDBRANCH   5  12
TORSDOF 2
ENDMDL
MODEL 8
REMARK VINA RESULT:      -7.1      1.935      6.167
REMARK  Name = 
REMARK  2 active torsions:
REMARK  status: ('A' for Active; 'I' for Inactive)
REMARK    1  A    between atoms: C_4  and  N_5
REMARK    2  A    between atoms: C_9  and  C_10
REMARK                            x       y       z     vdW  Elec       q    Type
REMARK                         _______ _______ _______ _____ _____    ______ ____
ROOT
ATOM      1  N   UNL     1       6.782   5.278  15.934  0.00  0.00    +0.000 N 
ATOM      2  N   UNL     1       7.490   6.394  16.284  0.00  0.00    +0.000 NA
ATOM      3  N   UNL     1       7.681   6.391  17.527  0.00  0.00    +0.000 NA
ATOM      4  C   UNL     1       7.232   5.140  18.154  0.00  0.00    +0.000 C 
ATOM      5  C   UNL     1       6.393   4.479  17.080  0.00  0.00    +0.000 C 
ENDROOT
BRANCH   1   9
ATOM      6  C   UNL     1       6.758   3.966  11.909  0.00  0.00    +0.000 A 
ATOM      7  C   UNL     1       7.664   4.936  12.317  0.00  0.00    +0.000 A 
ATOM      8  C   UNL     1       7.693   5.353  13.655  0.00  0.00    +0.000 A 
ATOM      9  C   UNL     1       6.805   4.835  14.611  0.00  0.00    +0.000 A 
ATOM     10  C   UNL     1       5.916   3.838  14.169  0.00  0.00    +0.000 A 
ATOM     11  C   UNL     1       5.889   3.405  12.839  0.00  0.00    +0.000 A 
ENDBRANCH   1   9
BRANCH   5  12
ATOM     12  C   UNL     1       4.900   4.565  17.344  0.00  0.00    +0.000 A 
ATOM     13  C   UNL     1       4.057   3.452  17.218  0.00  0.00    +0.000 A 
ATOM     14  C   UNL     1       2.700   3.604  17.451  0.00  0.00    +0.000 A 
ATOM     15  N   UNL     1       2.126   4.776  17.799  0.00  0.00    +0.000 NA
ATOM     16  C   UNL     1       2.950   5.835  17.930  0.00  0.00    +0.000 A 
ATOM     17  C   UNL     1       4.319   5.783  17.716  0.00  0.00    +0.000 A 
ENDBRANCH   5  12
TORSDOF 2
ENDMDL
MODEL 9
REMARK VINA RESULT:      -6.9      1.641      5.179
REMARK  Name = 
REMARK  2 active torsions:
REMARK  status: ('A' for Active; 'I' for Inactive)
REMARK    1  A    between atoms: C_4  and  N_5
REMARK    2  A    between atoms: C_9  and  C_10
REMARK                            x       y       z     vdW  Elec       q    Type
REMARK                         _______ _______ _______ _____ _____    ______ ____
ROOT
ATOM      1  N   UNL     1       4.319   3.861  18.665  0.00  0.00    +0.000 N 
ATOM      2  N   UNL     1       4.739   3.026  19.664  0.00  0.00    +0.000 NA
ATOM      3  N   UNL     1       3.737   2.585  20.283  0.00  0.00    +0.000 NA
ATOM      4  C   UNL     1       2.473   2.973  19.642  0.00  0.00    +0.000 C 
ATOM      5  C   UNL     1       2.883   4.055  18.664  0.00  0.00    +0.000 C 
ENDROOT
BRANCH   1   9
ATOM      6  C   UNL     1       6.968   4.629  15.454  0.00  0.00    +0.000 A 
ATOM      7  C   UNL     1       5.650   4.275  15.196  0.00  0.00    +0.000 A 
ATOM      8  C   UNL     1       4.763   4.046  16.257  0.00  0.00    +0.000 A 
ATOM      9  C   UNL     1       5.173   4.138  17.597  0.00  0.00    +0.000 A 
ATOM     10  C   UNL     1       6.508   4.522  17.822  0.00  0.00    +0.000 A 
ATOM     11  C   UNL     1       7.397   4.765  16.769  0.00  0.00    +0.000 A 
ENDBRANCH   1   9
BRANCH   5  12
ATOM     12  C   UNL     1       2.505   5.454  19.121  0.00  0.00    +0.000 A 
ATOM     13  C   UNL     1       1.964   5.701  20.390  0.00  0.00    +0.000 A 
ATOM     14  C   UNL     1       1.621   6.999  20.735  0.00  0.00    +0.000 A 
ATOM     15  N   UNL     1       1.777   8.059  19.913  0.00  0.00    +0.000 NA
ATOM     16  C   UNL     1       2.311   7.809  18.701  0.00  0.00    +0.000 A 
ATOM     17  C   UNL     1       2.684   6.547  18.265  0.00  0.00    +0.000 A 
ENDBRANCH   5  12
TORSDOF 2
ENDMDL
