MODEL 1
REMARK VINA RESULT:      -8.8      0.000      0.000
REMARK  Name = 
REMARK  7 active torsions:
REMARK  status: ('A' for Active; 'I' for Inactive)
REMARK    1  A    between atoms: O_1  and  C_2
REMARK    2  A    between atoms: C_2  and  C_3
REMARK    3  A    between atoms: C_6  and  C_7
REMARK    4  A    between atoms: C_10  and  C_11
REMARK    5  A    between atoms: C_15  and  O_16
REMARK    6  A    between atoms: O_16  and  C_17
REMARK    7  A    between atoms: C_21  and  O_22
REMARK                            x       y       z     vdW  Elec       q    Type
REMARK                         _______ _______ _______ _____ _____    ______ ____
ROOT
ATOM      1  C   UNL     1      -0.765  10.729  19.447  0.00  0.00    +0.000 A 
ATOM      2  N   UNL     1      -0.593  11.439  20.615  0.00  0.00    +0.000 NA
ATOM      3  C   UNL     1      -1.588  12.285  20.949  0.00  0.00    +0.000 A 
ATOM      4  N   UNL     1      -1.660  13.047  22.093  0.00  0.00    +0.000 NA
ATOM      5  C   UNL     1      -2.798  13.695  21.985  0.00  0.00    +0.000 A 
ATOM      6  N   UNL     1      -3.470  13.382  20.841  0.00  0.00    +0.000 N 
ATOM      7  C   UNL     1      -2.725  12.455  20.169  0.00  0.00    +0.000 A 
ATOM      8  C   UNL     1      -2.934  11.752  18.998  0.00  0.00    +0.000 A 
ATOM      9  C   UNL     1      -1.932  10.846  18.655  0.00  0.00    +0.000 A 
ATOM     10 CL   UNL     1      -2.295   9.875  17.264  0.00  0.00    +0.000 Cl
ATOM     11  H   UNL     1      -4.383  13.732  20.595  0.00  0.00    +0.000 HD
ENDROOT
BRANCH   1  15
ATOM     12  C   UNL     1       2.493   7.943  18.531  0.00  0.00    +0.000 A 
ATOM     13  C   UNL     1       1.859   7.959  19.784  0.00  0.00    +0.000 A 
ATOM     14  C   UNL     1       0.818   8.861  20.077  0.00  0.00    +0.000 A 
ATOM     15  C   UNL     1       0.368   9.806  19.137  0.00  0.00    +0.000 A 
ATOM     16  C   UNL     1       1.062   9.829  17.918  0.00  0.00    +0.000 A 
ATOM     17  C   UNL     1       2.061   8.899  17.604  0.00  0.00    +0.000 A 
BRANCH  12  21
ATOM     18  C   UNL     1       5.679   5.159  17.585  0.00  0.00    +0.000 A 
ATOM     19  C   UNL     1       4.971   5.062  18.787  0.00  0.00    +0.000 A 
ATOM     20  C   UNL     1       3.931   5.950  19.083  0.00  0.00    +0.000 A 
ATOM     21  C   UNL     1       3.578   6.987  18.205  0.00  0.00    +0.000 A 
ATOM     22  C   UNL     1       4.309   7.080  17.005  0.00  0.00    +0.000 A 
ATOM     23  C   UNL     1       5.341   6.185  16.698  0.00  0.00    +0.000 A 
BRANCH  18  24
ATOM     24  C   UNL     1       6.820   4.230  17.271  0.00  0.00    +0.000 C 
BRANCH  24  25
ATOM     25  O   UNL     1       7.820   4.305  18.278  0.00  0.00    +0.000 OA
ATOM     26  H   UNL     1       7.931   3.406  18.630  0.00  0.00    +0.000 HD
ENDBRANCH  24  25
ENDBRANCH  18  24
ENDBRANCH  12  21
ENDBRANCH   1  15
BRANCH   5  27
ATOM     27  O   UNL     1      -3.336  14.543  22.852  0.00  0.00    +0.000 OA
BRANCH  27  28
ATOM     28  C   UNL     1      -4.073  13.962  23.920  0.00  0.00    +0.000 C 
ATOM     29  C   UNL     1      -4.015  12.441  23.950  0.00  0.00    +0.000 C 
ATOM     30  O   UNL     1      -5.225  11.980  24.568  0.00  0.00    +0.000 OA
ATOM     31  C   UNL     1      -6.209  13.034  24.462  0.00  0.00    +0.000 C 
ATOM     32  C   UNL     1      -7.324  12.589  23.533  0.00  0.00    +0.000 C 
ATOM     33  C   UNL     1      -6.796  12.979  22.166  0.00  0.00    +0.000 C 
ATOM     34  O   UNL     1      -5.970  14.136  22.350  0.00  0.00    +0.000 OA
ATOM     35  C   UNL     1      -5.570  14.208  23.739  0.00  0.00    +0.000 C 
BRANCH  32  36
ATOM     36  O   UNL     1      -7.581  11.195  23.624  0.00  0.00    +0.000 OA
ATOM     37  H   UNL     1      -8.123  10.974  22.837  0.00  0.00    +0.000 HD
ENDBRANCH  32  36
ENDBRANCH  27  28
ENDBRANCH   5  27
TORSDOF 7
ENDMDL
MODEL 2
REMARK VINA RESULT:      -8.3      2.279      2.944
REMARK  Name = 
REMARK  7 active torsions:
REMARK  status: ('A' for Active; 'I' for Inactive)
REMARK    1  A    between atoms: O_1  and  C_2
REMARK    2  A    between atoms: C_2  and  C_3
REMARK    3  A    between atoms: C_6  and  C_7
REMARK    4  A    between atoms: C_10  and  C_11
REMARK    5  A    between atoms: C_15  and  O_16
REMARK    6  A    between atoms: O_16  and  C_17
REMARK    7  A    between atoms: C_21  and  O_22
REMARK                            x       y       z     vdW  Elec       q    Type
REMARK                         _______ _______ _______ _____ _____    ______ ____
ROOT
ATOM      1  C   UNL     1       0.154  10.050  20.556  0.00  0.00    +0.000 A 
ATOM      2  N   UNL     1      -0.686  10.799  19.762  0.00  0.00    +0.000 NA
ATOM      3  C   UNL     1      -1.481  11.679  20.403  0.00  0.00    +0.000 A 
ATOM      4  N   UNL     1      -2.352  12.569  19.814  0.00  0.00    +0.000 NA
ATOM      5  C   UNL     1      -2.893  13.215  20.822  0.00  0.00    +0.000 A 
ATOM      6  N   UNL     1      -2.409  12.799  22.028  0.00  0.00    +0.000 N 
ATOM      7  C   UNL     1      -1.479  11.830  21.784  0.00  0.00    +0.000 A 
ATOM      8  C   UNL     1      -0.642  11.102  22.608  0.00  0.00    +0.000 A 
ATOM      9  C   UNL     1       0.213  10.213  21.961  0.00  0.00    +0.000 A 
ATOM     10 CL   UNL     1       1.351   9.428  23.009  0.00  0.00    +0.000 Cl
ATOM     11  H   UNL     1      -2.659  13.202  22.918  0.00  0.00    +0.000 HD
ENDROOT
BRANCH   1  15
ATOM     12  C   UNL     1       2.752   7.328  18.307  0.00  0.00    +0.000 A 
ATOM     13  C   UNL     1       2.243   8.508  17.740  0.00  0.00    +0.000 A 
ATOM     14  C   UNL     1       1.403   9.376  18.463  0.00  0.00    +0.000 A 
ATOM     15  C   UNL     1       1.013   9.100  19.786  0.00  0.00    +0.000 A 
ATOM     16  C   UNL     1       1.465   7.881  20.312  0.00  0.00    +0.000 A 
ATOM     17  C   UNL     1       2.345   7.042  19.615  0.00  0.00    +0.000 A 
BRANCH  12  21
ATOM     18  C   UNL     1       5.370   4.659  16.112  0.00  0.00    +0.000 A 
ATOM     19  C   UNL     1       5.516   6.046  16.021  0.00  0.00    +0.000 A 
ATOM     20  C   UNL     1       4.682   6.907  16.744  0.00  0.00    +0.000 A 
ATOM     21  C   UNL     1       3.652   6.416  17.561  0.00  0.00    +0.000 A 
ATOM     22  C   UNL     1       3.507   5.017  17.631  0.00  0.00    +0.000 A 
ATOM     23  C   UNL     1       4.349   4.152  16.920  0.00  0.00    +0.000 A 
BRANCH  18  24
ATOM     24  C   UNL     1       6.240   3.726  15.314  0.00  0.00    +0.000 C 
BRANCH  24  25
ATOM     25  O   UNL     1       5.964   3.848  13.925  0.00  0.00    +0.000 OA
ATOM     26  H   UNL     1       5.143   4.363  13.846  0.00  0.00    +0.000 HD
ENDBRANCH  24  25
ENDBRANCH  18  24
ENDBRANCH  12  21
ENDBRANCH   1  15
BRANCH   5  27
ATOM     27  O   UNL     1      -3.782  14.198  20.775  0.00  0.00    +0.000 OA
BRANCH  27  28
ATOM     28  C   UNL     1      -5.072  13.899  21.298  0.00  0.00    +0.000 C 
ATOM     29  C   UNL     1      -5.179  12.510  21.911  0.00  0.00    +0.000 C 
ATOM     30  O   UNL     1      -6.545  12.093  21.785  0.00  0.00    +0.000 OA
ATOM     31  C   UNL     1      -7.153  12.871  20.729  0.00  0.00    +0.000 C 
ATOM     32  C   UNL     1      -7.484  11.960  19.560  0.00  0.00    +0.000 C 
ATOM     33  C   UNL     1      -6.190  11.946  18.770  0.00  0.00    +0.000 C 
ATOM     34  O   UNL     1      -5.559  13.216  18.977  0.00  0.00    +0.000 OA
ATOM     35  C   UNL     1      -6.103  13.819  20.174  0.00  0.00    +0.000 C 
BRANCH  32  36
ATOM     36  O   UNL     1      -7.864  10.657  19.979  0.00  0.00    +0.000 OA
ATOM     37  H   UNL     1      -8.669  10.780  20.526  0.00  0.00    +0.000 HD
ENDBRANCH  32  36
ENDBRANCH  27  28
ENDBRANCH   5  27
TORSDOF 7
ENDMDL
MODEL 3
REMARK VINA RESULT:      -8.3      1.918      2.223
REMARK  Name = 
REMARK  7 active torsions:
REMARK  status: ('A' for Active; 'I' for Inactive)
REMARK    1  A    between atoms: O_1  and  C_2
REMARK    2  A    between atoms: C_2  and  C_3
REMARK    3  A    between atoms: C_6  and  C_7
REMARK    4  A    between atoms: C_10  and  C_11
REMARK    5  A    between atoms: C_15  and  O_16
REMARK    6  A    between atoms: O_16  and  C_17
REMARK    7  A    between atoms: C_21  and  O_22
REMARK                            x       y       z     vdW  Elec       q    Type
REMARK                         _______ _______ _______ _____ _____    ______ ____
ROOT
ATOM      1  C   UNL     1       0.211  11.214  19.589  0.00  0.00    +0.000 A 
ATOM      2  N   UNL     1      -1.066  11.153  20.102  0.00  0.00    +0.000 NA
ATOM      3  C   UNL     1      -1.695  12.333  20.271  0.00  0.00    +0.000 A 
ATOM      4  N   UNL     1      -2.988  12.511  20.709  0.00  0.00    +0.000 NA
ATOM      5  C   UNL     1      -3.160  13.813  20.705  0.00  0.00    +0.000 A 
ATOM      6  N   UNL     1      -2.053  14.484  20.275  0.00  0.00    +0.000 N 
ATOM      7  C   UNL     1      -1.105  13.552  19.963  0.00  0.00    +0.000 A 
ATOM      8  C   UNL     1       0.170  13.648  19.438  0.00  0.00    +0.000 A 
ATOM      9  C   UNL     1       0.823  12.437  19.223  0.00  0.00    +0.000 A 
ATOM     10 CL   UNL     1       2.356  12.586  18.425  0.00  0.00    +0.000 Cl
ATOM     11  H   UNL     1      -1.997  15.483  20.152  0.00  0.00    +0.000 HD
ENDROOT
BRANCH   1  15
ATOM     12  C   UNL     1       1.996   7.239  19.102  0.00  0.00    +0.000 A 
ATOM     13  C   UNL     1       1.574   7.716  20.354  0.00  0.00    +0.000 A 
ATOM     14  C   UNL     1       1.008   8.997  20.507  0.00  0.00    +0.000 A 
ATOM     15  C   UNL     1       0.851   9.874  19.419  0.00  0.00    +0.000 A 
ATOM     16  C   UNL     1       1.347   9.414  18.190  0.00  0.00    +0.000 A 
ATOM     17  C   UNL     1       1.860   8.121  18.023  0.00  0.00    +0.000 A 
BRANCH  12  21
ATOM     18  C   UNL     1       3.686   3.278  18.602  0.00  0.00    +0.000 A 
ATOM     19  C   UNL     1       2.505   3.644  17.950  0.00  0.00    +0.000 A 
ATOM     20  C   UNL     1       1.970   4.929  18.098  0.00  0.00    +0.000 A 
ATOM     21  C   UNL     1       2.576   5.887  18.926  0.00  0.00    +0.000 A 
ATOM     22  C   UNL     1       3.757   5.499  19.587  0.00  0.00    +0.000 A 
ATOM     23  C   UNL     1       4.304   4.219  19.431  0.00  0.00    +0.000 A 
BRANCH  18  24
ATOM     24  C   UNL     1       4.252   1.890  18.476  0.00  0.00    +0.000 C 
BRANCH  24  25
ATOM     25  O   UNL     1       5.002   1.547  19.633  0.00  0.00    +0.000 OA
ATOM     26  H   UNL     1       5.391   0.671  19.466  0.00  0.00    +0.000 HD
ENDBRANCH  24  25
ENDBRANCH  18  24
ENDBRANCH  12  21
ENDBRANCH   1  15
BRANCH   5  27
ATOM     27  O   UNL     1      -4.255  14.490  21.025  0.00  0.00    +0.000 OA
BRANCH  27  28
ATOM     28  C   UNL     1      -4.733  14.315  22.353  0.00  0.00    +0.000 C 
ATOM     29  C   UNL     1      -4.329  12.988  22.981  0.00  0.00    +0.000 C 
ATOM     30  O   UNL     1      -5.337  12.648  23.943  0.00  0.00    +0.000 OA
ATOM     31  C   UNL     1      -6.539  13.377  23.607  0.00  0.00    +0.000 C 
ATOM     32  C   UNL     1      -7.611  12.399  23.158  0.00  0.00    +0.000 C 
ATOM     33  C   UNL     1      -7.322  12.242  21.678  0.00  0.00    +0.000 C 
ATOM     34  O   UNL     1      -6.765  13.482  21.226  0.00  0.00    +0.000 OA
ATOM     35  C   UNL     1      -6.256  14.211  22.368  0.00  0.00    +0.000 C 
BRANCH  32  36
ATOM     36  O   UNL     1      -7.535  11.159  23.848  0.00  0.00    +0.000 OA
ATOM     37  H   UNL     1      -8.143  11.245  24.613  0.00  0.00    +0.000 HD
ENDBRANCH  32  36
ENDBRANCH  27  28
ENDBRANCH   5  27
TORSDOF 7
ENDMDL
MODEL 4
REMARK VINA RESULT:      -8.3      2.216      2.680
REMARK  Name = 
REMARK  7 active torsions:
REMARK  status: ('A' for Active; 'I' for Inactive)
REMARK    1  A    between atoms: O_1  and  C_2
REMARK    2  A    between atoms: C_2  and  C_3
REMARK    3  A    between atoms: C_6  and  C_7
REMARK    4  A    between atoms: C_10  and  C_11
REMARK    5  A    between atoms: C_15  and  O_16
REMARK    6  A    between atoms: O_16  and  C_17
REMARK    7  A    between atoms: C_21  and  O_22
REMARK                            x       y       z     vdW  Elec       q    Type
REMARK                         _______ _______ _______ _____ _____    ______ ____
ROOT
ATOM      1  C   UNL     1      -0.029  10.168  20.784  0.00  0.00    +0.000 A 
ATOM      2  N   UNL     1      -0.818  10.961  19.981  0.00  0.00    +0.000 NA
ATOM      3  C   UNL     1      -1.654  11.805  20.616  0.00  0.00    +0.000 A 
ATOM      4  N   UNL     1      -2.487  12.728  20.023  0.00  0.00    +0.000 NA
ATOM      5  C   UNL     1      -3.093  13.318  21.028  0.00  0.00    +0.000 A 
ATOM      6  N   UNL     1      -2.688  12.835  22.237  0.00  0.00    +0.000 N 
ATOM      7  C   UNL     1      -1.741  11.880  22.001  0.00  0.00    +0.000 A 
ATOM      8  C   UNL     1      -0.958  11.106  22.836  0.00  0.00    +0.000 A 
ATOM      9  C   UNL     1      -0.061  10.252  22.197  0.00  0.00    +0.000 A 
ATOM     10 CL   UNL     1       1.009   9.409  23.272  0.00  0.00    +0.000 Cl
ATOM     11  H   UNL     1      -2.995  13.188  23.130  0.00  0.00    +0.000 HD
ENDROOT
BRANCH   1  15
ATOM     12  C   UNL     1       2.562   7.437  18.537  0.00  0.00    +0.000 A 
ATOM     13  C   UNL     1       2.245   7.218  19.888  0.00  0.00    +0.000 A 
ATOM     14  C   UNL     1       1.418   8.102  20.608  0.00  0.00    +0.000 A 
ATOM     15  C   UNL     1       0.880   9.261  20.021  0.00  0.00    +0.000 A 
ATOM     16  C   UNL     1       1.268   9.507  18.695  0.00  0.00    +0.000 A 
ATOM     17  C   UNL     1       2.045   8.602  17.959  0.00  0.00    +0.000 A 
BRANCH  12  21
ATOM     18  C   UNL     1       5.073   4.710  16.290  0.00  0.00    +0.000 A 
ATOM     19  C   UNL     1       4.017   4.236  17.073  0.00  0.00    +0.000 A 
ATOM     20  C   UNL     1       3.196   5.118  17.784  0.00  0.00    +0.000 A 
ATOM     21  C   UNL     1       3.416   6.505  17.764  0.00  0.00    +0.000 A 
ATOM     22  C   UNL     1       4.492   6.966  16.982  0.00  0.00    +0.000 A 
ATOM     23  C   UNL     1       5.308   6.087  16.258  0.00  0.00    +0.000 A 
BRANCH  18  24
ATOM     24  C   UNL     1       5.982   3.768  15.548  0.00  0.00    +0.000 C 
BRANCH  24  25
ATOM     25  O   UNL     1       6.721   4.464  14.552  0.00  0.00    +0.000 OA
ATOM     26  H   UNL     1       6.387   5.378  14.543  0.00  0.00    +0.000 HD
ENDBRANCH  24  25
ENDBRANCH  18  24
ENDBRANCH  12  21
ENDBRANCH   1  15
BRANCH   5  27
ATOM     27  O   UNL     1      -3.980  14.303  20.978  0.00  0.00    +0.000 OA
BRANCH  27  28
ATOM     28  C   UNL     1      -5.300  13.977  21.396  0.00  0.00    +0.000 C 
ATOM     29  C   UNL     1      -5.414  12.615  22.066  0.00  0.00    +0.000 C 
ATOM     30  O   UNL     1      -6.746  12.137  21.838  0.00  0.00    +0.000 OA
ATOM     31  C   UNL     1      -7.282  12.840  20.693  0.00  0.00    +0.000 C 
ATOM     32  C   UNL     1      -7.470  11.862  19.546  0.00  0.00    +0.000 C 
ATOM     33  C   UNL     1      -6.109  11.864  18.879  0.00  0.00    +0.000 C 
ATOM     34  O   UNL     1      -5.546  13.166  19.078  0.00  0.00    +0.000 OA
ATOM     35  C   UNL     1      -6.219  13.802  20.189  0.00  0.00    +0.000 C 
BRANCH  32  36
ATOM     36  O   UNL     1      -7.840  10.565  19.995  0.00  0.00    +0.000 OA
ATOM     37  H   UNL     1      -8.681  10.358  19.537  0.00  0.00    +0.000 HD
ENDBRANCH  32  36
ENDBRANCH  27  28
ENDBRANCH   5  27
TORSDOF 7
ENDMDL
MODEL 5
REMARK VINA RESULT:      -8.1      1.847      2.175
REMARK  Name = 
REMARK  7 active torsions:
REMARK  status: ('A' for Active; 'I' for Inactive)
REMARK    1  A    between atoms: O_1  and  C_2
REMARK    2  A    between atoms: C_2  and  C_3
REMARK    3  A    between atoms: C_6  and  C_7
REMARK    4  A    between atoms: C_10  and  C_11
REMARK    5  A    between atoms: C_15  and  O_16
REMARK    6  A    between atoms: O_16  and  C_17
REMARK    7  A    between atoms: C_21  and  O_22
REMARK                            x       y       z     vdW  Elec       q    Type
REMARK                         _______ _______ _______ _____ _____    ______ ____
ROOT
ATOM      1  C   UNL     1      -0.119  11.598  20.022  0.00  0.00    +0.000 A 
ATOM      2  N   UNL     1      -1.487  11.488  19.907  0.00  0.00    +0.000 NA
ATOM      3  C   UNL     1      -2.205  12.559  20.300  0.00  0.00    +0.000 A 
ATOM      4  N   UNL     1      -3.573  12.697  20.219  0.00  0.00    +0.000 NA
ATOM      5  C   UNL     1      -3.812  13.894  20.706  0.00  0.00    +0.000 A 
ATOM      6  N   UNL     1      -2.672  14.540  21.083  0.00  0.00    +0.000 N 
ATOM      7  C   UNL     1      -1.621  13.713  20.807  0.00  0.00    +0.000 A 
ATOM      8  C   UNL     1      -0.252  13.861  20.926  0.00  0.00    +0.000 A 
ATOM      9  C   UNL     1       0.509  12.777  20.491  0.00  0.00    +0.000 A 
ATOM     10 CL   UNL     1       2.221  13.054  20.515  0.00  0.00    +0.000 Cl
ATOM     11  H   UNL     1      -2.635  15.485  21.434  0.00  0.00    +0.000 HD
ENDROOT
BRANCH   1  15
ATOM     12  C   UNL     1       1.962   7.975  18.697  0.00  0.00    +0.000 A 
ATOM     13  C   UNL     1       1.711   8.234  20.054  0.00  0.00    +0.000 A 
ATOM     14  C   UNL     1       1.049   9.402  20.476  0.00  0.00    +0.000 A 
ATOM     15  C   UNL     1       0.619  10.383  19.564  0.00  0.00    +0.000 A 
ATOM     16  C   UNL     1       0.944  10.148  18.220  0.00  0.00    +0.000 A 
ATOM     17  C   UNL     1       1.554   8.961  17.791  0.00  0.00    +0.000 A 
BRANCH  12  21
ATOM     18  C   UNL     1       3.958   4.360  17.376  0.00  0.00    +0.000 A 
ATOM     19  C   UNL     1       2.603   4.350  17.719  0.00  0.00    +0.000 A 
ATOM     20  C   UNL     1       1.955   5.521  18.128  0.00  0.00    +0.000 A 
ATOM     21  C   UNL     1       2.642   6.740  18.239  0.00  0.00    +0.000 A 
ATOM     22  C   UNL     1       4.010   6.731  17.904  0.00  0.00    +0.000 A 
ATOM     23  C   UNL     1       4.659   5.565  17.481  0.00  0.00    +0.000 A 
BRANCH  18  24
ATOM     24  C   UNL     1       4.671   3.101  16.966  0.00  0.00    +0.000 C 
BRANCH  24  25
ATOM     25  O   UNL     1       5.753   3.398  16.093  0.00  0.00    +0.000 OA
ATOM     26  H   UNL     1       5.693   4.346  15.886  0.00  0.00    +0.000 HD
ENDBRANCH  24  25
ENDBRANCH  18  24
ENDBRANCH  12  21
ENDBRANCH   1  15
BRANCH   5  27
ATOM     27  O   UNL     1      -4.983  14.506  20.822  0.00  0.00    +0.000 OA
BRANCH  27  28
ATOM     28  C   UNL     1      -5.626  14.392  22.085  0.00  0.00    +0.000 C 
ATOM     29  C   UNL     1      -4.976  13.376  23.015  0.00  0.00    +0.000 C 
ATOM     30  O   UNL     1      -6.001  12.882  23.889  0.00  0.00    +0.000 OA
ATOM     31  C   UNL     1      -7.280  13.126  23.259  0.00  0.00    +0.000 C 
ATOM     32  C   UNL     1      -7.916  11.800  22.884  0.00  0.00    +0.000 C 
ATOM     33  C   UNL     1      -7.325  11.521  21.516  0.00  0.00    +0.000 C 
ATOM     34  O   UNL     1      -7.081  12.790  20.898  0.00  0.00    +0.000 OA
ATOM     35  C   UNL     1      -7.028  13.808  21.925  0.00  0.00    +0.000 C 
BRANCH  32  36
ATOM     36  O   UNL     1      -7.612  10.770  23.814  0.00  0.00    +0.000 OA
ATOM     37  H   UNL     1      -8.079  11.015  24.641  0.00  0.00    +0.000 HD
ENDBRANCH  32  36
ENDBRANCH  27  28
ENDBRANCH   5  27
TORSDOF 7
ENDMDL
MODEL 6
REMARK VINA RESULT:      -8.0      1.862      2.275
REMARK  Name = 
REMARK  7 active torsions:
REMARK  status: ('A' for Active; 'I' for Inactive)
REMARK    1  A    between atoms: O_1  and  C_2
REMARK    2  A    between atoms: C_2  and  C_3
REMARK    3  A    between atoms: C_6  and  C_7
REMARK    4  A    between atoms: C_10  and  C_11
REMARK    5  A    between atoms: C_15  and  O_16
REMARK    6  A    between atoms: O_16  and  C_17
REMARK    7  A    between atoms: C_21  and  O_22
REMARK                            x       y       z     vdW  Elec       q    Type
REMARK                         _______ _______ _______ _____ _____    ______ ____
ROOT
ATOM      1  C   UNL     1      -0.105  11.723  20.389  0.00  0.00    +0.000 A 
ATOM      2  N   UNL     1      -1.465  11.617  20.581  0.00  0.00    +0.000 NA
ATOM      3  C   UNL     1      -2.096  12.733  20.997  0.00  0.00    +0.000 A 
ATOM      4  N   UNL     1      -3.450  12.877  21.195  0.00  0.00    +0.000 NA
ATOM      5  C   UNL     1      -3.595  14.123  21.585  0.00  0.00    +0.000 A 
ATOM      6  N   UNL     1      -2.408  14.794  21.638  0.00  0.00    +0.000 N 
ATOM      7  C   UNL     1      -1.431  13.929  21.237  0.00  0.00    +0.000 A 
ATOM      8  C   UNL     1      -0.069  14.072  21.045  0.00  0.00    +0.000 A 
ATOM      9  C   UNL     1       0.594  12.939  20.581  0.00  0.00    +0.000 A 
ATOM     10 CL   UNL     1       2.269  13.196  20.209  0.00  0.00    +0.000 Cl
ATOM     11  H   UNL     1      -2.309  15.771  21.865  0.00  0.00    +0.000 HD
ENDROOT
BRANCH   1  15
ATOM     12  C   UNL     1       1.854   8.054  19.001  0.00  0.00    +0.000 A 
ATOM     13  C   UNL     1       1.449   9.063  18.112  0.00  0.00    +0.000 A 
ATOM     14  C   UNL     1       0.813  10.237  18.561  0.00  0.00    +0.000 A 
ATOM     15  C   UNL     1       0.533  10.455  19.922  0.00  0.00    +0.000 A 
ATOM     16  C   UNL     1       0.873   9.406  20.789  0.00  0.00    +0.000 A 
ATOM     17  C   UNL     1       1.554   8.261  20.353  0.00  0.00    +0.000 A 
BRANCH  12  21
ATOM     18  C   UNL     1       3.871   4.455  17.672  0.00  0.00    +0.000 A 
ATOM     19  C   UNL     1       2.794   4.390  18.560  0.00  0.00    +0.000 A 
ATOM     20  C   UNL     1       2.132   5.551  18.975  0.00  0.00    +0.000 A 
ATOM     21  C   UNL     1       2.539   6.823  18.542  0.00  0.00    +0.000 A 
ATOM     22  C   UNL     1       3.635   6.874  17.659  0.00  0.00    +0.000 A 
ATOM     23  C   UNL     1       4.291   5.713  17.231  0.00  0.00    +0.000 A 
BRANCH  18  24
ATOM     24  C   UNL     1       4.611   3.216  17.245  0.00  0.00    +0.000 C 
BRANCH  24  25
ATOM     25  O   UNL     1       3.860   2.051  17.559  0.00  0.00    +0.000 OA
ATOM     26  H   UNL     1       4.499   1.372  17.837  0.00  0.00    +0.000 HD
ENDBRANCH  24  25
ENDBRANCH  18  24
ENDBRANCH  12  21
ENDBRANCH   1  15
BRANCH   5  27
ATOM     27  O   UNL     1      -4.721  14.758  21.879  0.00  0.00    +0.000 OA
BRANCH  27  28
ATOM     28  C   UNL     1      -5.358  14.374  23.092  0.00  0.00    +0.000 C 
ATOM     29  C   UNL     1      -4.809  13.087  23.692  0.00  0.00    +0.000 C 
ATOM     30  O   UNL     1      -5.869  12.480  24.444  0.00  0.00    +0.000 OA
ATOM     31  C   UNL     1      -7.123  13.010  23.953  0.00  0.00    +0.000 C 
ATOM     32  C   UNL     1      -7.901  11.903  23.265  0.00  0.00    +0.000 C 
ATOM     33  C   UNL     1      -7.360  11.944  21.850  0.00  0.00    +0.000 C 
ATOM     34  O   UNL     1      -6.989  13.301  21.581  0.00  0.00    +0.000 OA
ATOM     35  C   UNL     1      -6.816  13.996  22.838  0.00  0.00    +0.000 C 
BRANCH  32  36
ATOM     36  O   UNL     1      -7.697  10.637  23.876  0.00  0.00    +0.000 OA
ATOM     37  H   UNL     1      -6.931  10.754  24.477  0.00  0.00    +0.000 HD
ENDBRANCH  32  36
ENDBRANCH  27  28
ENDBRANCH   5  27
TORSDOF 7
ENDMDL
MODEL 7
REMARK VINA RESULT:      -7.9      2.125      3.488
REMARK  Name = 
REMARK  7 active torsions:
REMARK  status: ('A' for Active; 'I' for Inactive)
REMARK    1  A    between atoms: O_1  and  C_2
REMARK    2  A    between atoms: C_2  and  C_3
REMARK    3  A    between atoms: C_6  and  C_7
REMARK    4  A    between atoms: C_10  and  C_11
REMARK    5  A    between atoms: C_15  and  O_16
REMARK    6  A    between atoms: O_16  and  C_17
REMARK    7  A    between atoms: C_21  and  O_22
REMARK                            x       y       z     vdW  Elec       q    Type
REMARK                         _______ _______ _______ _____ _____    ______ ____
ROOT
ATOM      1  C   UNL     1      -0.310  10.571  19.799  0.00  0.00    +0.000 A 
ATOM      2  N   UNL     1      -0.103  11.007  21.089  0.00  0.00    +0.000 NA
ATOM      3  C   UNL     1      -1.044  11.828  21.598  0.00  0.00    +0.000 A 
ATOM      4  N   UNL     1      -1.077  12.336  22.877  0.00  0.00    +0.000 NA
ATOM      5  C   UNL     1      -2.169  13.066  22.913  0.00  0.00    +0.000 A 
ATOM      6  N   UNL     1      -2.849  13.046  21.731  0.00  0.00    +0.000 N 
ATOM      7  C   UNL     1      -2.160  12.233  20.876  0.00  0.00    +0.000 A 
ATOM      8  C   UNL     1      -2.403  11.807  19.584  0.00  0.00    +0.000 A 
ATOM      9  C   UNL     1      -1.460  10.929  19.054  0.00  0.00    +0.000 A 
ATOM     10 CL   UNL     1      -1.872  10.297  17.492  0.00  0.00    +0.000 Cl
ATOM     11  H   UNL     1      -3.734  13.499  21.568  0.00  0.00    +0.000 HD
ENDROOT
BRANCH   1  15
ATOM     12  C   UNL     1       2.768   7.825  18.315  0.00  0.00    +0.000 A 
ATOM     13  C   UNL     1       2.216   7.699  19.600  0.00  0.00    +0.000 A 
ATOM     14  C   UNL     1       1.233   8.587  20.076  0.00  0.00    +0.000 A 
ATOM     15  C   UNL     1       0.763   9.660  19.298  0.00  0.00    +0.000 A 
ATOM     16  C   UNL     1       1.377   9.820  18.047  0.00  0.00    +0.000 A 
ATOM     17  C   UNL     1       2.316   8.906  17.549  0.00  0.00    +0.000 A 
BRANCH  12  21
ATOM     18  C   UNL     1       5.745   5.065  16.792  0.00  0.00    +0.000 A 
ATOM     19  C   UNL     1       5.364   6.191  16.057  0.00  0.00    +0.000 A 
ATOM     20  C   UNL     1       4.416   7.092  16.557  0.00  0.00    +0.000 A 
ATOM     21  C   UNL     1       3.790   6.885  17.796  0.00  0.00    +0.000 A 
ATOM     22  C   UNL     1       4.173   5.739  18.519  0.00  0.00    +0.000 A 
ATOM     23  C   UNL     1       5.132   4.844  18.029  0.00  0.00    +0.000 A 
BRANCH  18  24
ATOM     24  C   UNL     1       6.738   4.075  16.250  0.00  0.00    +0.000 C 
BRANCH  24  25
ATOM     25  O   UNL     1       7.948   4.119  16.994  0.00  0.00    +0.000 OA
ATOM     26  H   UNL     1       8.278   3.206  17.047  0.00  0.00    +0.000 HD
ENDBRANCH  24  25
ENDBRANCH  18  24
ENDBRANCH  12  21
ENDBRANCH   1  15
BRANCH   5  27
ATOM     27  O   UNL     1      -2.658  13.748  23.940  0.00  0.00    +0.000 OA
BRANCH  27  28
ATOM     28  C   UNL     1      -2.794  15.151  23.751  0.00  0.00    +0.000 C 
ATOM     29  C   UNL     1      -1.566  15.810  23.140  0.00  0.00    +0.000 C 
ATOM     30  O   UNL     1      -1.541  17.170  23.595  0.00  0.00    +0.000 OA
ATOM     31  C   UNL     1      -2.343  17.254  24.795  0.00  0.00    +0.000 C 
ATOM     32  C   UNL     1      -1.444  17.562  25.979  0.00  0.00    +0.000 C 
ATOM     33  C   UNL     1      -0.980  16.186  26.415  0.00  0.00    +0.000 C 
ATOM     34  O   UNL     1      -2.034  15.268  26.097  0.00  0.00    +0.000 OA
ATOM     35  C   UNL     1      -2.890  15.868  25.096  0.00  0.00    +0.000 C 
BRANCH  32  36
ATOM     36  O   UNL     1      -0.353  18.403  25.627  0.00  0.00    +0.000 OA
ATOM     37  H   UNL     1       0.444  17.833  25.673  0.00  0.00    +0.000 HD
ENDBRANCH  32  36
ENDBRANCH  27  28
ENDBRANCH   5  27
TORSDOF 7
ENDMDL
MODEL 8
REMARK VINA RESULT:      -7.9      3.875      4.630
REMARK  Name = 
REMARK  7 active torsions:
REMARK  status: ('A' for Active; 'I' for Inactive)
REMARK    1  A    between atoms: O_1  and  C_2
REMARK    2  A    between atoms: C_2  and  C_3
REMARK    3  A    between atoms: C_6  and  C_7
REMARK    4  A    between atoms: C_10  and  C_11
REMARK    5  A    between atoms: C_15  and  O_16
REMARK    6  A    between atoms: O_16  and  C_17
REMARK    7  A    between atoms: C_21  and  O_22
REMARK                            x       y       z     vdW  Elec       q    Type
REMARK                         _______ _______ _______ _____ _____    ______ ____
ROOT
ATOM      1  C   UNL     1       0.553  11.051  18.836  0.00  0.00    +0.000 A 
ATOM      2  N   UNL     1       1.449  12.058  19.120  0.00  0.00    +0.000 NA
ATOM      3  C   UNL     1       0.990  13.318  18.983  0.00  0.00    +0.000 A 
ATOM      4  N   UNL     1       1.684  14.472  19.267  0.00  0.00    +0.000 NA
ATOM      5  C   UNL     1       0.839  15.440  18.991  0.00  0.00    +0.000 A 
ATOM      6  N   UNL     1      -0.366  14.972  18.558  0.00  0.00    +0.000 N 
ATOM      7  C   UNL     1      -0.304  13.608  18.570  0.00  0.00    +0.000 A 
ATOM      8  C   UNL     1      -1.231  12.622  18.287  0.00  0.00    +0.000 A 
ATOM      9  C   UNL     1      -0.786  11.313  18.457  0.00  0.00    +0.000 A 
ATOM     10 CL   UNL     1      -2.015  10.108  18.240  0.00  0.00    +0.000 Cl
ATOM     11  H   UNL     1      -1.164  15.549  18.342  0.00  0.00    +0.000 HD
ENDROOT
BRANCH   1  15
ATOM     12  C   UNL     1       2.310   7.068  19.352  0.00  0.00    +0.000 A 
ATOM     13  C   UNL     1       2.303   7.722  18.109  0.00  0.00    +0.000 A 
ATOM     14  C   UNL     1       1.731   8.998  17.946  0.00  0.00    +0.000 A 
ATOM     15  C   UNL     1       1.119   9.680  19.014  0.00  0.00    +0.000 A 
ATOM     16  C   UNL     1       1.065   8.982  20.229  0.00  0.00    +0.000 A 
ATOM     17  C   UNL     1       1.680   7.736  20.409  0.00  0.00    +0.000 A 
BRANCH  12  21
ATOM     18  C   UNL     1       4.096   3.154  19.887  0.00  0.00    +0.000 A 
ATOM     19  C   UNL     1       4.694   4.111  19.063  0.00  0.00    +0.000 A 
ATOM     20  C   UNL     1       4.126   5.381  18.905  0.00  0.00    +0.000 A 
ATOM     21  C   UNL     1       2.924   5.732  19.539  0.00  0.00    +0.000 A 
ATOM     22  C   UNL     1       2.326   4.752  20.355  0.00  0.00    +0.000 A 
ATOM     23  C   UNL     1       2.899   3.485  20.527  0.00  0.00    +0.000 A 
BRANCH  18  24
ATOM     24  C   UNL     1       4.681   1.776  20.038  0.00  0.00    +0.000 C 
BRANCH  24  25
ATOM     25  O   UNL     1       5.256   1.614  21.327  0.00  0.00    +0.000 OA
ATOM     26  H   UNL     1       5.058   0.705  21.610  0.00  0.00    +0.000 HD
ENDBRANCH  24  25
ENDBRANCH  18  24
ENDBRANCH  12  21
ENDBRANCH   1  15
BRANCH   5  27
ATOM     27  O   UNL     1       1.027  16.746  19.124  0.00  0.00    +0.000 OA
BRANCH  27  28
ATOM     28  C   UNL     1       0.635  17.312  20.369  0.00  0.00    +0.000 C 
ATOM     29  C   UNL     1       0.004  16.310  21.326  0.00  0.00    +0.000 C 
ATOM     30  O   UNL     1      -0.895  17.038  22.174  0.00  0.00    +0.000 OA
ATOM     31  C   UNL     1      -1.235  18.275  21.505  0.00  0.00    +0.000 C 
ATOM     32  C   UNL     1      -2.704  18.252  21.123  0.00  0.00    +0.000 C 
ATOM     33  C   UNL     1      -2.688  17.557  19.776  0.00  0.00    +0.000 C 
ATOM     34  O   UNL     1      -1.438  17.877  19.154  0.00  0.00    +0.000 OA
ATOM     35  C   UNL     1      -0.505  18.308  20.172  0.00  0.00    +0.000 C 
BRANCH  32  36
ATOM     36  O   UNL     1      -3.500  17.554  22.071  0.00  0.00    +0.000 OA
ATOM     37  H   UNL     1      -4.400  17.934  21.991  0.00  0.00    +0.000 HD
ENDBRANCH  32  36
ENDBRANCH  27  28
ENDBRANCH   5  27
TORSDOF 7
ENDMDL
MODEL 9
REMARK VINA RESULT:      -7.9      2.208      2.970
REMARK  Name = 
REMARK  7 active torsions:
REMARK  status: ('A' for Active; 'I' for Inactive)
REMARK    1  A    between atoms: O_1  and  C_2
REMARK    2  A    between atoms: C_2  and  C_3
REMARK    3  A    between atoms: C_6  and  C_7
REMARK    4  A    between atoms: C_10  and  C_11
REMARK    5  A    between atoms: C_15  and  O_16
REMARK    6  A    between atoms: O_16  and  C_17
REMARK    7  A    between atoms: C_21  and  O_22
REMARK                            x       y       z     vdW  Elec       q    Type
REMARK                         _______ _______ _______ _____ _____    ______ ____
ROOT
ATOM      1  C   UNL     1      -0.165  10.214  20.944  0.00  0.00    +0.000 A 
ATOM      2  N   UNL     1      -0.895  11.093  20.175  0.00  0.00    +0.000 NA
ATOM      3  C   UNL     1      -1.703  11.939  20.845  0.00  0.00    +0.000 A 
ATOM      4  N   UNL     1      -2.475  12.937  20.293  0.00  0.00    +0.000 NA
ATOM      5  C   UNL     1      -3.074  13.495  21.320  0.00  0.00    +0.000 A 
ATOM      6  N   UNL     1      -2.720  12.921  22.506  0.00  0.00    +0.000 N 
ATOM      7  C   UNL     1      -1.817  11.935  22.229  0.00  0.00    +0.000 A 
ATOM      8  C   UNL     1      -1.092  11.074  23.031  0.00  0.00    +0.000 A 
ATOM      9  C   UNL     1      -0.224  10.215  22.358  0.00  0.00    +0.000 A 
ATOM     10 CL   UNL     1       0.778   9.256  23.400  0.00  0.00    +0.000 Cl
ATOM     11  H   UNL     1      -3.030  13.235  23.412  0.00  0.00    +0.000 HD
ENDROOT
BRANCH   1  15
ATOM     12  C   UNL     1       2.491   7.630  18.602  0.00  0.00    +0.000 A 
ATOM     13  C   UNL     1       1.897   8.778  18.053  0.00  0.00    +0.000 A 
ATOM     14  C   UNL     1       1.039   9.601  18.806  0.00  0.00    +0.000 A 
ATOM     15  C   UNL     1       0.715   9.310  20.144  0.00  0.00    +0.000 A 
ATOM     16  C   UNL     1       1.253   8.119  20.655  0.00  0.00    +0.000 A 
ATOM     17  C   UNL     1       2.151   7.327  19.926  0.00  0.00    +0.000 A 
BRANCH  12  21
ATOM     18  C   UNL     1       5.191   5.102  16.341  0.00  0.00    +0.000 A 
ATOM     19  C   UNL     1       4.165   4.550  17.112  0.00  0.00    +0.000 A 
ATOM     20  C   UNL     1       3.282   5.367  17.828  0.00  0.00    +0.000 A 
ATOM     21  C   UNL     1       3.410   6.765  17.824  0.00  0.00    +0.000 A 
ATOM     22  C   UNL     1       4.458   7.306  17.055  0.00  0.00    +0.000 A 
ATOM     23  C   UNL     1       5.334   6.492  16.326  0.00  0.00    +0.000 A 
BRANCH  18  24
ATOM     24  C   UNL     1       6.165   4.231  15.595  0.00  0.00    +0.000 C 
BRANCH  24  25
ATOM     25  O   UNL     1       7.485   4.745  15.707  0.00  0.00    +0.000 OA
ATOM     26  H   UNL     1       7.501   5.308  16.499  0.00  0.00    +0.000 HD
ENDBRANCH  24  25
ENDBRANCH  18  24
ENDBRANCH  12  21
ENDBRANCH   1  15
BRANCH   5  27
ATOM     27  O   UNL     1      -3.910  14.525  21.314  0.00  0.00    +0.000 OA
BRANCH  27  28
ATOM     28  C   UNL     1      -4.983  14.466  22.246  0.00  0.00    +0.000 C 
ATOM     29  C   UNL     1      -6.345  14.764  21.634  0.00  0.00    +0.000 C 
ATOM     30  O   UNL     1      -7.169  15.311  22.673  0.00  0.00    +0.000 OA
ATOM     31  C   UNL     1      -6.299  15.826  23.707  0.00  0.00    +0.000 C 
ATOM     32  C   UNL     1      -6.420  17.339  23.757  0.00  0.00    +0.000 C 
ATOM     33  C   UNL     1      -5.411  17.790  22.719  0.00  0.00    +0.000 C 
ATOM     34  O   UNL     1      -4.364  16.812  22.699  0.00  0.00    +0.000 OA
ATOM     35  C   UNL     1      -4.860  15.583  23.280  0.00  0.00    +0.000 C 
BRANCH  32  36
ATOM     36  O   UNL     1      -7.733  17.788  23.452  0.00  0.00    +0.000 OA
ATOM     37  H   UNL     1      -7.719  18.014  22.498  0.00  0.00    +0.000 HD
ENDBRANCH  32  36
ENDBRANCH  27  28
ENDBRANCH   5  27
TORSDOF 7
ENDMDL
