MODEL 1
REMARK VINA RESULT:      -8.1      0.000      0.000
REMARK  Name = 
REMARK  11 active torsions:
REMARK  status: ('A' for Active; 'I' for Inactive)
REMARK    1  A    between atoms: C_1  and  C_2
REMARK    2  A    between atoms: C_3  and  C_4
REMARK    3  A    between atoms: C_3  and  C_5
REMARK    4  A    between atoms: N_7  and  C_8
REMARK    5  A    between atoms: C_8  and  C_9
REMARK    6  A    between atoms: C_8  and  N_13
REMARK    7  A    between atoms: C_9  and  C_10
REMARK    8  A    between atoms: C_10  and  C_11
REMARK    9  A    between atoms: C_11  and  O_12
REMARK   10  A    between atoms: C_14  and  C_16
REMARK   11  A    between atoms: C_17  and  C_18
REMARK                            x       y       z     vdW  Elec       q    Type
REMARK                         _______ _______ _______ _____ _____    ______ ____
ROOT
ATOM      1  C   UNL     1       6.968   4.765  16.846  0.00  0.00    +0.000 C 
ENDROOT
BRANCH   1   4
ATOM      2  C   UNL     1       5.134   4.491  18.460  0.00  0.00    +0.000 C 
ATOM      3  O   UNL     1       5.887   4.006  19.298  0.00  0.00    +0.000 OA
ATOM      4  N   UNL     1       5.577   4.906  17.225  0.00  0.00    +0.000 N 
ATOM      5  H   UNL     1       4.916   5.147  16.508  0.00  0.00    +0.000 HD
BRANCH   2   8
ATOM      6  C   UNL     1       1.936   5.375  20.459  0.00  0.00    +0.000 C 
ATOM      7  C   UNL     1       3.322   5.094  19.969  0.00  0.00    +0.000 C 
ATOM      8  C   UNL     1       3.658   4.669  18.733  0.00  0.00    +0.000 C 
ATOM      9  C   UNL     1       2.658   4.422  17.644  0.00  0.00    +0.000 C 
ENDBRANCH   2   8
ENDBRANCH   1   4
BRANCH   1  10
ATOM     10  N   UNL     1       7.728   5.785  17.534  0.00  0.00    +0.000 N 
ATOM     11  C   UNL     1       7.362   7.108  17.458  0.00  0.00    +0.000 C 
ATOM     12  O   UNL     1       6.415   7.527  16.806  0.00  0.00    +0.000 OA
ATOM     13  H   UNL     1       8.485   5.500  18.131  0.00  0.00    +0.000 HD
BRANCH  11  14
ATOM     14  C   UNL     1       8.222   8.010  18.270  0.00  0.00    +0.000 C 
ATOM     15  C   UNL     1       8.279   9.315  17.956  0.00  0.00    +0.000 C 
BRANCH  15  16
ATOM     16  C   UNL     1       9.176  10.297  18.587  0.00  0.00    +0.000 A 
ATOM     17  C   UNL     1       9.148  10.423  19.984  0.00  0.00    +0.000 A 
ATOM     18  C   UNL     1       9.937  11.375  20.634  0.00  0.00    +0.000 A 
ATOM     19  C   UNL     1      10.779  12.203  19.895  0.00  0.00    +0.000 A 
ATOM     20  C   UNL     1      10.847  12.061  18.511  0.00  0.00    +0.000 A 
ATOM     21  C   UNL     1      10.058  11.107  17.861  0.00  0.00    +0.000 A 
ENDBRANCH  15  16
ENDBRANCH  11  14
ENDBRANCH   1  10
BRANCH   1  22
ATOM     22  C   UNL     1       7.117   4.871  15.314  0.00  0.00    +0.000 C 
BRANCH  22  23
ATOM     23  C   UNL     1       6.128   3.991  14.537  0.00  0.00    +0.000 C 
BRANCH  23  24
ATOM     24  C   UNL     1       6.451   3.910  13.051  0.00  0.00    +0.000 C 
BRANCH  24  25
ATOM     25  O   UNL     1       6.244   2.597  12.555  0.00  0.00    +0.000 OA
ATOM     26  H   UNL     1       6.056   2.023  13.318  0.00  0.00    +0.000 HD
ENDBRANCH  24  25
ENDBRANCH  23  24
ENDBRANCH  22  23
ENDBRANCH   1  22
TORSDOF 9
ENDMDL
MODEL 2
REMARK VINA RESULT:      -8.0      0.635      1.355
REMARK  Name = 
REMARK  11 active torsions:
REMARK  status: ('A' for Active; 'I' for Inactive)
REMARK    1  A    between atoms: C_1  and  C_2
REMARK    2  A    between atoms: C_3  and  C_4
REMARK    3  A    between atoms: C_3  and  C_5
REMARK    4  A    between atoms: N_7  and  C_8
REMARK    5  A    between atoms: C_8  and  C_9
REMARK    6  A    between atoms: C_8  and  N_13
REMARK    7  A    between atoms: C_9  and  C_10
REMARK    8  A    between atoms: C_10  and  C_11
REMARK    9  A    between atoms: C_11  and  O_12
REMARK   10  A    between atoms: C_14  and  C_16
REMARK   11  A    between atoms: C_17  and  C_18
REMARK                            x       y       z     vdW  Elec       q    Type
REMARK                         _______ _______ _______ _____ _____    ______ ____
ROOT
ATOM      1  C   UNL     1       6.958   4.752  16.936  0.00  0.00    +0.000 C 
ENDROOT
BRANCH   1   4
ATOM      2  C   UNL     1       5.062   4.469  18.475  0.00  0.00    +0.000 C 
ATOM      3  O   UNL     1       5.769   3.917  19.313  0.00  0.00    +0.000 OA
ATOM      4  N   UNL     1       5.560   4.925  17.276  0.00  0.00    +0.000 N 
ATOM      5  H   UNL     1       4.933   5.223  16.551  0.00  0.00    +0.000 HD
BRANCH   2   8
ATOM      6  C   UNL     1       1.297   3.587  18.706  0.00  0.00    +0.000 C 
ATOM      7  C   UNL     1       2.780   3.623  18.505  0.00  0.00    +0.000 C 
ATOM      8  C   UNL     1       3.585   4.687  18.709  0.00  0.00    +0.000 C 
ATOM      9  C   UNL     1       3.089   6.018  19.187  0.00  0.00    +0.000 C 
ENDBRANCH   2   8
ENDBRANCH   1   4
BRANCH   1  10
ATOM     10  N   UNL     1       7.719   5.771  17.625  0.00  0.00    +0.000 N 
ATOM     11  C   UNL     1       7.392   7.100  17.501  0.00  0.00    +0.000 C 
ATOM     12  O   UNL     1       6.481   7.525  16.802  0.00  0.00    +0.000 OA
ATOM     13  H   UNL     1       8.446   5.482  18.257  0.00  0.00    +0.000 HD
BRANCH  11  14
ATOM     14  C   UNL     1       8.245   8.002  18.320  0.00  0.00    +0.000 C 
ATOM     15  C   UNL     1       8.306   9.306  18.006  0.00  0.00    +0.000 C 
BRANCH  15  16
ATOM     16  C   UNL     1       9.198  10.287  18.645  0.00  0.00    +0.000 A 
ATOM     17  C   UNL     1      10.066  11.029  17.830  0.00  0.00    +0.000 A 
ATOM     18  C   UNL     1      10.973  11.935  18.384  0.00  0.00    +0.000 A 
ATOM     19  C   UNL     1      11.012  12.124  19.764  0.00  0.00    +0.000 A 
ATOM     20  C   UNL     1      10.128  11.425  20.583  0.00  0.00    +0.000 A 
ATOM     21  C   UNL     1       9.220  10.519  20.027  0.00  0.00    +0.000 A 
ENDBRANCH  15  16
ENDBRANCH  11  14
ENDBRANCH   1  10
BRANCH   1  22
ATOM     22  C   UNL     1       7.147   4.827  15.407  0.00  0.00    +0.000 C 
BRANCH  22  23
ATOM     23  C   UNL     1       5.929   4.342  14.610  0.00  0.00    +0.000 C 
BRANCH  23  24
ATOM     24  C   UNL     1       6.307   3.711  13.277  0.00  0.00    +0.000 C 
BRANCH  24  25
ATOM     25  O   UNL     1       5.173   3.581  12.435  0.00  0.00    +0.000 OA
ATOM     26  H   UNL     1       4.505   4.218  12.744  0.00  0.00    +0.000 HD
ENDBRANCH  24  25
ENDBRANCH  23  24
ENDBRANCH  22  23
ENDBRANCH   1  22
TORSDOF 9
ENDMDL
MODEL 3
REMARK VINA RESULT:      -7.9      0.903      1.463
REMARK  Name = 
REMARK  11 active torsions:
REMARK  status: ('A' for Active; 'I' for Inactive)
REMARK    1  A    between atoms: C_1  and  C_2
REMARK    2  A    between atoms: C_3  and  C_4
REMARK    3  A    between atoms: C_3  and  C_5
REMARK    4  A    between atoms: N_7  and  C_8
REMARK    5  A    between atoms: C_8  and  C_9
REMARK    6  A    between atoms: C_8  and  N_13
REMARK    7  A    between atoms: C_9  and  C_10
REMARK    8  A    between atoms: C_10  and  C_11
REMARK    9  A    between atoms: C_11  and  O_12
REMARK   10  A    between atoms: C_14  and  C_16
REMARK   11  A    between atoms: C_17  and  C_18
REMARK                            x       y       z     vdW  Elec       q    Type
REMARK                         _______ _______ _______ _____ _____    ______ ____
ROOT
ATOM      1  C   UNL     1       7.147   5.285  18.358  0.00  0.00    +0.000 C 
ENDROOT
BRANCH   1   4
ATOM      2  C   UNL     1       4.948   4.511  19.136  0.00  0.00    +0.000 C 
ATOM      3  O   UNL     1       5.445   3.560  19.730  0.00  0.00    +0.000 OA
ATOM      4  N   UNL     1       5.708   5.422  18.440  0.00  0.00    +0.000 N 
ATOM      5  H   UNL     1       5.264   6.090  17.835  0.00  0.00    +0.000 HD
BRANCH   2   8
ATOM      6  C   UNL     1       1.294   4.404  20.420  0.00  0.00    +0.000 C 
ATOM      7  C   UNL     1       2.766   4.264  20.187  0.00  0.00    +0.000 C 
ATOM      8  C   UNL     1       3.454   4.746  19.131  0.00  0.00    +0.000 C 
ATOM      9  C   UNL     1       2.820   5.521  18.016  0.00  0.00    +0.000 C 
ENDBRANCH   2   8
ENDBRANCH   1   4
BRANCH   1  10
ATOM     10  N   UNL     1       7.728   6.610  18.386  0.00  0.00    +0.000 N 
ATOM     11  C   UNL     1       7.321   7.577  17.498  0.00  0.00    +0.000 C 
ATOM     12  O   UNL     1       6.482   7.403  16.623  0.00  0.00    +0.000 OA
ATOM     13  H   UNL     1       8.383   6.832  19.116  0.00  0.00    +0.000 HD
BRANCH  11  14
ATOM     14  C   UNL     1       7.984   8.892  17.705  0.00  0.00    +0.000 C 
ATOM     15  C   UNL     1       8.790   9.057  18.766  0.00  0.00    +0.000 C 
BRANCH  15  16
ATOM     16  C   UNL     1       9.411  10.331  19.165  0.00  0.00    +0.000 A 
ATOM     17  C   UNL     1       9.959  11.147  18.163  0.00  0.00    +0.000 A 
ATOM     18  C   UNL     1      10.608  12.341  18.486  0.00  0.00    +0.000 A 
ATOM     19  C   UNL     1      10.704  12.743  19.816  0.00  0.00    +0.000 A 
ATOM     20  C   UNL     1      10.130  11.963  20.818  0.00  0.00    +0.000 A 
ATOM     21  C   UNL     1       9.479  10.769  20.494  0.00  0.00    +0.000 A 
ENDBRANCH  15  16
ENDBRANCH  11  14
ENDBRANCH   1  10
BRANCH   1  22
ATOM     22  C   UNL     1       7.538   4.511  17.082  0.00  0.00    +0.000 C 
BRANCH  22  23
ATOM     23  C   UNL     1       6.350   4.200  16.163  0.00  0.00    +0.000 C 
BRANCH  23  24
ATOM     24  C   UNL     1       6.654   4.465  14.694  0.00  0.00    +0.000 C 
BRANCH  24  25
ATOM     25  O   UNL     1       6.321   3.341  13.895  0.00  0.00    +0.000 OA
ATOM     26  H   UNL     1       6.867   2.595  14.198  0.00  0.00    +0.000 HD
ENDBRANCH  24  25
ENDBRANCH  23  24
ENDBRANCH  22  23
ENDBRANCH   1  22
TORSDOF 9
ENDMDL
MODEL 4
REMARK VINA RESULT:      -7.9      1.024      1.725
REMARK  Name = 
REMARK  11 active torsions:
REMARK  status: ('A' for Active; 'I' for Inactive)
REMARK    1  A    between atoms: C_1  and  C_2
REMARK    2  A    between atoms: C_3  and  C_4
REMARK    3  A    between atoms: C_3  and  C_5
REMARK    4  A    between atoms: N_7  and  C_8
REMARK    5  A    between atoms: C_8  and  C_9
REMARK    6  A    between atoms: C_8  and  N_13
REMARK    7  A    between atoms: C_9  and  C_10
REMARK    8  A    between atoms: C_10  and  C_11
REMARK    9  A    between atoms: C_11  and  O_12
REMARK   10  A    between atoms: C_14  and  C_16
REMARK   11  A    between atoms: C_17  and  C_18
REMARK                            x       y       z     vdW  Elec       q    Type
REMARK                         _______ _______ _______ _____ _____    ______ ____
ROOT
ATOM      1  C   UNL     1       7.126   4.774  17.931  0.00  0.00    +0.000 C 
ENDROOT
BRANCH   1   4
ATOM      2  C   UNL     1       4.885   4.322  18.834  0.00  0.00    +0.000 C 
ATOM      3  O   UNL     1       5.312   3.432  19.564  0.00  0.00    +0.000 OA
ATOM      4  N   UNL     1       5.706   5.047  18.001  0.00  0.00    +0.000 N 
ATOM      5  H   UNL     1       5.309   5.652  17.305  0.00  0.00    +0.000 HD
BRANCH   2   8
ATOM      6  C   UNL     1       1.215   4.325  17.595  0.00  0.00    +0.000 C 
ATOM      7  C   UNL     1       2.685   4.143  17.808  0.00  0.00    +0.000 C 
ATOM      8  C   UNL     1       3.418   4.684  18.804  0.00  0.00    +0.000 C 
ATOM      9  C   UNL     1       2.840   5.562  19.872  0.00  0.00    +0.000 C 
ENDBRANCH   2   8
ENDBRANCH   1   4
BRANCH   1  10
ATOM     10  N   UNL     1       7.831   5.901  18.504  0.00  0.00    +0.000 N 
ATOM     11  C   UNL     1       7.695   7.161  17.972  0.00  0.00    +0.000 C 
ATOM     12  O   UNL     1       7.014   7.426  16.990  0.00  0.00    +0.000 OA
ATOM     13  H   UNL     1       8.363   5.758  19.345  0.00  0.00    +0.000 HD
BRANCH  11  14
ATOM     14  C   UNL     1       8.446   8.205  18.718  0.00  0.00    +0.000 C 
ATOM     15  C   UNL     1       8.538   9.440  18.198  0.00  0.00    +0.000 C 
BRANCH  15  16
ATOM     16  C   UNL     1       9.348  10.534  18.758  0.00  0.00    +0.000 A 
ATOM     17  C   UNL     1      10.062  11.356  17.873  0.00  0.00    +0.000 A 
ATOM     18  C   UNL     1      10.890  12.375  18.349  0.00  0.00    +0.000 A 
ATOM     19  C   UNL     1      11.001  12.597  19.720  0.00  0.00    +0.000 A 
ATOM     20  C   UNL     1      10.268  11.815  20.609  0.00  0.00    +0.000 A 
ATOM     21  C   UNL     1       9.438  10.796  20.132  0.00  0.00    +0.000 A 
ENDBRANCH  15  16
ENDBRANCH  11  14
ENDBRANCH   1  10
BRANCH   1  22
ATOM     22  C   UNL     1       7.549   4.513  16.471  0.00  0.00    +0.000 C 
BRANCH  22  23
ATOM     23  C   UNL     1       6.368   4.258  15.525  0.00  0.00    +0.000 C 
BRANCH  23  24
ATOM     24  C   UNL     1       6.685   4.605  14.077  0.00  0.00    +0.000 C 
BRANCH  24  25
ATOM     25  O   UNL     1       7.776   5.509  13.997  0.00  0.00    +0.000 OA
ATOM     26  H   UNL     1       8.525   5.027  13.604  0.00  0.00    +0.000 HD
ENDBRANCH  24  25
ENDBRANCH  23  24
ENDBRANCH  22  23
ENDBRANCH   1  22
TORSDOF 9
ENDMDL
MODEL 5
REMARK VINA RESULT:      -7.7      1.294      1.311
REMARK  Name = 
REMARK  11 active torsions:
REMARK  status: ('A' for Active; 'I' for Inactive)
REMARK    1  A    between atoms: C_1  and  C_2
REMARK    2  A    between atoms: C_3  and  C_4
REMARK    3  A    between atoms: C_3  and  C_5
REMARK    4  A    between atoms: N_7  and  C_8
REMARK    5  A    between atoms: C_8  and  C_9
REMARK    6  A    between atoms: C_8  and  N_13
REMARK    7  A    between atoms: C_9  and  C_10
REMARK    8  A    between atoms: C_10  and  C_11
REMARK    9  A    between atoms: C_11  and  O_12
REMARK   10  A    between atoms: C_14  and  C_16
REMARK   11  A    between atoms: C_17  and  C_18
REMARK                            x       y       z     vdW  Elec       q    Type
REMARK                         _______ _______ _______ _____ _____    ______ ____
ROOT
ATOM      1  C   UNL     1       7.001   4.882  17.970  0.00  0.00    +0.000 C 
ENDROOT
BRANCH   1   4
ATOM      2  C   UNL     1       4.743   4.499  18.862  0.00  0.00    +0.000 C 
ATOM      3  O   UNL     1       5.091   3.463  19.419  0.00  0.00    +0.000 OA
ATOM      4  N   UNL     1       5.616   5.273  18.133  0.00  0.00    +0.000 N 
ATOM      5  H   UNL     1       5.268   6.021  17.561  0.00  0.00    +0.000 HD
BRANCH   2   8
ATOM      6  C   UNL     1       1.778   6.720  19.995  0.00  0.00    +0.000 C 
ATOM      7  C   UNL     1       3.091   6.036  19.776  0.00  0.00    +0.000 C 
ATOM      8  C   UNL     1       3.318   4.998  18.944  0.00  0.00    +0.000 C 
ATOM      9  C   UNL     1       2.254   4.375  18.091  0.00  0.00    +0.000 C 
ENDBRANCH   2   8
ENDBRANCH   1   4
BRANCH   1  10
ATOM     10  N   UNL     1       7.834   5.960  18.457  0.00  0.00    +0.000 N 
ATOM     11  C   UNL     1       7.697   7.235  17.963  0.00  0.00    +0.000 C 
ATOM     12  O   UNL     1       6.909   7.554  17.083  0.00  0.00    +0.000 OA
ATOM     13  H   UNL     1       8.463   5.773  19.219  0.00  0.00    +0.000 HD
BRANCH  11  14
ATOM     14  C   UNL     1       8.595   8.225  18.615  0.00  0.00    +0.000 C 
ATOM     15  C   UNL     1       8.494   9.521  18.277  0.00  0.00    +0.000 C 
BRANCH  15  16
ATOM     16  C   UNL     1       9.393  10.588  18.744  0.00  0.00    +0.000 A 
ATOM     17  C   UNL     1       9.508  10.805  20.126  0.00  0.00    +0.000 A 
ATOM     18  C   UNL     1      10.305  11.838  20.626  0.00  0.00    +0.000 A 
ATOM     19  C   UNL     1      11.011  12.658  19.749  0.00  0.00    +0.000 A 
ATOM     20  C   UNL     1      10.939  12.429  18.377  0.00  0.00    +0.000 A 
ATOM     21  C   UNL     1      10.142  11.394  17.877  0.00  0.00    +0.000 A 
ENDBRANCH  15  16
ENDBRANCH  11  14
ENDBRANCH   1  10
BRANCH   1  22
ATOM     22  C   UNL     1       7.292   4.553  16.491  0.00  0.00    +0.000 C 
BRANCH  22  23
ATOM     23  C   UNL     1       6.055   4.093  15.707  0.00  0.00    +0.000 C 
BRANCH  23  24
ATOM     24  C   UNL     1       5.652   5.070  14.612  0.00  0.00    +0.000 C 
BRANCH  24  25
ATOM     25  O   UNL     1       5.260   6.318  15.161  0.00  0.00    +0.000 OA
ATOM     26  H   UNL     1       5.586   6.349  16.078  0.00  0.00    +0.000 HD
ENDBRANCH  24  25
ENDBRANCH  23  24
ENDBRANCH  22  23
ENDBRANCH   1  22
TORSDOF 9
ENDMDL
MODEL 6
REMARK VINA RESULT:      -7.6      1.150      1.283
REMARK  Name = 
REMARK  11 active torsions:
REMARK  status: ('A' for Active; 'I' for Inactive)
REMARK    1  A    between atoms: C_1  and  C_2
REMARK    2  A    between atoms: C_3  and  C_4
REMARK    3  A    between atoms: C_3  and  C_5
REMARK    4  A    between atoms: N_7  and  C_8
REMARK    5  A    between atoms: C_8  and  C_9
REMARK    6  A    between atoms: C_8  and  N_13
REMARK    7  A    between atoms: C_9  and  C_10
REMARK    8  A    between atoms: C_10  and  C_11
REMARK    9  A    between atoms: C_11  and  O_12
REMARK   10  A    between atoms: C_14  and  C_16
REMARK   11  A    between atoms: C_17  and  C_18
REMARK                            x       y       z     vdW  Elec       q    Type
REMARK                         _______ _______ _______ _____ _____    ______ ____
ROOT
ATOM      1  C   UNL     1       5.976   5.733  16.556  0.00  0.00    +0.000 C 
ENDROOT
BRANCH   1   4
ATOM      2  C   UNL     1       4.650   4.772  18.390  0.00  0.00    +0.000 C 
ATOM      3  O   UNL     1       5.582   4.060  18.748  0.00  0.00    +0.000 OA
ATOM      4  N   UNL     1       4.752   5.639  17.326  0.00  0.00    +0.000 N 
ATOM      5  H   UNL     1       3.931   6.086  16.960  0.00  0.00    +0.000 HD
BRANCH   2   8
ATOM      6  C   UNL     1       1.345   3.293  19.766  0.00  0.00    +0.000 C 
ATOM      7  C   UNL     1       2.657   3.570  19.100  0.00  0.00    +0.000 C 
ATOM      8  C   UNL     1       3.317   4.747  19.103  0.00  0.00    +0.000 C 
ATOM      9  C   UNL     1       2.816   5.974  19.803  0.00  0.00    +0.000 C 
ENDBRANCH   2   8
ENDBRANCH   1   4
BRANCH   1  10
ATOM     10  N   UNL     1       6.535   7.052  16.759  0.00  0.00    +0.000 N 
ATOM     11  C   UNL     1       7.470   7.278  17.741  0.00  0.00    +0.000 C 
ATOM     12  O   UNL     1       7.876   6.423  18.518  0.00  0.00    +0.000 OA
ATOM     13  H   UNL     1       6.282   7.784  16.119  0.00  0.00    +0.000 HD
BRANCH  11  14
ATOM     14  C   UNL     1       7.974   8.676  17.772  0.00  0.00    +0.000 C 
ATOM     15  C   UNL     1       8.833   9.040  18.739  0.00  0.00    +0.000 C 
BRANCH  15  16
ATOM     16  C   UNL     1       9.316  10.412  18.967  0.00  0.00    +0.000 A 
ATOM     17  C   UNL     1       9.366  10.890  20.285  0.00  0.00    +0.000 A 
ATOM     18  C   UNL     1       9.764  12.201  20.558  0.00  0.00    +0.000 A 
ATOM     19  C   UNL     1      10.134  13.047  19.515  0.00  0.00    +0.000 A 
ATOM     20  C   UNL     1      10.127  12.574  18.205  0.00  0.00    +0.000 A 
ATOM     21  C   UNL     1       9.730  11.261  17.932  0.00  0.00    +0.000 A 
ENDBRANCH  15  16
ENDBRANCH  11  14
ENDBRANCH   1  10
BRANCH   1  22
ATOM     22  C   UNL     1       5.692   5.451  15.067  0.00  0.00    +0.000 C 
BRANCH  22  23
ATOM     23  C   UNL     1       6.093   4.039  14.620  0.00  0.00    +0.000 C 
BRANCH  23  24
ATOM     24  C   UNL     1       6.572   3.989  13.176  0.00  0.00    +0.000 C 
BRANCH  24  25
ATOM     25  O   UNL     1       6.064   2.845  12.509  0.00  0.00    +0.000 OA
ATOM     26  H   UNL     1       6.518   2.782  11.651  0.00  0.00    +0.000 HD
ENDBRANCH  24  25
ENDBRANCH  23  24
ENDBRANCH  22  23
ENDBRANCH   1  22
TORSDOF 9
ENDMDL
MODEL 7
REMARK VINA RESULT:      -7.6      4.672      6.873
REMARK  Name = 
REMARK  11 active torsions:
REMARK  status: ('A' for Active; 'I' for Inactive)
REMARK    1  A    between atoms: C_1  and  C_2
REMARK    2  A    between atoms: C_3  and  C_4
REMARK    3  A    between atoms: C_3  and  C_5
REMARK    4  A    between atoms: N_7  and  C_8
REMARK    5  A    between atoms: C_8  and  C_9
REMARK    6  A    between atoms: C_8  and  N_13
REMARK    7  A    between atoms: C_9  and  C_10
REMARK    8  A    between atoms: C_10  and  C_11
REMARK    9  A    between atoms: C_11  and  O_12
REMARK   10  A    between atoms: C_14  and  C_16
REMARK   11  A    between atoms: C_17  and  C_18
REMARK                            x       y       z     vdW  Elec       q    Type
REMARK                         _______ _______ _______ _____ _____    ______ ____
ROOT
ATOM      1  C   UNL     1       4.276   4.148  19.626  0.00  0.00    +0.000 C 
ENDROOT
BRANCH   1   4
ATOM      2  C   UNL     1       2.800   5.959  18.862  0.00  0.00    +0.000 C 
ATOM      3  O   UNL     1       2.493   5.339  17.849  0.00  0.00    +0.000 OA
ATOM      4  N   UNL     1       3.665   5.449  19.803  0.00  0.00    +0.000 N 
ATOM      5  H   UNL     1       4.020   6.040  20.534  0.00  0.00    +0.000 HD
BRANCH   2   8
ATOM      6  C   UNL     1       1.652   9.586  18.131  0.00  0.00    +0.000 C 
ATOM      7  C   UNL     1       2.193   8.191  18.103  0.00  0.00    +0.000 C 
ATOM      8  C   UNL     1       2.243   7.335  19.146  0.00  0.00    +0.000 C 
ATOM      9  C   UNL     1       1.740   7.673  20.517  0.00  0.00    +0.000 C 
ENDBRANCH   2   8
ENDBRANCH   1   4
BRANCH   1  10
ATOM     10  N   UNL     1       4.963   4.142  18.353  0.00  0.00    +0.000 N 
ATOM     11  C   UNL     1       6.237   4.646  18.237  0.00  0.00    +0.000 C 
ATOM     12  O   UNL     1       6.868   5.148  19.158  0.00  0.00    +0.000 OA
ATOM     13  H   UNL     1       4.519   3.695  17.570  0.00  0.00    +0.000 HD
BRANCH  11  14
ATOM     14  C   UNL     1       6.808   4.510  16.871  0.00  0.00    +0.000 C 
ATOM     15  C   UNL     1       6.011   4.703  15.807  0.00  0.00    +0.000 C 
BRANCH  15  16
ATOM     16  C   UNL     1       6.404   4.482  14.406  0.00  0.00    +0.000 A 
ATOM     17  C   UNL     1       7.460   5.243  13.883  0.00  0.00    +0.000 A 
ATOM     18  C   UNL     1       7.842   5.116  12.545  0.00  0.00    +0.000 A 
ATOM     19  C   UNL     1       7.182   4.211  11.717  0.00  0.00    +0.000 A 
ATOM     20  C   UNL     1       6.159   3.420  12.232  0.00  0.00    +0.000 A 
ATOM     21  C   UNL     1       5.778   3.546  13.572  0.00  0.00    +0.000 A 
ENDBRANCH  15  16
ENDBRANCH  11  14
ENDBRANCH   1  10
BRANCH   1  22
ATOM     22  C   UNL     1       3.206   3.040  19.707  0.00  0.00    +0.000 C 
BRANCH  22  23
ATOM     23  C   UNL     1       2.758   2.720  21.140  0.00  0.00    +0.000 C 
BRANCH  23  24
ATOM     24  C   UNL     1       1.357   3.230  21.449  0.00  0.00    +0.000 C 
BRANCH  24  25
ATOM     25  O   UNL     1       0.519   3.141  20.307  0.00  0.00    +0.000 OA
ATOM     26  H   UNL     1      -0.211   2.536  20.527  0.00  0.00    +0.000 HD
ENDBRANCH  24  25
ENDBRANCH  23  24
ENDBRANCH  22  23
ENDBRANCH   1  22
TORSDOF 9
ENDMDL
MODEL 8
REMARK VINA RESULT:      -7.6      1.549      1.712
REMARK  Name = 
REMARK  11 active torsions:
REMARK  status: ('A' for Active; 'I' for Inactive)
REMARK    1  A    between atoms: C_1  and  C_2
REMARK    2  A    between atoms: C_3  and  C_4
REMARK    3  A    between atoms: C_3  and  C_5
REMARK    4  A    between atoms: N_7  and  C_8
REMARK    5  A    between atoms: C_8  and  C_9
REMARK    6  A    between atoms: C_8  and  N_13
REMARK    7  A    between atoms: C_9  and  C_10
REMARK    8  A    between atoms: C_10  and  C_11
REMARK    9  A    between atoms: C_11  and  O_12
REMARK   10  A    between atoms: C_14  and  C_16
REMARK   11  A    between atoms: C_17  and  C_18
REMARK                            x       y       z     vdW  Elec       q    Type
REMARK                         _______ _______ _______ _____ _____    ______ ____
ROOT
ATOM      1  C   UNL     1       5.868   5.945  16.712  0.00  0.00    +0.000 C 
ENDROOT
BRANCH   1   4
ATOM      2  C   UNL     1       4.183   5.011  18.239  0.00  0.00    +0.000 C 
ATOM      3  O   UNL     1       4.621   3.874  18.096  0.00  0.00    +0.000 OA
ATOM      4  N   UNL     1       4.738   6.099  17.606  0.00  0.00    +0.000 N 
ATOM      5  H   UNL     1       4.263   6.983  17.615  0.00  0.00    +0.000 HD
BRANCH   2   8
ATOM      6  C   UNL     1       1.153   4.247  20.529  0.00  0.00    +0.000 C 
ATOM      7  C   UNL     1       2.331   4.219  19.606  0.00  0.00    +0.000 C 
ATOM      8  C   UNL     1       2.994   5.293  19.130  0.00  0.00    +0.000 C 
ATOM      9  C   UNL     1       2.637   6.706  19.478  0.00  0.00    +0.000 C 
ENDBRANCH   2   8
ENDBRANCH   1   4
BRANCH   1  10
ATOM     10  N   UNL     1       6.630   7.174  16.734  0.00  0.00    +0.000 N 
ATOM     11  C   UNL     1       7.560   7.410  17.718  0.00  0.00    +0.000 C 
ATOM     12  O   UNL     1       7.797   6.643  18.643  0.00  0.00    +0.000 OA
ATOM     13  H   UNL     1       6.520   7.821  15.972  0.00  0.00    +0.000 HD
BRANCH  11  14
ATOM     14  C   UNL     1       8.286   8.697  17.554  0.00  0.00    +0.000 C 
ATOM     15  C   UNL     1       8.621   9.402  18.647  0.00  0.00    +0.000 C 
BRANCH  15  16
ATOM     16  C   UNL     1       9.227  10.743  18.634  0.00  0.00    +0.000 A 
ATOM     17  C   UNL     1      10.330  10.985  19.468  0.00  0.00    +0.000 A 
ATOM     18  C   UNL     1      10.912  12.252  19.538  0.00  0.00    +0.000 A 
ATOM     19  C   UNL     1      10.410  13.293  18.760  0.00  0.00    +0.000 A 
ATOM     20  C   UNL     1       9.341  13.058  17.897  0.00  0.00    +0.000 A 
ATOM     21  C   UNL     1       8.759  11.788  17.827  0.00  0.00    +0.000 A 
ENDBRANCH  15  16
ENDBRANCH  11  14
ENDBRANCH   1  10
BRANCH   1  22
ATOM     22  C   UNL     1       5.380   5.595  15.291  0.00  0.00    +0.000 C 
BRANCH  22  23
ATOM     23  C   UNL     1       6.004   4.313  14.724  0.00  0.00    +0.000 C 
BRANCH  23  24
ATOM     24  C   UNL     1       7.112   4.590  13.717  0.00  0.00    +0.000 C 
BRANCH  24  25
ATOM     25  O   UNL     1       7.967   5.625  14.173  0.00  0.00    +0.000 OA
ATOM     26  H   UNL     1       7.744   5.800  15.104  0.00  0.00    +0.000 HD
ENDBRANCH  24  25
ENDBRANCH  23  24
ENDBRANCH  22  23
ENDBRANCH   1  22
TORSDOF 9
ENDMDL
MODEL 9
REMARK VINA RESULT:      -7.5      1.413      1.529
REMARK  Name = 
REMARK  11 active torsions:
REMARK  status: ('A' for Active; 'I' for Inactive)
REMARK    1  A    between atoms: C_1  and  C_2
REMARK    2  A    between atoms: C_3  and  C_4
REMARK    3  A    between atoms: C_3  and  C_5
REMARK    4  A    between atoms: N_7  and  C_8
REMARK    5  A    between atoms: C_8  and  C_9
REMARK    6  A    between atoms: C_8  and  N_13
REMARK    7  A    between atoms: C_9  and  C_10
REMARK    8  A    between atoms: C_10  and  C_11
REMARK    9  A    between atoms: C_11  and  O_12
REMARK   10  A    between atoms: C_14  and  C_16
REMARK   11  A    between atoms: C_17  and  C_18
REMARK                            x       y       z     vdW  Elec       q    Type
REMARK                         _______ _______ _______ _____ _____    ______ ____
ROOT
ATOM      1  C   UNL     1       5.924   6.154  16.674  0.00  0.00    +0.000 C 
ENDROOT
BRANCH   1   4
ATOM      2  C   UNL     1       4.918   4.911  18.541  0.00  0.00    +0.000 C 
ATOM      3  O   UNL     1       5.857   4.124  18.580  0.00  0.00    +0.000 OA
ATOM      4  N   UNL     1       4.866   5.952  17.643  0.00  0.00    +0.000 N 
ATOM      5  H   UNL     1       4.018   6.477  17.529  0.00  0.00    +0.000 HD
BRANCH   2   8
ATOM      6  C   UNL     1       1.819   6.033  20.578  0.00  0.00    +0.000 C 
ATOM      7  C   UNL     1       3.035   5.915  19.713  0.00  0.00    +0.000 C 
ATOM      8  C   UNL     1       3.745   4.790  19.488  0.00  0.00    +0.000 C 
ATOM      9  C   UNL     1       3.398   3.460  20.086  0.00  0.00    +0.000 C 
ENDBRANCH   2   8
ENDBRANCH   1   4
BRANCH   1  10
ATOM     10  N   UNL     1       6.517   7.451  16.918  0.00  0.00    +0.000 N 
ATOM     11  C   UNL     1       7.548   7.598  17.815  0.00  0.00    +0.000 C 
ATOM     12  O   UNL     1       8.020   6.685  18.481  0.00  0.00    +0.000 OA
ATOM     13  H   UNL     1       6.209   8.231  16.363  0.00  0.00    +0.000 HD
BRANCH  11  14
ATOM     14  C   UNL     1       8.069   8.988  17.900  0.00  0.00    +0.000 C 
ATOM     15  C   UNL     1       8.972   9.291  18.847  0.00  0.00    +0.000 C 
BRANCH  15  16
ATOM     16  C   UNL     1       9.480  10.643  19.128  0.00  0.00    +0.000 A 
ATOM     17  C   UNL     1       9.448  11.105  20.453  0.00  0.00    +0.000 A 
ATOM     18  C   UNL     1       9.866  12.399  20.772  0.00  0.00    +0.000 A 
ATOM     19  C   UNL     1      10.338  13.244  19.770  0.00  0.00    +0.000 A 
ATOM     20  C   UNL     1      10.413  12.786  18.457  0.00  0.00    +0.000 A 
ATOM     21  C   UNL     1       9.996  11.490  18.138  0.00  0.00    +0.000 A 
ENDBRANCH  15  16
ENDBRANCH  11  14
ENDBRANCH   1  10
BRANCH   1  22
ATOM     22  C   UNL     1       5.365   6.037  15.241  0.00  0.00    +0.000 C 
BRANCH  22  23
ATOM     23  C   UNL     1       5.659   4.686  14.574  0.00  0.00    +0.000 C 
BRANCH  23  24
ATOM     24  C   UNL     1       7.148   4.434  14.383  0.00  0.00    +0.000 C 
BRANCH  24  25
ATOM     25  O   UNL     1       7.800   5.589  13.879  0.00  0.00    +0.000 OA
ATOM     26  H   UNL     1       8.381   5.927  14.583  0.00  0.00    +0.000 HD
ENDBRANCH  24  25
ENDBRANCH  23  24
ENDBRANCH  22  23
ENDBRANCH   1  22
TORSDOF 9
ENDMDL
