MODEL 1
REMARK VINA RESULT:      -9.2      0.000      0.000
REMARK  Name = 
REMARK  4 active torsions:
REMARK  status: ('A' for Active; 'I' for Inactive)
REMARK    1  A    between atoms: N_3  and  C_4
REMARK    2  A    between atoms: C_7  and  O_8
REMARK    3  A    between atoms: N_11  and  C_12
REMARK    4  A    between atoms: C_15  and  C_16
REMARK                            x       y       z     vdW  Elec       q    Type
REMARK                         _______ _______ _______ _____ _____    ______ ____
ROOT
ATOM      1  C   UNL     1       0.032  10.116  20.252  0.00  0.00    +0.000 A 
ATOM      2  C   UNL     1       0.092   9.119  21.228  0.00  0.00    +0.000 A 
ATOM      3  C   UNL     1       0.914   7.999  21.064  0.00  0.00    +0.000 A 
ATOM      4  C   UNL     1       1.700   7.830  19.916  0.00  0.00    +0.000 A 
ATOM      5  C   UNL     1       1.641   8.855  18.949  0.00  0.00    +0.000 A 
ATOM      6  C   UNL     1       0.812   9.977  19.107  0.00  0.00    +0.000 A 
ENDROOT
BRANCH   4   7
ATOM      7  C   UNL     1       2.519   6.619  19.717  0.00  0.00    +0.000 A 
ATOM      8  N   UNL     1       3.548   6.675  18.856  0.00  0.00    +0.000 NA
ATOM      9  C   UNL     1       4.342   5.584  18.736  0.00  0.00    +0.000 A 
ATOM     10  N   UNL     1       5.379   5.669  17.821  0.00  0.00    +0.000 N 
ATOM     11  C   UNL     1       5.321   6.598  16.694  0.00  0.00    +0.000 C 
ATOM     12  C   UNL     1       5.921   5.873  15.471  0.00  0.00    +0.000 C 
ATOM     13  O   UNL     1       7.263   5.408  15.727  0.00  0.00    +0.000 OA
ATOM     14  C   UNL     1       7.283   4.508  16.853  0.00  0.00    +0.000 C 
ATOM     15  C   UNL     1       6.730   5.185  18.117  0.00  0.00    +0.000 C 
ATOM     16  C   UNL     1       4.098   4.393  19.449  0.00  0.00    +0.000 A 
ATOM     17  N   UNL     1       4.831   3.242  19.319  0.00  0.00    +0.000 NA
ATOM     18  C   UNL     1       4.475   2.163  20.040  0.00  0.00    +0.000 A 
ATOM     19  C   UNL     1       3.400   2.155  20.897  0.00  0.00    +0.000 A 
ATOM     20  C   UNL     1       2.656   3.325  21.013  0.00  0.00    +0.000 A 
ATOM     21  C   UNL     1       2.984   4.464  20.292  0.00  0.00    +0.000 A 
ATOM     22  N   UNL     1       2.207   5.540  20.446  0.00  0.00    +0.000 NA
ENDBRANCH   4   7
BRANCH   1  26
ATOM     23  O   UNL     1      -0.448  11.746  22.571  0.00  0.00    +0.000 OA
ATOM     24  C   UNL     1      -1.073  11.925  21.534  0.00  0.00    +0.000 C 
ATOM     25  N   UNL     1      -2.128  12.812  21.395  0.00  0.00    +0.000 N 
ATOM     26  N   UNL     1      -0.818  11.242  20.358  0.00  0.00    +0.000 N 
ATOM     27  H   UNL     1      -2.709  12.693  20.578  0.00  0.00    +0.000 HD
ATOM     28  H   UNL     1      -1.087  11.698  19.499  0.00  0.00    +0.000 HD
BRANCH  25  29
ATOM     29  C   UNL     1      -2.659  13.613  22.435  0.00  0.00    +0.000 A 
ATOM     30  C   UNL     1      -3.756  13.230  23.216  0.00  0.00    +0.000 A 
ATOM     31  C   UNL     1      -4.303  14.095  24.164  0.00  0.00    +0.000 A 
ATOM     32  C   UNL     1      -3.734  15.346  24.351  0.00  0.00    +0.000 A 
ATOM     33  C   UNL     1      -2.611  15.728  23.629  0.00  0.00    +0.000 A 
ATOM     34  C   UNL     1      -2.069  14.861  22.674  0.00  0.00    +0.000 A 
BRANCH  32  35
ATOM     35  O   UNL     1      -4.261  16.232  25.242  0.00  0.00    +0.000 OA
ATOM     36  H   UNL     1      -3.682  16.258  26.023  0.00  0.00    +0.000 HD
ENDBRANCH  32  35
ENDBRANCH  25  29
ENDBRANCH   1  26
TORSDOF 4
ENDMDL
MODEL 2
REMARK VINA RESULT:      -9.2      0.826      1.193
REMARK  Name = 
REMARK  4 active torsions:
REMARK  status: ('A' for Active; 'I' for Inactive)
REMARK    1  A    between atoms: N_3  and  C_4
REMARK    2  A    between atoms: C_7  and  O_8
REMARK    3  A    between atoms: N_11  and  C_12
REMARK    4  A    between atoms: C_15  and  C_16
REMARK                            x       y       z     vdW  Elec       q    Type
REMARK                         _______ _______ _______ _____ _____    ______ ____
ROOT
ATOM      1  C   UNL     1       0.141  10.334  19.659  0.00  0.00    +0.000 A 
ATOM      2  C   UNL     1       0.342   9.519  20.776  0.00  0.00    +0.000 A 
ATOM      3  C   UNL     1       1.145   8.376  20.700  0.00  0.00    +0.000 A 
ATOM      4  C   UNL     1       1.769   7.999  19.502  0.00  0.00    +0.000 A 
ATOM      5  C   UNL     1       1.570   8.843  18.389  0.00  0.00    +0.000 A 
ATOM      6  C   UNL     1       0.760   9.986  18.461  0.00  0.00    +0.000 A 
ENDROOT
BRANCH   4   7
ATOM      7  C   UNL     1       2.564   6.760  19.408  0.00  0.00    +0.000 A 
ATOM      8  N   UNL     1       3.610   6.732  18.566  0.00  0.00    +0.000 NA
ATOM      9  C   UNL     1       4.382   5.619  18.541  0.00  0.00    +0.000 A 
ATOM     10  N   UNL     1       5.437   5.616  17.643  0.00  0.00    +0.000 N 
ATOM     11  C   UNL     1       5.422   6.461  16.451  0.00  0.00    +0.000 C 
ATOM     12  C   UNL     1       6.028   5.638  15.297  0.00  0.00    +0.000 C 
ATOM     13  O   UNL     1       7.354   5.165  15.612  0.00  0.00    +0.000 OA
ATOM     14  C   UNL     1       7.333   4.348  16.800  0.00  0.00    +0.000 C 
ATOM     15  C   UNL     1       6.771   5.126  18.001  0.00  0.00    +0.000 C 
ATOM     16  C   UNL     1       4.097   4.488  19.333  0.00  0.00    +0.000 A 
ATOM     17  N   UNL     1       4.806   3.315  19.301  0.00  0.00    +0.000 NA
ATOM     18  C   UNL     1       4.413   2.299  20.090  0.00  0.00    +0.000 A 
ATOM     19  C   UNL     1       3.322   2.375  20.923  0.00  0.00    +0.000 A 
ATOM     20  C   UNL     1       2.603   3.566  20.939  0.00  0.00    +0.000 A 
ATOM     21  C   UNL     1       2.970   4.643  20.145  0.00  0.00    +0.000 A 
ATOM     22  N   UNL     1       2.214   5.743  20.206  0.00  0.00    +0.000 NA
ENDBRANCH   4   7
BRANCH   1  26
ATOM     23  O   UNL     1      -1.188  11.494  21.929  0.00  0.00    +0.000 OA
ATOM     24  C   UNL     1      -1.380  11.923  20.798  0.00  0.00    +0.000 C 
ATOM     25  N   UNL     1      -2.314  12.893  20.473  0.00  0.00    +0.000 N 
ATOM     26  N   UNL     1      -0.696  11.473  19.682  0.00  0.00    +0.000 N 
ATOM     27  H   UNL     1      -2.545  12.982  19.494  0.00  0.00    +0.000 HD
ATOM     28  H   UNL     1      -0.628  12.111  18.903  0.00  0.00    +0.000 HD
BRANCH  25  29
ATOM     29  C   UNL     1      -3.204  13.504  21.389  0.00  0.00    +0.000 A 
ATOM     30  C   UNL     1      -2.905  14.685  22.078  0.00  0.00    +0.000 A 
ATOM     31  C   UNL     1      -3.772  15.196  23.044  0.00  0.00    +0.000 A 
ATOM     32  C   UNL     1      -4.961  14.534  23.307  0.00  0.00    +0.000 A 
ATOM     33  C   UNL     1      -5.307  13.391  22.599  0.00  0.00    +0.000 A 
ATOM     34  C   UNL     1      -4.432  12.877  21.636  0.00  0.00    +0.000 A 
BRANCH  32  35
ATOM     35  O   UNL     1      -5.818  14.982  24.267  0.00  0.00    +0.000 OA
ATOM     36  H   UNL     1      -5.434  14.775  25.137  0.00  0.00    +0.000 HD
ENDBRANCH  32  35
ENDBRANCH  25  29
ENDBRANCH   1  26
TORSDOF 4
ENDMDL
MODEL 3
REMARK VINA RESULT:      -9.1      1.087      1.395
REMARK  Name = 
REMARK  4 active torsions:
REMARK  status: ('A' for Active; 'I' for Inactive)
REMARK    1  A    between atoms: N_3  and  C_4
REMARK    2  A    between atoms: C_7  and  O_8
REMARK    3  A    between atoms: N_11  and  C_12
REMARK    4  A    between atoms: C_15  and  C_16
REMARK                            x       y       z     vdW  Elec       q    Type
REMARK                         _______ _______ _______ _____ _____    ______ ____
ROOT
ATOM      1  C   UNL     1       0.700  10.688  21.068  0.00  0.00    +0.000 A 
ATOM      2  C   UNL     1       0.885  10.423  19.709  0.00  0.00    +0.000 A 
ATOM      3  C   UNL     1       1.328   9.170  19.273  0.00  0.00    +0.000 A 
ATOM      4  C   UNL     1       1.611   8.138  20.179  0.00  0.00    +0.000 A 
ATOM      5  C   UNL     1       1.403   8.418  21.545  0.00  0.00    +0.000 A 
ATOM      6  C   UNL     1       0.965   9.676  21.987  0.00  0.00    +0.000 A 
ENDROOT
BRANCH   4   7
ATOM      7  C   UNL     1       2.138   6.838  19.721  0.00  0.00    +0.000 A 
ATOM      8  N   UNL     1       3.171   6.831  18.864  0.00  0.00    +0.000 NA
ATOM      9  C   UNL     1       3.700   5.635  18.509  0.00  0.00    +0.000 A 
ATOM     10  N   UNL     1       4.748   5.664  17.605  0.00  0.00    +0.000 N 
ATOM     11  C   UNL     1       4.928   6.788  16.688  0.00  0.00    +0.000 C 
ATOM     12  C   UNL     1       5.375   6.206  15.331  0.00  0.00    +0.000 C 
ATOM     13  O   UNL     1       6.570   5.408  15.455  0.00  0.00    +0.000 OA
ATOM     14  C   UNL     1       6.361   4.320  16.378  0.00  0.00    +0.000 C 
ATOM     15  C   UNL     1       5.948   4.837  17.765  0.00  0.00    +0.000 C 
ATOM     16  C   UNL     1       3.175   4.412  18.975  0.00  0.00    +0.000 A 
ATOM     17  N   UNL     1       3.631   3.174  18.600  0.00  0.00    +0.000 NA
ATOM     18  C   UNL     1       3.024   2.083  19.099  0.00  0.00    +0.000 A 
ATOM     19  C   UNL     1       1.956   2.147  19.962  0.00  0.00    +0.000 A 
ATOM     20  C   UNL     1       1.495   3.408  20.328  0.00  0.00    +0.000 A 
ATOM     21  C   UNL     1       2.088   4.563  19.842  0.00  0.00    +0.000 A 
ATOM     22  N   UNL     1       1.573   5.734  20.227  0.00  0.00    +0.000 NA
ENDBRANCH   4   7
BRANCH   1  26
ATOM     23  O   UNL     1      -1.661  11.317  22.582  0.00  0.00    +0.000 OA
ATOM     24  C   UNL     1      -0.904  12.200  22.198  0.00  0.00    +0.000 C 
ATOM     25  N   UNL     1      -1.147  13.557  22.332  0.00  0.00    +0.000 N 
ATOM     26  N   UNL     1       0.296  11.953  21.554  0.00  0.00    +0.000 N 
ATOM     27  H   UNL     1      -0.578  14.171  21.768  0.00  0.00    +0.000 HD
ATOM     28  H   UNL     1       1.004  12.668  21.623  0.00  0.00    +0.000 HD
BRANCH  25  29
ATOM     29  C   UNL     1      -2.315  14.121  22.898  0.00  0.00    +0.000 A 
ATOM     30  C   UNL     1      -3.500  14.317  22.179  0.00  0.00    +0.000 A 
ATOM     31  C   UNL     1      -4.594  14.966  22.753  0.00  0.00    +0.000 A 
ATOM     32  C   UNL     1      -4.511  15.403  24.067  0.00  0.00    +0.000 A 
ATOM     33  C   UNL     1      -3.367  15.172  24.819  0.00  0.00    +0.000 A 
ATOM     34  C   UNL     1      -2.270  14.526  24.238  0.00  0.00    +0.000 A 
BRANCH  32  35
ATOM     35  O   UNL     1      -5.544  16.072  24.652  0.00  0.00    +0.000 OA
ATOM     36  H   UNL     1      -5.514  16.998  24.353  0.00  0.00    +0.000 HD
ENDBRANCH  32  35
ENDBRANCH  25  29
ENDBRANCH   1  26
TORSDOF 4
ENDMDL
MODEL 4
REMARK VINA RESULT:      -9.0      1.196      1.426
REMARK  Name = 
REMARK  4 active torsions:
REMARK  status: ('A' for Active; 'I' for Inactive)
REMARK    1  A    between atoms: N_3  and  C_4
REMARK    2  A    between atoms: C_7  and  O_8
REMARK    3  A    between atoms: N_11  and  C_12
REMARK    4  A    between atoms: C_15  and  C_16
REMARK                            x       y       z     vdW  Elec       q    Type
REMARK                         _______ _______ _______ _____ _____    ______ ____
ROOT
ATOM      1  C   UNL     1       0.415  10.941  21.086  0.00  0.00    +0.000 A 
ATOM      2  C   UNL     1       0.724   9.994  22.064  0.00  0.00    +0.000 A 
ATOM      3  C   UNL     1       1.260   8.749  21.718  0.00  0.00    +0.000 A 
ATOM      4  C   UNL     1       1.499   8.402  20.381  0.00  0.00    +0.000 A 
ATOM      5  C   UNL     1       1.198   9.377  19.408  0.00  0.00    +0.000 A 
ATOM      6  C   UNL     1       0.654  10.624  19.751  0.00  0.00    +0.000 A 
ENDROOT
BRANCH   4   7
ATOM      7  C   UNL     1       2.006   7.066  20.013  0.00  0.00    +0.000 A 
ATOM      8  N   UNL     1       3.047   6.985  19.169  0.00  0.00    +0.000 NA
ATOM      9  C   UNL     1       3.557   5.759  18.897  0.00  0.00    +0.000 A 
ATOM     10  N   UNL     1       4.615   5.712  18.004  0.00  0.00    +0.000 N 
ATOM     11  C   UNL     1       4.824   6.771  17.019  0.00  0.00    +0.000 C 
ATOM     12  C   UNL     1       5.273   6.096  15.707  0.00  0.00    +0.000 C 
ATOM     13  O   UNL     1       6.452   5.286  15.895  0.00  0.00    +0.000 OA
ATOM     14  C   UNL     1       6.214   4.263  16.883  0.00  0.00    +0.000 C 
ATOM     15  C   UNL     1       5.797   4.875  18.229  0.00  0.00    +0.000 C 
ATOM     16  C   UNL     1       3.006   4.579  19.435  0.00  0.00    +0.000 A 
ATOM     17  N   UNL     1       3.441   3.312  19.144  0.00  0.00    +0.000 NA
ATOM     18  C   UNL     1       2.810   2.265  19.705  0.00  0.00    +0.000 A 
ATOM     19  C   UNL     1       1.735   2.404  20.551  0.00  0.00    +0.000 A 
ATOM     20  C   UNL     1       1.294   3.693  20.831  0.00  0.00    +0.000 A 
ATOM     21  C   UNL     1       1.913   4.805  20.278  0.00  0.00    +0.000 A 
ATOM     22  N   UNL     1       1.416   6.007  20.583  0.00  0.00    +0.000 NA
ENDBRANCH   4   7
BRANCH   1  26
ATOM     23  O   UNL     1      -1.909  11.455  22.698  0.00  0.00    +0.000 OA
ATOM     24  C   UNL     1      -1.345  12.361  22.097  0.00  0.00    +0.000 C 
ATOM     25  N   UNL     1      -1.810  13.664  22.022  0.00  0.00    +0.000 N 
ATOM     26  N   UNL     1      -0.168  12.194  21.389  0.00  0.00    +0.000 N 
ATOM     27  H   UNL     1      -1.397  14.246  21.309  0.00  0.00    +0.000 HD
ATOM     28  H   UNL     1       0.408  13.012  21.265  0.00  0.00    +0.000 HD
BRANCH  25  29
ATOM     29  C   UNL     1      -3.017  14.130  22.598  0.00  0.00    +0.000 A 
ATOM     30  C   UNL     1      -3.064  14.897  23.768  0.00  0.00    +0.000 A 
ATOM     31  C   UNL     1      -4.281  15.250  24.350  0.00  0.00    +0.000 A 
ATOM     32  C   UNL     1      -5.464  14.855  23.745  0.00  0.00    +0.000 A 
ATOM     33  C   UNL     1      -5.445  14.141  22.553  0.00  0.00    +0.000 A 
ATOM     34  C   UNL     1      -4.222  13.782  21.975  0.00  0.00    +0.000 A 
BRANCH  32  35
ATOM     35  O   UNL     1      -6.673  15.150  24.301  0.00  0.00    +0.000 OA
ATOM     36  H   UNL     1      -6.731  16.116  24.405  0.00  0.00    +0.000 HD
ENDBRANCH  32  35
ENDBRANCH  25  29
ENDBRANCH   1  26
TORSDOF 4
ENDMDL
MODEL 5
REMARK VINA RESULT:      -9.0      1.335      1.707
REMARK  Name = 
REMARK  4 active torsions:
REMARK  status: ('A' for Active; 'I' for Inactive)
REMARK    1  A    between atoms: N_3  and  C_4
REMARK    2  A    between atoms: C_7  and  O_8
REMARK    3  A    between atoms: N_11  and  C_12
REMARK    4  A    between atoms: C_15  and  C_16
REMARK                            x       y       z     vdW  Elec       q    Type
REMARK                         _______ _______ _______ _____ _____    ______ ____
ROOT
ATOM      1  C   UNL     1       0.060  10.208  20.446  0.00  0.00    +0.000 A 
ATOM      2  C   UNL     1       0.786  10.033  19.267  0.00  0.00    +0.000 A 
ATOM      3  C   UNL     1       1.529   8.869  19.043  0.00  0.00    +0.000 A 
ATOM      4  C   UNL     1       1.580   7.840  19.993  0.00  0.00    +0.000 A 
ATOM      5  C   UNL     1       0.826   8.025  21.171  0.00  0.00    +0.000 A 
ATOM      6  C   UNL     1       0.085   9.194  21.402  0.00  0.00    +0.000 A 
ENDROOT
BRANCH   4   7
ATOM      7  C   UNL     1       2.413   6.641  19.783  0.00  0.00    +0.000 A 
ATOM      8  N   UNL     1       3.433   6.713  18.912  0.00  0.00    +0.000 NA
ATOM      9  C   UNL     1       4.241   5.634  18.781  0.00  0.00    +0.000 A 
ATOM     10  N   UNL     1       5.267   5.735  17.857  0.00  0.00    +0.000 N 
ATOM     11  C   UNL     1       5.186   6.666  16.733  0.00  0.00    +0.000 C 
ATOM     12  C   UNL     1       5.784   5.953  15.502  0.00  0.00    +0.000 C 
ATOM     13  O   UNL     1       7.134   5.507  15.744  0.00  0.00    +0.000 OA
ATOM     14  C   UNL     1       7.178   4.604  16.867  0.00  0.00    +0.000 C 
ATOM     15  C   UNL     1       6.628   5.269  18.138  0.00  0.00    +0.000 C 
ATOM     16  C   UNL     1       4.020   4.438  19.494  0.00  0.00    +0.000 A 
ATOM     17  N   UNL     1       4.767   3.297  19.353  0.00  0.00    +0.000 NA
ATOM     18  C   UNL     1       4.434   2.211  20.075  0.00  0.00    +0.000 A 
ATOM     19  C   UNL     1       3.367   2.186  20.941  0.00  0.00    +0.000 A 
ATOM     20  C   UNL     1       2.608   3.345  21.068  0.00  0.00    +0.000 A 
ATOM     21  C   UNL     1       2.913   4.490  20.347  0.00  0.00    +0.000 A 
ATOM     22  N   UNL     1       2.123   5.555  20.512  0.00  0.00    +0.000 NA
ENDBRANCH   4   7
BRANCH   1  26
ATOM     23  O   UNL     1       1.019  12.606  21.707  0.00  0.00    +0.000 OA
ATOM     24  C   UNL     1      -0.164  12.472  21.427  0.00  0.00    +0.000 C 
ATOM     25  N   UNL     1      -1.163  13.365  21.780  0.00  0.00    +0.000 N 
ATOM     26  N   UNL     1      -0.668  11.386  20.731  0.00  0.00    +0.000 N 
ATOM     27  H   UNL     1      -2.111  13.028  21.707  0.00  0.00    +0.000 HD
ATOM     28  H   UNL     1      -1.528  11.531  20.223  0.00  0.00    +0.000 HD
BRANCH  25  29
ATOM     29  C   UNL     1      -0.968  14.542  22.542  0.00  0.00    +0.000 A 
ATOM     30  C   UNL     1      -1.187  14.607  23.923  0.00  0.00    +0.000 A 
ATOM     31  C   UNL     1      -1.075  15.814  24.615  0.00  0.00    +0.000 A 
ATOM     32  C   UNL     1      -0.717  16.962  23.925  0.00  0.00    +0.000 A 
ATOM     33  C   UNL     1      -0.440  16.912  22.565  0.00  0.00    +0.000 A 
ATOM     34  C   UNL     1      -0.560  15.702  21.873  0.00  0.00    +0.000 A 
BRANCH  32  35
ATOM     35  O   UNL     1      -0.631  18.165  24.558  0.00  0.00    +0.000 OA
ATOM     36  H   UNL     1      -0.093  18.760  24.007  0.00  0.00    +0.000 HD
ENDBRANCH  32  35
ENDBRANCH  25  29
ENDBRANCH   1  26
TORSDOF 4
ENDMDL
MODEL 6
REMARK VINA RESULT:      -8.9      1.147      1.355
REMARK  Name = 
REMARK  4 active torsions:
REMARK  status: ('A' for Active; 'I' for Inactive)
REMARK    1  A    between atoms: N_3  and  C_4
REMARK    2  A    between atoms: C_7  and  O_8
REMARK    3  A    between atoms: N_11  and  C_12
REMARK    4  A    between atoms: C_15  and  C_16
REMARK                            x       y       z     vdW  Elec       q    Type
REMARK                         _______ _______ _______ _____ _____    ______ ____
ROOT
ATOM      1  C   UNL     1       0.719  10.374  20.384  0.00  0.00    +0.000 A 
ATOM      2  C   UNL     1       0.930   9.340  21.299  0.00  0.00    +0.000 A 
ATOM      3  C   UNL     1       1.508   8.131  20.899  0.00  0.00    +0.000 A 
ATOM      4  C   UNL     1       1.889   7.907  19.569  0.00  0.00    +0.000 A 
ATOM      5  C   UNL     1       1.685   8.968  18.662  0.00  0.00    +0.000 A 
ATOM      6  C   UNL     1       1.099  10.180  19.058  0.00  0.00    +0.000 A 
ENDROOT
BRANCH   4   7
ATOM      7  C   UNL     1       2.441   6.609  19.136  0.00  0.00    +0.000 A 
ATOM      8  N   UNL     1       3.543   6.605  18.369  0.00  0.00    +0.000 NA
ATOM      9  C   UNL     1       4.090   5.409  18.040  0.00  0.00    +0.000 A 
ATOM     10  N   UNL     1       5.211   5.442  17.228  0.00  0.00    +0.000 N 
ATOM     11  C   UNL     1       5.478   6.578  16.349  0.00  0.00    +0.000 C 
ATOM     12  C   UNL     1       6.033   6.014  15.025  0.00  0.00    +0.000 C 
ATOM     13  O   UNL     1       7.207   5.202  15.237  0.00  0.00    +0.000 OA
ATOM     14  C   UNL     1       6.910   4.101  16.121  0.00  0.00    +0.000 C 
ATOM     15  C   UNL     1       6.386   4.600  17.476  0.00  0.00    +0.000 C 
ATOM     16  C   UNL     1       3.517   4.185  18.440  0.00  0.00    +0.000 A 
ATOM     17  N   UNL     1       3.992   2.948  18.084  0.00  0.00    +0.000 NA
ATOM     18  C   UNL     1       3.335   1.855  18.511  0.00  0.00    +0.000 A 
ATOM     19  C   UNL     1       2.198   1.917  19.282  0.00  0.00    +0.000 A 
ATOM     20  C   UNL     1       1.719   3.176  19.629  0.00  0.00    +0.000 A 
ATOM     21  C   UNL     1       2.362   4.333  19.214  0.00  0.00    +0.000 A 
ATOM     22  N   UNL     1       1.825   5.503  19.574  0.00  0.00    +0.000 NA
ENDBRANCH   4   7
BRANCH   1  26
ATOM     23  O   UNL     1      -1.377  10.790  22.307  0.00  0.00    +0.000 OA
ATOM     24  C   UNL     1      -0.973  11.709  21.607  0.00  0.00    +0.000 C 
ATOM     25  N   UNL     1      -1.535  12.975  21.567  0.00  0.00    +0.000 N 
ATOM     26  N   UNL     1       0.098  11.595  20.737  0.00  0.00    +0.000 N 
ATOM     27  H   UNL     1      -1.272  13.557  20.786  0.00  0.00    +0.000 HD
ATOM     28  H   UNL     1       0.591  12.445  20.509  0.00  0.00    +0.000 HD
BRANCH  25  29
ATOM     29  C   UNL     1      -2.675  13.380  22.302  0.00  0.00    +0.000 A 
ATOM     30  C   UNL     1      -2.605  13.936  23.585  0.00  0.00    +0.000 A 
ATOM     31  C   UNL     1      -3.761  14.229  24.308  0.00  0.00    +0.000 A 
ATOM     32  C   UNL     1      -5.001  13.988  23.735  0.00  0.00    +0.000 A 
ATOM     33  C   UNL     1      -5.098  13.489  22.442  0.00  0.00    +0.000 A 
ATOM     34  C   UNL     1      -3.936  13.189  21.722  0.00  0.00    +0.000 A 
BRANCH  32  35
ATOM     35  O   UNL     1      -6.152  14.228  24.422  0.00  0.00    +0.000 OA
ATOM     36  H   UNL     1      -5.996  14.021  25.360  0.00  0.00    +0.000 HD
ENDBRANCH  32  35
ENDBRANCH  25  29
ENDBRANCH   1  26
TORSDOF 4
ENDMDL
MODEL 7
REMARK VINA RESULT:      -8.8      0.894      1.070
REMARK  Name = 
REMARK  4 active torsions:
REMARK  status: ('A' for Active; 'I' for Inactive)
REMARK    1  A    between atoms: N_3  and  C_4
REMARK    2  A    between atoms: C_7  and  O_8
REMARK    3  A    between atoms: N_11  and  C_12
REMARK    4  A    between atoms: C_15  and  C_16
REMARK                            x       y       z     vdW  Elec       q    Type
REMARK                         _______ _______ _______ _____ _____    ______ ____
ROOT
ATOM      1  C   UNL     1       0.095  10.579  19.985  0.00  0.00    +0.000 A 
ATOM      2  C   UNL     1       0.247   9.688  21.050  0.00  0.00    +0.000 A 
ATOM      3  C   UNL     1       1.010   8.524  20.912  0.00  0.00    +0.000 A 
ATOM      4  C   UNL     1       1.643   8.203  19.703  0.00  0.00    +0.000 A 
ATOM      5  C   UNL     1       1.493   9.123  18.644  0.00  0.00    +0.000 A 
ATOM      6  C   UNL     1       0.723  10.288  18.777  0.00  0.00    +0.000 A 
ENDROOT
BRANCH   4   7
ATOM      7  C   UNL     1       2.396   6.945  19.541  0.00  0.00    +0.000 A 
ATOM      8  N   UNL     1       3.396   6.907  18.646  0.00  0.00    +0.000 NA
ATOM      9  C   UNL     1       4.133   5.773  18.557  0.00  0.00    +0.000 A 
ATOM     10  N   UNL     1       5.140   5.761  17.606  0.00  0.00    +0.000 N 
ATOM     11  C   UNL     1       5.088   6.634  16.435  0.00  0.00    +0.000 C 
ATOM     12  C   UNL     1       5.610   5.820  15.233  0.00  0.00    +0.000 C 
ATOM     13  O   UNL     1       6.936   5.304  15.469  0.00  0.00    +0.000 OA
ATOM     14  C   UNL     1       6.953   4.461  16.639  0.00  0.00    +0.000 C 
ATOM     15  C   UNL     1       6.476   5.227  17.883  0.00  0.00    +0.000 C 
ATOM     16  C   UNL     1       3.856   4.633  19.338  0.00  0.00    +0.000 A 
ATOM     17  N   UNL     1       4.529   3.442  19.245  0.00  0.00    +0.000 NA
ATOM     18  C   UNL     1       4.148   2.419  20.031  0.00  0.00    +0.000 A 
ATOM     19  C   UNL     1       3.103   2.507  20.921  0.00  0.00    +0.000 A 
ATOM     20  C   UNL     1       2.420   3.717  21.000  0.00  0.00    +0.000 A 
ATOM     21  C   UNL     1       2.777   4.801  20.211  0.00  0.00    +0.000 A 
ATOM     22  N   UNL     1       2.058   5.920  20.334  0.00  0.00    +0.000 NA
ENDBRANCH   4   7
BRANCH   1  26
ATOM     23  O   UNL     1       0.359  12.763  21.836  0.00  0.00    +0.000 OA
ATOM     24  C   UNL     1      -0.576  12.714  21.048  0.00  0.00    +0.000 C 
ATOM     25  N   UNL     1      -1.642  13.600  21.036  0.00  0.00    +0.000 N 
ATOM     26  N   UNL     1      -0.703  11.744  20.068  0.00  0.00    +0.000 N 
ATOM     27  H   UNL     1      -2.455  13.314  20.510  0.00  0.00    +0.000 HD
ATOM     28  H   UNL     1      -1.251  11.986  19.257  0.00  0.00    +0.000 HD
BRANCH  25  29
ATOM     29  C   UNL     1      -1.823  14.665  21.950  0.00  0.00    +0.000 A 
ATOM     30  C   UNL     1      -2.535  14.536  23.148  0.00  0.00    +0.000 A 
ATOM     31  C   UNL     1      -2.770  15.640  23.970  0.00  0.00    +0.000 A 
ATOM     32  C   UNL     1      -2.267  16.879  23.603  0.00  0.00    +0.000 A 
ATOM     33  C   UNL     1      -1.510  17.022  22.448  0.00  0.00    +0.000 A 
ATOM     34  C   UNL     1      -1.283  15.915  21.622  0.00  0.00    +0.000 A 
BRANCH  32  35
ATOM     35  O   UNL     1      -2.505  17.986  24.361  0.00  0.00    +0.000 OA
ATOM     36  H   UNL     1      -2.551  18.756  23.767  0.00  0.00    +0.000 HD
ENDBRANCH  32  35
ENDBRANCH  25  29
ENDBRANCH   1  26
TORSDOF 4
ENDMDL
MODEL 8
REMARK VINA RESULT:      -8.8      1.613      2.048
REMARK  Name = 
REMARK  4 active torsions:
REMARK  status: ('A' for Active; 'I' for Inactive)
REMARK    1  A    between atoms: N_3  and  C_4
REMARK    2  A    between atoms: C_7  and  O_8
REMARK    3  A    between atoms: N_11  and  C_12
REMARK    4  A    between atoms: C_15  and  C_16
REMARK                            x       y       z     vdW  Elec       q    Type
REMARK                         _______ _______ _______ _____ _____    ______ ____
ROOT
ATOM      1  C   UNL     1       0.115  10.396  19.334  0.00  0.00    +0.000 A 
ATOM      2  C   UNL     1       0.288   9.626  20.486  0.00  0.00    +0.000 A 
ATOM      3  C   UNL     1       1.091   8.481  20.474  0.00  0.00    +0.000 A 
ATOM      4  C   UNL     1       1.745   8.058  19.309  0.00  0.00    +0.000 A 
ATOM      5  C   UNL     1       1.574   8.857  18.159  0.00  0.00    +0.000 A 
ATOM      6  C   UNL     1       0.763  10.002  18.165  0.00  0.00    +0.000 A 
ENDROOT
BRANCH   4   7
ATOM      7  C   UNL     1       2.541   6.816  19.282  0.00  0.00    +0.000 A 
ATOM      8  N   UNL     1       3.609   6.756  18.470  0.00  0.00    +0.000 NA
ATOM      9  C   UNL     1       4.380   5.643  18.508  0.00  0.00    +0.000 A 
ATOM     10  N   UNL     1       5.459   5.606  17.640  0.00  0.00    +0.000 N 
ATOM     11  C   UNL     1       5.476   6.406  16.417  0.00  0.00    +0.000 C 
ATOM     12  C   UNL     1       6.112   5.539  15.311  0.00  0.00    +0.000 C 
ATOM     13  O   UNL     1       7.429   5.079  15.679  0.00  0.00    +0.000 OA
ATOM     14  C   UNL     1       7.376   4.308  16.897  0.00  0.00    +0.000 C 
ATOM     15  C   UNL     1       6.783   5.130  18.051  0.00  0.00    +0.000 C 
ATOM     16  C   UNL     1       4.074   4.543  19.334  0.00  0.00    +0.000 A 
ATOM     17  N   UNL     1       4.783   3.370  19.366  0.00  0.00    +0.000 NA
ATOM     18  C   UNL     1       4.368   2.384  20.182  0.00  0.00    +0.000 A 
ATOM     19  C   UNL     1       3.255   2.492  20.982  0.00  0.00    +0.000 A 
ATOM     20  C   UNL     1       2.536   3.682  20.934  0.00  0.00    +0.000 A 
ATOM     21  C   UNL     1       2.925   4.728  20.110  0.00  0.00    +0.000 A 
ATOM     22  N   UNL     1       2.169   5.830  20.109  0.00  0.00    +0.000 NA
ENDBRANCH   4   7
BRANCH   1  26
ATOM     23  O   UNL     1       0.725  13.061  20.223  0.00  0.00    +0.000 OA
ATOM     24  C   UNL     1      -0.395  12.770  19.824  0.00  0.00    +0.000 C 
ATOM     25  N   UNL     1      -1.490  13.617  19.868  0.00  0.00    +0.000 N 
ATOM     26  N   UNL     1      -0.722  11.535  19.291  0.00  0.00    +0.000 N 
ATOM     27  H   UNL     1      -2.394  13.187  19.740  0.00  0.00    +0.000 HD
ATOM     28  H   UNL     1      -1.507  11.506  18.658  0.00  0.00    +0.000 HD
BRANCH  25  29
ATOM     29  C   UNL     1      -1.484  14.926  20.409  0.00  0.00    +0.000 A 
ATOM     30  C   UNL     1      -0.655  15.949  19.934  0.00  0.00    +0.000 A 
ATOM     31  C   UNL     1      -0.613  17.194  20.563  0.00  0.00    +0.000 A 
ATOM     32  C   UNL     1      -1.426  17.427  21.661  0.00  0.00    +0.000 A 
ATOM     33  C   UNL     1      -2.299  16.447  22.118  0.00  0.00    +0.000 A 
ATOM     34  C   UNL     1      -2.332  15.197  21.489  0.00  0.00    +0.000 A 
BRANCH  32  35
ATOM     35  O   UNL     1      -1.390  18.617  22.324  0.00  0.00    +0.000 OA
ATOM     36  H   UNL     1      -0.663  19.148  21.954  0.00  0.00    +0.000 HD
ENDBRANCH  32  35
ENDBRANCH  25  29
ENDBRANCH   1  26
TORSDOF 4
ENDMDL
MODEL 9
REMARK VINA RESULT:      -8.7      1.076      1.080
REMARK  Name = 
REMARK  4 active torsions:
REMARK  status: ('A' for Active; 'I' for Inactive)
REMARK    1  A    between atoms: N_3  and  C_4
REMARK    2  A    between atoms: C_7  and  O_8
REMARK    3  A    between atoms: N_11  and  C_12
REMARK    4  A    between atoms: C_15  and  C_16
REMARK                            x       y       z     vdW  Elec       q    Type
REMARK                         _______ _______ _______ _____ _____    ______ ____
ROOT
ATOM      1  C   UNL     1       0.765  10.336  20.038  0.00  0.00    +0.000 A 
ATOM      2  C   UNL     1       0.920   9.307  20.969  0.00  0.00    +0.000 A 
ATOM      3  C   UNL     1       1.509   8.091  20.607  0.00  0.00    +0.000 A 
ATOM      4  C   UNL     1       1.958   7.855  19.300  0.00  0.00    +0.000 A 
ATOM      5  C   UNL     1       1.809   8.911  18.377  0.00  0.00    +0.000 A 
ATOM      6  C   UNL     1       1.213  10.130  18.735  0.00  0.00    +0.000 A 
ENDROOT
BRANCH   4   7
ATOM      7  C   UNL     1       2.521   6.550  18.906  0.00  0.00    +0.000 A 
ATOM      8  N   UNL     1       3.623   6.533  18.137  0.00  0.00    +0.000 NA
ATOM      9  C   UNL     1       4.180   5.334  17.843  0.00  0.00    +0.000 A 
ATOM     10  N   UNL     1       5.300   5.354  17.029  0.00  0.00    +0.000 N 
ATOM     11  C   UNL     1       5.555   6.466  16.115  0.00  0.00    +0.000 C 
ATOM     12  C   UNL     1       6.114   5.867  14.808  0.00  0.00    +0.000 C 
ATOM     13  O   UNL     1       7.295   5.073  15.042  0.00  0.00    +0.000 OA
ATOM     14  C   UNL     1       7.011   3.997  15.958  0.00  0.00    +0.000 C 
ATOM     15  C   UNL     1       6.483   4.531  17.299  0.00  0.00    +0.000 C 
ATOM     16  C   UNL     1       3.620   4.117  18.280  0.00  0.00    +0.000 A 
ATOM     17  N   UNL     1       4.106   2.875  17.960  0.00  0.00    +0.000 NA
ATOM     18  C   UNL     1       3.460   1.788  18.421  0.00  0.00    +0.000 A 
ATOM     19  C   UNL     1       2.324   1.862  19.191  0.00  0.00    +0.000 A 
ATOM     20  C   UNL     1       1.833   3.126  19.501  0.00  0.00    +0.000 A 
ATOM     21  C   UNL     1       2.464   4.277  19.051  0.00  0.00    +0.000 A 
ATOM     22  N   UNL     1       1.917   5.451  19.377  0.00  0.00    +0.000 NA
ENDBRANCH   4   7
BRANCH   1  26
ATOM     23  O   UNL     1      -0.029  11.297  22.628  0.00  0.00    +0.000 OA
ATOM     24  C   UNL     1      -0.303  11.922  21.612  0.00  0.00    +0.000 C 
ATOM     25  N   UNL     1      -1.103  13.053  21.577  0.00  0.00    +0.000 N 
ATOM     26  N   UNL     1       0.136  11.564  20.349  0.00  0.00    +0.000 N 
ATOM     27  H   UNL     1      -1.449  13.328  20.669  0.00  0.00    +0.000 HD
ATOM     28  H   UNL     1       0.199  12.301  19.664  0.00  0.00    +0.000 HD
BRANCH  25  29
ATOM     29  C   UNL     1      -1.744  13.630  22.699  0.00  0.00    +0.000 A 
ATOM     30  C   UNL     1      -3.043  13.293  23.099  0.00  0.00    +0.000 A 
ATOM     31  C   UNL     1      -3.668  13.959  24.153  0.00  0.00    +0.000 A 
ATOM     32  C   UNL     1      -2.982  14.955  24.830  0.00  0.00    +0.000 A 
ATOM     33  C   UNL     1      -1.673  15.270  24.489  0.00  0.00    +0.000 A 
ATOM     34  C   UNL     1      -1.051  14.605  23.427  0.00  0.00    +0.000 A 
BRANCH  32  35
ATOM     35  O   UNL     1      -3.571  15.653  25.842  0.00  0.00    +0.000 OA
ATOM     36  H   UNL     1      -3.444  15.155  26.668  0.00  0.00    +0.000 HD
ENDBRANCH  32  35
ENDBRANCH  25  29
ENDBRANCH   1  26
TORSDOF 4
ENDMDL
