MODEL 1
REMARK VINA RESULT:      -7.3      0.000      0.000
REMARK  Name = 
REMARK  7 active torsions:
REMARK  status: ('A' for Active; 'I' for Inactive)
REMARK    1  A    between atoms: C_1  and  C_2
REMARK    2  A    between atoms: N_4  and  C_5
REMARK    3  A    between atoms: C_5  and  N_6
REMARK    4  A    between atoms: C_10  and  N_11
REMARK    5  A    between atoms: N_12  and  C_13
REMARK    6  A    between atoms: C_17  and  N_18
REMARK    7  A    between atoms: C_21  and  C_22
REMARK                            x       y       z     vdW  Elec       q    Type
REMARK                         _______ _______ _______ _____ _____    ______ ____
ROOT
ATOM      1  C   UNL     1       4.620   3.893  18.731  0.00  0.00    +0.000 C 
ATOM      2  C   UNL     1       4.896   4.592  17.443  0.00  0.00    +0.000 A 
ATOM      3  N   UNL     1       5.585   3.957  16.421  0.00  0.00    +0.000 N 
ATOM      4  N   UNL     1       5.856   4.932  15.439  0.00  0.00    +0.000 N 
ATOM      5  C   UNL     1       5.201   6.126  15.811  0.00  0.00    +0.000 A 
ATOM      6  O   UNL     1       5.155   7.179  15.192  0.00  0.00    +0.000 OA
ATOM      7  C   UNL     1       4.574   5.864  17.144  0.00  0.00    +0.000 A 
ATOM      8  H   UNL     1       6.404   3.418  16.710  0.00  0.00    +0.000 HD
ENDROOT
BRANCH   4   9
ATOM      9  C   UNL     1       6.671   4.646  14.348  0.00  0.00    +0.000 C 
ATOM     10  S   UNL     1       6.322   3.557  13.127  0.00  0.00    +0.000 S 
BRANCH   9  11
ATOM     11  N   UNL     1       7.866   5.304  14.318  0.00  0.00    +0.000 N 
ATOM     12  H   UNL     1       8.728   4.843  14.599  0.00  0.00    +0.000 HD
ATOM     13  H   UNL     1       7.895   6.293  14.109  0.00  0.00    +0.000 HD
ENDBRANCH   9  11
ENDBRANCH   4   9
BRANCH   7  14
ATOM     14  N   UNL     1       3.936   6.835  17.850  0.00  0.00    +0.000 NA
ATOM     15  N   UNL     1       2.694   6.730  17.947  0.00  0.00    +0.000 NA
BRANCH  15  16
ATOM     16  C   UNL     1       2.139   7.866  18.582  0.00  0.00    +0.000 A 
ATOM     17  C   UNL     1       1.972   9.072  17.866  0.00  0.00    +0.000 A 
ATOM     18  C   UNL     1       1.422  10.206  18.459  0.00  0.00    +0.000 A 
ATOM     19  C   UNL     1       1.007  10.148  19.782  0.00  0.00    +0.000 A 
ATOM     20  C   UNL     1       1.139   8.946  20.493  0.00  0.00    +0.000 A 
ATOM     21  C   UNL     1       1.701   7.786  19.922  0.00  0.00    +0.000 A 
ATOM     22  C   UNL     1       1.845   6.483  20.665  0.00  0.00    +0.000 C 
BRANCH  20  23
ATOM     23  N   UNL     1       0.658   8.959  21.866  0.00  0.00    +0.000 N 
ATOM     24  O   UNL     1      -0.504   8.580  22.058  0.00  0.00    +0.000 OA
ATOM     25  O   UNL     1       1.456   9.318  22.741  0.00  0.00    +0.000 OA
ENDBRANCH  20  23
ENDBRANCH  15  16
ENDBRANCH   7  14
TORSDOF 5
ENDMDL
MODEL 2
REMARK VINA RESULT:      -6.9      2.101      2.625
REMARK  Name = 
REMARK  7 active torsions:
REMARK  status: ('A' for Active; 'I' for Inactive)
REMARK    1  A    between atoms: C_1  and  C_2
REMARK    2  A    between atoms: N_4  and  C_5
REMARK    3  A    between atoms: C_5  and  N_6
REMARK    4  A    between atoms: C_10  and  N_11
REMARK    5  A    between atoms: N_12  and  C_13
REMARK    6  A    between atoms: C_17  and  N_18
REMARK    7  A    between atoms: C_21  and  C_22
REMARK                            x       y       z     vdW  Elec       q    Type
REMARK                         _______ _______ _______ _____ _____    ______ ____
ROOT
ATOM      1  C   UNL     1       3.419   3.290  19.975  0.00  0.00    +0.000 C 
ATOM      2  C   UNL     1       4.100   4.138  18.956  0.00  0.00    +0.000 A 
ATOM      3  N   UNL     1       4.988   3.585  18.046  0.00  0.00    +0.000 N 
ATOM      4  N   UNL     1       5.604   4.657  17.368  0.00  0.00    +0.000 N 
ATOM      5  C   UNL     1       4.979   5.855  17.777  0.00  0.00    +0.000 A 
ATOM      6  O   UNL     1       5.198   6.989  17.376  0.00  0.00    +0.000 OA
ATOM      7  C   UNL     1       3.987   5.473  18.830  0.00  0.00    +0.000 A 
ATOM      8  H   UNL     1       5.644   2.902  18.430  0.00  0.00    +0.000 HD
ENDROOT
BRANCH   4   9
ATOM      9  C   UNL     1       6.662   4.439  16.490  0.00  0.00    +0.000 C 
ATOM     10  S   UNL     1       6.539   4.308  14.827  0.00  0.00    +0.000 S 
BRANCH   9  11
ATOM     11  N   UNL     1       7.888   4.292  17.071  0.00  0.00    +0.000 N 
ATOM     12  H   UNL     1       8.500   3.519  16.820  0.00  0.00    +0.000 HD
ATOM     13  H   UNL     1       8.163   4.896  17.833  0.00  0.00    +0.000 HD
ENDBRANCH   9  11
ENDBRANCH   4   9
BRANCH   7  14
ATOM     14  N   UNL     1       3.265   6.399  19.517  0.00  0.00    +0.000 NA
ATOM     15  N   UNL     1       2.295   6.908  18.916  0.00  0.00    +0.000 NA
BRANCH  15  16
ATOM     16  C   UNL     1       1.714   7.946  19.683  0.00  0.00    +0.000 A 
ATOM     17  C   UNL     1       1.408   7.740  21.045  0.00  0.00    +0.000 A 
ATOM     18  C   UNL     1       0.842   8.743  21.830  0.00  0.00    +0.000 A 
ATOM     19  C   UNL     1       0.590   9.986  21.266  0.00  0.00    +0.000 A 
ATOM     20  C   UNL     1       0.920  10.211  19.922  0.00  0.00    +0.000 A 
ATOM     21  C   UNL     1       1.483   9.212  19.102  0.00  0.00    +0.000 A 
ATOM     22  C   UNL     1       1.851   9.436  17.658  0.00  0.00    +0.000 C 
BRANCH  20  23
ATOM     23  N   UNL     1       0.648  11.546  19.412  0.00  0.00    +0.000 N 
ATOM     24  O   UNL     1      -0.472  11.743  18.920  0.00  0.00    +0.000 OA
ATOM     25  O   UNL     1       1.542  12.392  19.534  0.00  0.00    +0.000 OA
ENDBRANCH  20  23
ENDBRANCH  15  16
ENDBRANCH   7  14
TORSDOF 5
ENDMDL
MODEL 3
REMARK VINA RESULT:      -6.7      3.171      3.860
REMARK  Name = 
REMARK  7 active torsions:
REMARK  status: ('A' for Active; 'I' for Inactive)
REMARK    1  A    between atoms: C_1  and  C_2
REMARK    2  A    between atoms: N_4  and  C_5
REMARK    3  A    between atoms: C_5  and  N_6
REMARK    4  A    between atoms: C_10  and  N_11
REMARK    5  A    between atoms: N_12  and  C_13
REMARK    6  A    between atoms: C_17  and  N_18
REMARK    7  A    between atoms: C_21  and  C_22
REMARK                            x       y       z     vdW  Elec       q    Type
REMARK                         _______ _______ _______ _____ _____    ______ ____
ROOT
ATOM      1  C   UNL     1       7.530   6.940  17.600  0.00  0.00    +0.000 C 
ATOM      2  C   UNL     1       6.982   6.073  16.519  0.00  0.00    +0.000 A 
ATOM      3  N   UNL     1       7.730   5.787  15.386  0.00  0.00    +0.000 N 
ATOM      4  N   UNL     1       6.873   5.126  14.483  0.00  0.00    +0.000 N 
ATOM      5  C   UNL     1       5.643   4.889  15.135  0.00  0.00    +0.000 A 
ATOM      6  O   UNL     1       4.667   4.296  14.699  0.00  0.00    +0.000 OA
ATOM      7  C   UNL     1       5.751   5.530  16.482  0.00  0.00    +0.000 A 
ATOM      8  H   UNL     1       8.234   6.578  14.981  0.00  0.00    +0.000 HD
ENDROOT
BRANCH   4   9
ATOM      9  C   UNL     1       7.282   4.838  13.184  0.00  0.00    +0.000 C 
ATOM     10  S   UNL     1       6.723   3.575  12.241  0.00  0.00    +0.000 S 
BRANCH   9  11
ATOM     11  N   UNL     1       8.248   5.657  12.677  0.00  0.00    +0.000 N 
ATOM     12  H   UNL     1       8.469   5.658  11.683  0.00  0.00    +0.000 HD
ATOM     13  H   UNL     1       8.827   6.204  13.300  0.00  0.00    +0.000 HD
ENDBRANCH   9  11
ENDBRANCH   4   9
BRANCH   7  14
ATOM     14  N   UNL     1       4.705   5.578  17.350  0.00  0.00    +0.000 NA
ATOM     15  N   UNL     1       4.945   5.250  18.532  0.00  0.00    +0.000 NA
BRANCH  15  16
ATOM     16  C   UNL     1       3.755   5.210  19.297  0.00  0.00    +0.000 A 
ATOM     17  C   UNL     1       3.043   6.398  19.569  0.00  0.00    +0.000 A 
ATOM     18  C   UNL     1       1.865   6.393  20.313  0.00  0.00    +0.000 A 
ATOM     19  C   UNL     1       1.364   5.188  20.784  0.00  0.00    +0.000 A 
ATOM     20  C   UNL     1       2.046   3.997  20.493  0.00  0.00    +0.000 A 
ATOM     21  C   UNL     1       3.246   3.974  19.752  0.00  0.00    +0.000 A 
ATOM     22  C   UNL     1       3.991   2.706  19.421  0.00  0.00    +0.000 C 
BRANCH  20  23
ATOM     23  N   UNL     1       1.445   2.774  21.001  0.00  0.00    +0.000 N 
ATOM     24  O   UNL     1       0.778   2.102  20.203  0.00  0.00    +0.000 OA
ATOM     25  O   UNL     1       1.671   2.481  22.182  0.00  0.00    +0.000 OA
ENDBRANCH  20  23
ENDBRANCH  15  16
ENDBRANCH   7  14
TORSDOF 5
ENDMDL
MODEL 4
REMARK VINA RESULT:      -6.6      3.587      7.563
REMARK  Name = 
REMARK  7 active torsions:
REMARK  status: ('A' for Active; 'I' for Inactive)
REMARK    1  A    between atoms: C_1  and  C_2
REMARK    2  A    between atoms: N_4  and  C_5
REMARK    3  A    between atoms: C_5  and  N_6
REMARK    4  A    between atoms: C_10  and  N_11
REMARK    5  A    between atoms: N_12  and  C_13
REMARK    6  A    between atoms: C_17  and  N_18
REMARK    7  A    between atoms: C_21  and  C_22
REMARK                            x       y       z     vdW  Elec       q    Type
REMARK                         _______ _______ _______ _____ _____    ______ ____
ROOT
ATOM      1  C   UNL     1       1.056   7.545  21.342  0.00  0.00    +0.000 C 
ATOM      2  C   UNL     1       1.274   8.573  20.284  0.00  0.00    +0.000 A 
ATOM      3  N   UNL     1       0.837   9.877  20.456  0.00  0.00    +0.000 N 
ATOM      4  N   UNL     1       1.008  10.535  19.221  0.00  0.00    +0.000 N 
ATOM      5  C   UNL     1       1.683   9.658  18.344  0.00  0.00    +0.000 A 
ATOM      6  O   UNL     1       2.057   9.882  17.201  0.00  0.00    +0.000 OA
ATOM      7  C   UNL     1       1.844   8.367  19.082  0.00  0.00    +0.000 A 
ATOM      8  H   UNL     1      -0.098   9.979  20.857  0.00  0.00    +0.000 HD
ENDROOT
BRANCH   4   9
ATOM      9  C   UNL     1       0.521  11.824  19.019  0.00  0.00    +0.000 C 
ATOM     10  S   UNL     1      -0.877  12.455  19.686  0.00  0.00    +0.000 S 
BRANCH   9  11
ATOM     11  N   UNL     1       1.255  12.604  18.174  0.00  0.00    +0.000 N 
ATOM     12  H   UNL     1       1.774  13.409  18.517  0.00  0.00    +0.000 HD
ATOM     13  H   UNL     1       1.212  12.448  17.175  0.00  0.00    +0.000 HD
ENDBRANCH   9  11
ENDBRANCH   4   9
BRANCH   7  14
ATOM     14  N   UNL     1       2.373   7.258  18.499  0.00  0.00    +0.000 NA
ATOM     15  N   UNL     1       3.577   7.023  18.739  0.00  0.00    +0.000 NA
BRANCH  15  16
ATOM     16  C   UNL     1       4.041   5.929  17.970  0.00  0.00    +0.000 A 
ATOM     17  C   UNL     1       3.244   4.772  17.824  0.00  0.00    +0.000 A 
ATOM     18  C   UNL     1       3.668   3.680  17.069  0.00  0.00    +0.000 A 
ATOM     19  C   UNL     1       4.896   3.735  16.425  0.00  0.00    +0.000 A 
ATOM     20  C   UNL     1       5.681   4.891  16.538  0.00  0.00    +0.000 A 
ATOM     21  C   UNL     1       5.283   6.006  17.303  0.00  0.00    +0.000 A 
ATOM     22  C   UNL     1       6.108   7.260  17.432  0.00  0.00    +0.000 C 
BRANCH  20  23
ATOM     23  N   UNL     1       6.944   4.880  15.815  0.00  0.00    +0.000 N 
ATOM     24  O   UNL     1       7.919   4.385  16.395  0.00  0.00    +0.000 OA
ATOM     25  O   UNL     1       6.942   5.338  14.665  0.00  0.00    +0.000 OA
ENDBRANCH  20  23
ENDBRANCH  15  16
ENDBRANCH   7  14
TORSDOF 5
ENDMDL
MODEL 5
REMARK VINA RESULT:      -6.6      4.198      7.951
REMARK  Name = 
REMARK  7 active torsions:
REMARK  status: ('A' for Active; 'I' for Inactive)
REMARK    1  A    between atoms: C_1  and  C_2
REMARK    2  A    between atoms: N_4  and  C_5
REMARK    3  A    between atoms: C_5  and  N_6
REMARK    4  A    between atoms: C_10  and  N_11
REMARK    5  A    between atoms: N_12  and  C_13
REMARK    6  A    between atoms: C_17  and  N_18
REMARK    7  A    between atoms: C_21  and  C_22
REMARK                            x       y       z     vdW  Elec       q    Type
REMARK                         _______ _______ _______ _____ _____    ______ ____
ROOT
ATOM      1  C   UNL     1       1.909  11.576  18.379  0.00  0.00    +0.000 C 
ATOM      2  C   UNL     1       1.120  10.838  19.408  0.00  0.00    +0.000 A 
ATOM      3  N   UNL     1       0.395  11.519  20.374  0.00  0.00    +0.000 N 
ATOM      4  N   UNL     1      -0.062  10.558  21.299  0.00  0.00    +0.000 N 
ATOM      5  C   UNL     1       0.272   9.278  20.806  0.00  0.00    +0.000 A 
ATOM      6  O   UNL     1       0.000   8.192  21.297  0.00  0.00    +0.000 OA
ATOM      7  C   UNL     1       1.054   9.502  19.551  0.00  0.00    +0.000 A 
ATOM      8  H   UNL     1       0.872  12.316  20.802  0.00  0.00    +0.000 HD
ENDROOT
BRANCH   4   9
ATOM      9  C   UNL     1      -0.697  10.940  22.477  0.00  0.00    +0.000 C 
ATOM     10  S   UNL     1      -1.235  12.482  22.841  0.00  0.00    +0.000 S 
BRANCH   9  11
ATOM     11  N   UNL     1      -0.851   9.955  23.408  0.00  0.00    +0.000 N 
ATOM     12  H   UNL     1      -0.470   9.024  23.257  0.00  0.00    +0.000 HD
ATOM     13  H   UNL     1      -1.434  10.111  24.220  0.00  0.00    +0.000 HD
ENDBRANCH   9  11
ENDBRANCH   4   9
BRANCH   7  14
ATOM     14  N   UNL     1       1.622   8.479  18.856  0.00  0.00    +0.000 NA
ATOM     15  N   UNL     1       2.240   7.625  19.527  0.00  0.00    +0.000 NA
BRANCH  15  16
ATOM     16  C   UNL     1       2.895   6.697  18.683  0.00  0.00    +0.000 A 
ATOM     17  C   UNL     1       3.850   7.141  17.742  0.00  0.00    +0.000 A 
ATOM     18  C   UNL     1       4.517   6.253  16.900  0.00  0.00    +0.000 A 
ATOM     19  C   UNL     1       4.256   4.894  17.000  0.00  0.00    +0.000 A 
ATOM     20  C   UNL     1       3.332   4.440  17.953  0.00  0.00    +0.000 A 
ATOM     21  C   UNL     1       2.634   5.315  18.810  0.00  0.00    +0.000 A 
ATOM     22  C   UNL     1       1.644   4.847  19.845  0.00  0.00    +0.000 C 
BRANCH  20  23
ATOM     23  N   UNL     1       3.130   3.000  18.013  0.00  0.00    +0.000 N 
ATOM     24  O   UNL     1       3.861   2.362  18.782  0.00  0.00    +0.000 OA
ATOM     25  O   UNL     1       2.225   2.526  17.315  0.00  0.00    +0.000 OA
ENDBRANCH  20  23
ENDBRANCH  15  16
ENDBRANCH   7  14
TORSDOF 5
ENDMDL
MODEL 6
REMARK VINA RESULT:      -6.6      4.110      7.189
REMARK  Name = 
REMARK  7 active torsions:
REMARK  status: ('A' for Active; 'I' for Inactive)
REMARK    1  A    between atoms: C_1  and  C_2
REMARK    2  A    between atoms: N_4  and  C_5
REMARK    3  A    between atoms: C_5  and  N_6
REMARK    4  A    between atoms: C_10  and  N_11
REMARK    5  A    between atoms: N_12  and  C_13
REMARK    6  A    between atoms: C_17  and  N_18
REMARK    7  A    between atoms: C_21  and  C_22
REMARK                            x       y       z     vdW  Elec       q    Type
REMARK                         _______ _______ _______ _____ _____    ______ ____
ROOT
ATOM      1  C   UNL     1       0.819   7.859  21.484  0.00  0.00    +0.000 C 
ATOM      2  C   UNL     1       0.960   8.851  20.380  0.00  0.00    +0.000 A 
ATOM      3  N   UNL     1       0.198  10.009  20.361  0.00  0.00    +0.000 N 
ATOM      4  N   UNL     1       0.413  10.623  19.110  0.00  0.00    +0.000 N 
ATOM      5  C   UNL     1       1.419   9.901  18.432  0.00  0.00    +0.000 A 
ATOM      6  O   UNL     1       1.917  10.153  17.344  0.00  0.00    +0.000 OA
ATOM      7  C   UNL     1       1.759   8.734  19.303  0.00  0.00    +0.000 A 
ATOM      8  H   UNL     1      -0.788   9.892  20.604  0.00  0.00    +0.000 HD
ENDROOT
BRANCH   4   9
ATOM      9  C   UNL     1      -0.329  11.734  18.717  0.00  0.00    +0.000 C 
ATOM     10  S   UNL     1      -1.984  11.912  18.888  0.00  0.00    +0.000 S 
BRANCH   9  11
ATOM     11  N   UNL     1       0.380  12.732  18.116  0.00  0.00    +0.000 N 
ATOM     12  H   UNL     1       0.513  13.632  18.572  0.00  0.00    +0.000 HD
ATOM     13  H   UNL     1       0.700  12.623  17.163  0.00  0.00    +0.000 HD
ENDBRANCH   9  11
ENDBRANCH   4   9
BRANCH   7  14
ATOM     14  N   UNL     1       2.632   7.766  18.914  0.00  0.00    +0.000 NA
ATOM     15  N   UNL     1       2.160   6.831  18.233  0.00  0.00    +0.000 NA
BRANCH  15  16
ATOM     16  C   UNL     1       3.133   5.827  18.010  0.00  0.00    +0.000 A 
ATOM     17  C   UNL     1       4.213   6.064  17.132  0.00  0.00    +0.000 A 
ATOM     18  C   UNL     1       5.191   5.101  16.896  0.00  0.00    +0.000 A 
ATOM     19  C   UNL     1       5.118   3.882  17.555  0.00  0.00    +0.000 A 
ATOM     20  C   UNL     1       4.066   3.647  18.453  0.00  0.00    +0.000 A 
ATOM     21  C   UNL     1       3.057   4.599  18.703  0.00  0.00    +0.000 A 
ATOM     22  C   UNL     1       1.924   4.370  19.669  0.00  0.00    +0.000 C 
BRANCH  20  23
ATOM     23  N   UNL     1       4.072   2.355  19.121  0.00  0.00    +0.000 N 
ATOM     24  O   UNL     1       4.760   2.255  20.145  0.00  0.00    +0.000 OA
ATOM     25  O   UNL     1       3.366   1.463  18.634  0.00  0.00    +0.000 OA
ENDBRANCH  20  23
ENDBRANCH  15  16
ENDBRANCH   7  14
TORSDOF 5
ENDMDL
MODEL 7
REMARK VINA RESULT:      -6.6      1.715      2.560
REMARK  Name = 
REMARK  7 active torsions:
REMARK  status: ('A' for Active; 'I' for Inactive)
REMARK    1  A    between atoms: C_1  and  C_2
REMARK    2  A    between atoms: N_4  and  C_5
REMARK    3  A    between atoms: C_5  and  N_6
REMARK    4  A    between atoms: C_10  and  N_11
REMARK    5  A    between atoms: N_12  and  C_13
REMARK    6  A    between atoms: C_17  and  N_18
REMARK    7  A    between atoms: C_21  and  C_22
REMARK                            x       y       z     vdW  Elec       q    Type
REMARK                         _______ _______ _______ _____ _____    ______ ____
ROOT
ATOM      1  C   UNL     1       7.466   7.473  17.698  0.00  0.00    +0.000 C 
ATOM      2  C   UNL     1       6.836   6.396  16.883  0.00  0.00    +0.000 A 
ATOM      3  N   UNL     1       7.475   5.882  15.764  0.00  0.00    +0.000 N 
ATOM      4  N   UNL     1       6.549   5.043  15.111  0.00  0.00    +0.000 N 
ATOM      5  C   UNL     1       5.396   4.943  15.920  0.00  0.00    +0.000 A 
ATOM      6  O   UNL     1       4.397   4.268  15.720  0.00  0.00    +0.000 OA
ATOM      7  C   UNL     1       5.622   5.853  17.086  0.00  0.00    +0.000 A 
ATOM      8  H   UNL     1       7.916   6.572  15.153  0.00  0.00    +0.000 HD
ENDROOT
BRANCH   4   9
ATOM      9  C   UNL     1       6.835   4.490  13.865  0.00  0.00    +0.000 C 
ATOM     10  S   UNL     1       7.806   5.180  12.691  0.00  0.00    +0.000 S 
BRANCH   9  11
ATOM     11  N   UNL     1       6.230   3.297  13.599  0.00  0.00    +0.000 N 
ATOM     12  H   UNL     1       5.424   2.984  14.136  0.00  0.00    +0.000 HD
ATOM     13  H   UNL     1       6.637   2.661  12.926  0.00  0.00    +0.000 HD
ENDBRANCH   9  11
ENDBRANCH   4   9
BRANCH   7  14
ATOM     14  N   UNL     1       4.666   6.078  18.027  0.00  0.00    +0.000 NA
ATOM     15  N   UNL     1       3.634   6.670  17.644  0.00  0.00    +0.000 NA
BRANCH  15  16
ATOM     16  C   UNL     1       2.784   6.963  18.737  0.00  0.00    +0.000 A 
ATOM     17  C   UNL     1       2.614   6.026  19.779  0.00  0.00    +0.000 A 
ATOM     18  C   UNL     1       1.790   6.286  20.872  0.00  0.00    +0.000 A 
ATOM     19  C   UNL     1       1.134   7.506  20.953  0.00  0.00    +0.000 A 
ATOM     20  C   UNL     1       1.321   8.457  19.939  0.00  0.00    +0.000 A 
ATOM     21  C   UNL     1       2.139   8.217  18.817  0.00  0.00    +0.000 A 
ATOM     22  C   UNL     1       2.359   9.228  17.721  0.00  0.00    +0.000 C 
BRANCH  20  23
ATOM     23  N   UNL     1       0.618   9.719  20.108  0.00  0.00    +0.000 N 
ATOM     24  O   UNL     1      -0.403   9.890  19.429  0.00  0.00    +0.000 OA
ATOM     25  O   UNL     1       1.074  10.515  20.940  0.00  0.00    +0.000 OA
ENDBRANCH  20  23
ENDBRANCH  15  16
ENDBRANCH   7  14
TORSDOF 5
ENDMDL
MODEL 8
REMARK VINA RESULT:      -6.5      4.122      7.709
REMARK  Name = 
REMARK  7 active torsions:
REMARK  status: ('A' for Active; 'I' for Inactive)
REMARK    1  A    between atoms: C_1  and  C_2
REMARK    2  A    between atoms: N_4  and  C_5
REMARK    3  A    between atoms: C_5  and  N_6
REMARK    4  A    between atoms: C_10  and  N_11
REMARK    5  A    between atoms: N_12  and  C_13
REMARK    6  A    between atoms: C_17  and  N_18
REMARK    7  A    between atoms: C_21  and  C_22
REMARK                            x       y       z     vdW  Elec       q    Type
REMARK                         _______ _______ _______ _____ _____    ______ ____
ROOT
ATOM      1  C   UNL     1       1.842  10.504  17.873  0.00  0.00    +0.000 C 
ATOM      2  C   UNL     1       1.325   9.857  19.113  0.00  0.00    +0.000 A 
ATOM      3  N   UNL     1       0.416  10.509  19.932  0.00  0.00    +0.000 N 
ATOM      4  N   UNL     1       0.285   9.734  21.102  0.00  0.00    +0.000 N 
ATOM      5  C   UNL     1       1.013   8.537  20.922  0.00  0.00    +0.000 A 
ATOM      6  O   UNL     1       1.100   7.590  21.690  0.00  0.00    +0.000 OA
ATOM      7  C   UNL     1       1.689   8.653  19.592  0.00  0.00    +0.000 A 
ATOM      8  H   UNL     1       0.611  11.497  20.107  0.00  0.00    +0.000 HD
ENDROOT
BRANCH   4   9
ATOM      9  C   UNL     1      -0.445  10.197  22.193  0.00  0.00    +0.000 C 
ATOM     10  S   UNL     1      -1.006  11.758  22.401  0.00  0.00    +0.000 S 
BRANCH   9  11
ATOM     11  N   UNL     1      -0.678   9.280  23.176  0.00  0.00    +0.000 N 
ATOM     12  H   UNL     1      -0.063   8.481  23.308  0.00  0.00    +0.000 HD
ATOM     13  H   UNL     1      -1.526   9.330  23.725  0.00  0.00    +0.000 HD
ENDBRANCH   9  11
ENDBRANCH   4   9
BRANCH   7  14
ATOM     14  N   UNL     1       2.557   7.711  19.134  0.00  0.00    +0.000 NA
ATOM     15  N   UNL     1       2.070   6.799  18.432  0.00  0.00    +0.000 NA
BRANCH  15  16
ATOM     16  C   UNL     1       3.043   5.815  18.135  0.00  0.00    +0.000 A 
ATOM     17  C   UNL     1       4.085   6.096  17.225  0.00  0.00    +0.000 A 
ATOM     18  C   UNL     1       5.063   5.153  16.916  0.00  0.00    +0.000 A 
ATOM     19  C   UNL     1       5.028   3.911  17.532  0.00  0.00    +0.000 A 
ATOM     20  C   UNL     1       4.015   3.632  18.462  0.00  0.00    +0.000 A 
ATOM     21  C   UNL     1       3.007   4.562  18.786  0.00  0.00    +0.000 A 
ATOM     22  C   UNL     1       1.915   4.286  19.787  0.00  0.00    +0.000 C 
BRANCH  20  23
ATOM     23  N   UNL     1       4.061   2.317  19.083  0.00  0.00    +0.000 N 
ATOM     24  O   UNL     1       3.439   1.407  18.518  0.00  0.00    +0.000 OA
ATOM     25  O   UNL     1       4.741   2.199  20.110  0.00  0.00    +0.000 OA
ENDBRANCH  20  23
ENDBRANCH  15  16
ENDBRANCH   7  14
TORSDOF 5
ENDMDL
MODEL 9
REMARK VINA RESULT:      -6.5      1.915      2.581
REMARK  Name = 
REMARK  7 active torsions:
REMARK  status: ('A' for Active; 'I' for Inactive)
REMARK    1  A    between atoms: C_1  and  C_2
REMARK    2  A    between atoms: N_4  and  C_5
REMARK    3  A    between atoms: C_5  and  N_6
REMARK    4  A    between atoms: C_10  and  N_11
REMARK    5  A    between atoms: N_12  and  C_13
REMARK    6  A    between atoms: C_17  and  N_18
REMARK    7  A    between atoms: C_21  and  C_22
REMARK                            x       y       z     vdW  Elec       q    Type
REMARK                         _______ _______ _______ _____ _____    ______ ____
ROOT
ATOM      1  C   UNL     1       2.093   3.363  18.088  0.00  0.00    +0.000 C 
ATOM      2  C   UNL     1       3.155   4.275  17.576  0.00  0.00    +0.000 A 
ATOM      3  N   UNL     1       4.095   3.831  16.659  0.00  0.00    +0.000 N 
ATOM      4  N   UNL     1       5.062   4.849  16.534  0.00  0.00    +0.000 N 
ATOM      5  C   UNL     1       4.622   5.968  17.275  0.00  0.00    +0.000 A 
ATOM      6  O   UNL     1       5.161   7.061  17.371  0.00  0.00    +0.000 OA
ATOM      7  C   UNL     1       3.355   5.552  17.952  0.00  0.00    +0.000 A 
ATOM      8  H   UNL     1       4.486   2.905  16.843  0.00  0.00    +0.000 HD
ENDROOT
BRANCH   4   9
ATOM      9  C   UNL     1       6.226   4.649  15.798  0.00  0.00    +0.000 C 
ATOM     10  S   UNL     1       6.302   4.073  14.229  0.00  0.00    +0.000 S 
BRANCH   9  11
ATOM     11  N   UNL     1       7.391   4.925  16.452  0.00  0.00    +0.000 N 
ATOM     12  H   UNL     1       8.267   5.029  15.946  0.00  0.00    +0.000 HD
ATOM     13  H   UNL     1       7.415   4.933  17.463  0.00  0.00    +0.000 HD
ENDBRANCH   9  11
ENDBRANCH   4   9
BRANCH   7  14
ATOM     14  N   UNL     1       2.702   6.359  18.831  0.00  0.00    +0.000 NA
ATOM     15  N   UNL     1       2.292   7.452  18.385  0.00  0.00    +0.000 NA
BRANCH  15  16
ATOM     16  C   UNL     1       1.756   8.252  19.422  0.00  0.00    +0.000 A 
ATOM     17  C   UNL     1       1.622   7.730  20.727  0.00  0.00    +0.000 A 
ATOM     18  C   UNL     1       1.104   8.492  21.772  0.00  0.00    +0.000 A 
ATOM     19  C   UNL     1       0.729   9.807  21.534  0.00  0.00    +0.000 A 
ATOM     20  C   UNL     1       0.888  10.345  20.249  0.00  0.00    +0.000 A 
ATOM     21  C   UNL     1       1.398   9.595  19.170  0.00  0.00    +0.000 A 
ATOM     22  C   UNL     1       1.584  10.156  17.784  0.00  0.00    +0.000 C 
BRANCH  20  23
ATOM     23  N   UNL     1       0.494  11.736  20.085  0.00  0.00    +0.000 N 
ATOM     24  O   UNL     1       1.373  12.592  20.248  0.00  0.00    +0.000 OA
ATOM     25  O   UNL     1      -0.681  11.958  19.765  0.00  0.00    +0.000 OA
ENDBRANCH  20  23
ENDBRANCH  15  16
ENDBRANCH   7  14
TORSDOF 5
ENDMDL
