MODEL 1
REMARK VINA RESULT:      -8.3      0.000      0.000
REMARK  Name = 
REMARK  10 active torsions:
REMARK  status: ('A' for Active; 'I' for Inactive)
REMARK    1  A    between atoms: C_1  and  O_2
REMARK    2  A    between atoms: O_2  and  C_3
REMARK    3  A    between atoms: C_3  and  C_4
REMARK    4  A    between atoms: C_4  and  N_5
REMARK    5  A    between atoms: C_6  and  S_7
REMARK    6  A    between atoms: S_7  and  C_8
REMARK    7  A    between atoms: C_8  and  C_9
REMARK    8  A    between atoms: C_9  and  C_11
REMARK    9  A    between atoms: C_20  and  C_21
REMARK   10  A    between atoms: N_23  and  C_24
REMARK                            x       y       z     vdW  Elec       q    Type
REMARK                         _______ _______ _______ _____ _____    ______ ____
ROOT
ATOM      1  N   UNL     1       3.755   5.700  18.527  0.00  0.00    +0.000 N 
ATOM      2  C   UNL     1       3.802   6.762  17.603  0.00  0.00    +0.000 A 
ATOM      3  N   UNL     1       3.067   7.802  17.704  0.00  0.00    +0.000 NA
ATOM      4  C   UNL     1       2.275   7.971  18.866  0.00  0.00    +0.000 A 
ATOM      5  C   UNL     1       1.585   9.165  19.084  0.00  0.00    +0.000 A 
ATOM      6  C   UNL     1       0.819   9.366  20.258  0.00  0.00    +0.000 A 
ATOM      7  C   UNL     1       0.791   8.384  21.252  0.00  0.00    +0.000 A 
ATOM      8  C   UNL     1       1.444   7.182  21.023  0.00  0.00    +0.000 A 
ATOM      9  C   UNL     1       2.164   6.993  19.834  0.00  0.00    +0.000 A 
ATOM     10  C   UNL     1       2.891   5.763  19.620  0.00  0.00    +0.000 A 
ATOM     11  O   UNL     1       2.717   4.861  20.457  0.00  0.00    +0.000 OA
ENDROOT
BRANCH   6  12
ATOM     12  C   UNL     1       0.038  10.634  20.386  0.00  0.00    +0.000 C 
ATOM     13  O   UNL     1      -0.205  11.268  19.370  0.00  0.00    +0.000 OA
ATOM     14  N   UNL     1      -0.395  10.991  21.657  0.00  0.00    +0.000 N 
ATOM     15  H   UNL     1      -0.291  10.341  22.423  0.00  0.00    +0.000 HD
BRANCH  14  16
ATOM     16  C   UNL     1      -1.235  12.159  21.907  0.00  0.00    +0.000 C 
ATOM     17  C   UNL     1      -2.250  11.911  23.017  0.00  0.00    +0.000 C 
ATOM     18  C   UNL     1      -2.665  13.301  23.489  0.00  0.00    +0.000 C 
ATOM     19  C   UNL     1      -1.494  14.229  23.180  0.00  0.00    +0.000 C 
ATOM     20  C   UNL     1      -0.472  13.382  22.426  0.00  0.00    +0.000 C 
ENDBRANCH  14  16
ENDBRANCH   6  12
BRANCH   1  21
ATOM     21  C   UNL     1       4.654   4.560  18.607  0.00  0.00    +0.000 C 
BRANCH  21  22
ATOM     22  C   UNL     1       4.205   3.407  17.699  0.00  0.00    +0.000 C 
BRANCH  22  24
ATOM     23  C   UNL     1       2.477   1.995  18.432  0.00  0.00    +0.000 C 
ATOM     24  O   UNL     1       3.858   2.302  18.530  0.00  0.00    +0.000 OA
ENDBRANCH  22  24
ENDBRANCH  21  22
ENDBRANCH   1  21
BRANCH   2  25
ATOM     25  S   UNL     1       4.856   6.662  16.191  0.00  0.00    +0.000 S 
BRANCH  25  26
ATOM     26  C   UNL     1       6.549   6.309  16.827  0.00  0.00    +0.000 C 
BRANCH  26  27
ATOM     27  C   UNL     1       7.278   5.094  16.307  0.00  0.00    +0.000 C 
ATOM     28  O   UNL     1       7.964   4.354  17.018  0.00  0.00    +0.000 OA
BRANCH  27  29
ATOM     29  C   UNL     1       7.067   4.745  14.854  0.00  0.00    +0.000 A 
ATOM     30  C   UNL     1       6.118   3.791  14.446  0.00  0.00    +0.000 A 
ATOM     31  C   UNL     1       5.951   3.488  13.090  0.00  0.00    +0.000 A 
ATOM     32  C   UNL     1       6.720   4.140  12.129  0.00  0.00    +0.000 A 
ATOM     33  C   UNL     1       7.670   5.081  12.524  0.00  0.00    +0.000 A 
ATOM     34  C   UNL     1       7.849   5.377  13.880  0.00  0.00    +0.000 A 
ENDBRANCH  27  29
ENDBRANCH  26  27
ENDBRANCH  25  26
ENDBRANCH   2  25
TORSDOF 9
ENDMDL
MODEL 2
REMARK VINA RESULT:      -7.9      0.979      1.140
REMARK  Name = 
REMARK  10 active torsions:
REMARK  status: ('A' for Active; 'I' for Inactive)
REMARK    1  A    between atoms: C_1  and  O_2
REMARK    2  A    between atoms: O_2  and  C_3
REMARK    3  A    between atoms: C_3  and  C_4
REMARK    4  A    between atoms: C_4  and  N_5
REMARK    5  A    between atoms: C_6  and  S_7
REMARK    6  A    between atoms: S_7  and  C_8
REMARK    7  A    between atoms: C_8  and  C_9
REMARK    8  A    between atoms: C_9  and  C_11
REMARK    9  A    between atoms: C_20  and  C_21
REMARK   10  A    between atoms: N_23  and  C_24
REMARK                            x       y       z     vdW  Elec       q    Type
REMARK                         _______ _______ _______ _____ _____    ______ ____
ROOT
ATOM      1  N   UNL     1       3.585   5.607  18.371  0.00  0.00    +0.000 N 
ATOM      2  C   UNL     1       3.775   6.741  17.557  0.00  0.00    +0.000 A 
ATOM      3  N   UNL     1       3.168   7.847  17.759  0.00  0.00    +0.000 NA
ATOM      4  C   UNL     1       2.383   7.996  18.928  0.00  0.00    +0.000 A 
ATOM      5  C   UNL     1       1.838   9.238  19.261  0.00  0.00    +0.000 A 
ATOM      6  C   UNL     1       1.083   9.413  20.445  0.00  0.00    +0.000 A 
ATOM      7  C   UNL     1       0.922   8.349  21.337  0.00  0.00    +0.000 A 
ATOM      8  C   UNL     1       1.429   7.106  20.992  0.00  0.00    +0.000 A 
ATOM      9  C   UNL     1       2.140   6.948  19.793  0.00  0.00    +0.000 A 
ATOM     10  C   UNL     1       2.718   5.666  19.461  0.00  0.00    +0.000 A 
ATOM     11  O   UNL     1       2.423   4.714  20.204  0.00  0.00    +0.000 OA
ENDROOT
BRANCH   6  12
ATOM     12  C   UNL     1       0.458  10.748  20.696  0.00  0.00    +0.000 C 
ATOM     13  O   UNL     1       1.187  11.679  21.002  0.00  0.00    +0.000 OA
ATOM     14  N   UNL     1      -0.917  10.850  20.527  0.00  0.00    +0.000 N 
ATOM     15  H   UNL     1      -1.431  10.080  20.123  0.00  0.00    +0.000 HD
BRANCH  14  16
ATOM     16  C   UNL     1      -1.639  12.112  20.659  0.00  0.00    +0.000 C 
ATOM     17  C   UNL     1      -2.856  12.180  19.744  0.00  0.00    +0.000 C 
ATOM     18  C   UNL     1      -3.742  13.265  20.346  0.00  0.00    +0.000 C 
ATOM     19  C   UNL     1      -3.413  13.314  21.834  0.00  0.00    +0.000 C 
ATOM     20  C   UNL     1      -2.256  12.341  22.043  0.00  0.00    +0.000 C 
ENDBRANCH  14  16
ENDBRANCH   6  12
BRANCH   1  21
ATOM     21  C   UNL     1       4.340   4.364  18.342  0.00  0.00    +0.000 C 
BRANCH  21  22
ATOM     22  C   UNL     1       3.773   3.370  17.319  0.00  0.00    +0.000 C 
BRANCH  22  24
ATOM     23  C   UNL     1       2.261   1.882  18.327  0.00  0.00    +0.000 C 
ATOM     24  O   UNL     1       3.613   2.111  17.970  0.00  0.00    +0.000 OA
ENDBRANCH  22  24
ENDBRANCH  21  22
ENDBRANCH   1  21
BRANCH   2  25
ATOM     25  S   UNL     1       4.831   6.653  16.148  0.00  0.00    +0.000 S 
BRANCH  25  26
ATOM     26  C   UNL     1       6.526   6.308  16.785  0.00  0.00    +0.000 C 
BRANCH  26  27
ATOM     27  C   UNL     1       7.260   5.094  16.267  0.00  0.00    +0.000 C 
ATOM     28  O   UNL     1       7.950   4.360  16.980  0.00  0.00    +0.000 OA
BRANCH  27  29
ATOM     29  C   UNL     1       7.050   4.742  14.816  0.00  0.00    +0.000 A 
ATOM     30  C   UNL     1       6.106   3.782  14.410  0.00  0.00    +0.000 A 
ATOM     31  C   UNL     1       5.939   3.475  13.055  0.00  0.00    +0.000 A 
ATOM     32  C   UNL     1       6.705   4.128  12.093  0.00  0.00    +0.000 A 
ATOM     33  C   UNL     1       7.651   5.074  12.484  0.00  0.00    +0.000 A 
ATOM     34  C   UNL     1       7.828   5.375  13.839  0.00  0.00    +0.000 A 
ENDBRANCH  27  29
ENDBRANCH  26  27
ENDBRANCH  25  26
ENDBRANCH   2  25
TORSDOF 9
ENDMDL
MODEL 3
REMARK VINA RESULT:      -7.8      1.569      1.916
REMARK  Name = 
REMARK  10 active torsions:
REMARK  status: ('A' for Active; 'I' for Inactive)
REMARK    1  A    between atoms: C_1  and  O_2
REMARK    2  A    between atoms: O_2  and  C_3
REMARK    3  A    between atoms: C_3  and  C_4
REMARK    4  A    between atoms: C_4  and  N_5
REMARK    5  A    between atoms: C_6  and  S_7
REMARK    6  A    between atoms: S_7  and  C_8
REMARK    7  A    between atoms: C_8  and  C_9
REMARK    8  A    between atoms: C_9  and  C_11
REMARK    9  A    between atoms: C_20  and  C_21
REMARK   10  A    between atoms: N_23  and  C_24
REMARK                            x       y       z     vdW  Elec       q    Type
REMARK                         _______ _______ _______ _____ _____    ______ ____
ROOT
ATOM      1  N   UNL     1       3.217   4.444  19.208  0.00  0.00    +0.000 N 
ATOM      2  C   UNL     1       3.445   5.068  17.966  0.00  0.00    +0.000 A 
ATOM      3  N   UNL     1       3.013   6.238  17.689  0.00  0.00    +0.000 NA
ATOM      4  C   UNL     1       2.407   7.005  18.713  0.00  0.00    +0.000 A 
ATOM      5  C   UNL     1       2.069   8.342  18.491  0.00  0.00    +0.000 A 
ATOM      6  C   UNL     1       1.497   9.134  19.514  0.00  0.00    +0.000 A 
ATOM      7  C   UNL     1       1.315   8.601  20.794  0.00  0.00    +0.000 A 
ATOM      8  C   UNL     1       1.614   7.264  21.009  0.00  0.00    +0.000 A 
ATOM      9  C   UNL     1       2.143   6.489  19.966  0.00  0.00    +0.000 A 
ATOM     10  C   UNL     1       2.508   5.111  20.206  0.00  0.00    +0.000 A 
ATOM     11  O   UNL     1       2.191   4.636  21.310  0.00  0.00    +0.000 OA
ENDROOT
BRANCH   6  12
ATOM     12  C   UNL     1       1.081  10.531  19.182  0.00  0.00    +0.000 C 
ATOM     13  O   UNL     1       1.654  11.101  18.265  0.00  0.00    +0.000 OA
ATOM     14  N   UNL     1       0.039  11.079  19.918  0.00  0.00    +0.000 N 
ATOM     15  H   UNL     1      -0.488  10.496  20.552  0.00  0.00    +0.000 HD
BRANCH  14  16
ATOM     16  C   UNL     1      -0.517  12.400  19.639  0.00  0.00    +0.000 C 
ATOM     17  C   UNL     1      -1.752  12.696  20.482  0.00  0.00    +0.000 C 
ATOM     18  C   UNL     1      -1.890  14.214  20.459  0.00  0.00    +0.000 C 
ATOM     19  C   UNL     1      -0.489  14.772  20.229  0.00  0.00    +0.000 C 
ATOM     20  C   UNL     1       0.414  13.563  20.001  0.00  0.00    +0.000 C 
ENDBRANCH  14  16
ENDBRANCH   6  12
BRANCH   1  21
ATOM     21  C   UNL     1       3.799   3.201  19.691  0.00  0.00    +0.000 C 
BRANCH  21  22
ATOM     22  C   UNL     1       3.123   1.970  19.072  0.00  0.00    +0.000 C 
BRANCH  22  24
ATOM     23  C   UNL     1       0.818   2.209  18.692  0.00  0.00    +0.000 C 
ATOM     24  O   UNL     1       1.817   1.856  19.633  0.00  0.00    +0.000 OA
ENDBRANCH  22  24
ENDBRANCH  21  22
ENDBRANCH   1  21
BRANCH   2  25
ATOM     25  S   UNL     1       4.297   4.206  16.684  0.00  0.00    +0.000 S 
BRANCH  25  26
ATOM     26  C   UNL     1       6.096   4.472  16.981  0.00  0.00    +0.000 C 
BRANCH  26  27
ATOM     27  C   UNL     1       6.867   5.343  16.019  0.00  0.00    +0.000 C 
ATOM     28  O   UNL     1       7.498   6.346  16.363  0.00  0.00    +0.000 OA
BRANCH  27  29
ATOM     29  C   UNL     1       6.918   4.887  14.582  0.00  0.00    +0.000 A 
ATOM     30  C   UNL     1       7.768   5.488  13.637  0.00  0.00    +0.000 A 
ATOM     31  C   UNL     1       7.787   5.044  12.311  0.00  0.00    +0.000 A 
ATOM     32  C   UNL     1       6.965   3.991  11.916  0.00  0.00    +0.000 A 
ATOM     33  C   UNL     1       6.111   3.394  12.841  0.00  0.00    +0.000 A 
ATOM     34  C   UNL     1       6.081   3.844  14.166  0.00  0.00    +0.000 A 
ENDBRANCH  27  29
ENDBRANCH  26  27
ENDBRANCH  25  26
ENDBRANCH   2  25
TORSDOF 9
ENDMDL
MODEL 4
REMARK VINA RESULT:      -7.7      3.657     10.038
REMARK  Name = 
REMARK  10 active torsions:
REMARK  status: ('A' for Active; 'I' for Inactive)
REMARK    1  A    between atoms: C_1  and  O_2
REMARK    2  A    between atoms: O_2  and  C_3
REMARK    3  A    between atoms: C_3  and  C_4
REMARK    4  A    between atoms: C_4  and  N_5
REMARK    5  A    between atoms: C_6  and  S_7
REMARK    6  A    between atoms: S_7  and  C_8
REMARK    7  A    between atoms: C_8  and  C_9
REMARK    8  A    between atoms: C_9  and  C_11
REMARK    9  A    between atoms: C_20  and  C_21
REMARK   10  A    between atoms: N_23  and  C_24
REMARK                            x       y       z     vdW  Elec       q    Type
REMARK                         _______ _______ _______ _____ _____    ______ ____
ROOT
ATOM      1  N   UNL     1      -0.825  12.283  21.960  0.00  0.00    +0.000 N 
ATOM      2  C   UNL     1      -0.586  12.789  20.667  0.00  0.00    +0.000 A 
ATOM      3  N   UNL     1       0.112  12.165  19.797  0.00  0.00    +0.000 NA
ATOM      4  C   UNL     1       0.546  10.848  20.082  0.00  0.00    +0.000 A 
ATOM      5  C   UNL     1       1.171  10.080  19.098  0.00  0.00    +0.000 A 
ATOM      6  C   UNL     1       1.576   8.748  19.353  0.00  0.00    +0.000 A 
ATOM      7  C   UNL     1       1.300   8.157  20.589  0.00  0.00    +0.000 A 
ATOM      8  C   UNL     1       0.714   8.928  21.582  0.00  0.00    +0.000 A 
ATOM      9  C   UNL     1       0.357  10.258  21.316  0.00  0.00    +0.000 A 
ATOM     10  C   UNL     1      -0.306  11.043  22.332  0.00  0.00    +0.000 A 
ATOM     11  O   UNL     1      -0.396  10.531  23.461  0.00  0.00    +0.000 OA
ENDROOT
BRANCH   6  12
ATOM     12  C   UNL     1       2.316   8.014  18.282  0.00  0.00    +0.000 C 
ATOM     13  O   UNL     1       2.575   8.609  17.246  0.00  0.00    +0.000 OA
ATOM     14  N   UNL     1       2.694   6.704  18.550  0.00  0.00    +0.000 N 
ATOM     15  H   UNL     1       2.582   6.331  19.481  0.00  0.00    +0.000 HD
BRANCH  14  16
ATOM     16  C   UNL     1       3.491   5.906  17.623  0.00  0.00    +0.000 C 
ATOM     17  C   UNL     1       4.966   5.877  18.007  0.00  0.00    +0.000 C 
ATOM     18  C   UNL     1       5.535   4.654  17.296  0.00  0.00    +0.000 C 
ATOM     19  C   UNL     1       4.372   3.685  17.107  0.00  0.00    +0.000 C 
ATOM     20  C   UNL     1       3.128   4.417  17.603  0.00  0.00    +0.000 C 
ENDBRANCH  14  16
ENDBRANCH   6  12
BRANCH   1  21
ATOM     21  C   UNL     1      -1.734  12.816  22.961  0.00  0.00    +0.000 C 
BRANCH  21  22
ATOM     22  C   UNL     1      -3.197  12.465  22.657  0.00  0.00    +0.000 C 
BRANCH  22  24
ATOM     23  C   UNL     1      -4.063  12.830  24.809  0.00  0.00    +0.000 C 
ATOM     24  O   UNL     1      -3.757  11.861  23.821  0.00  0.00    +0.000 OA
ENDBRANCH  22  24
ENDBRANCH  21  22
ENDBRANCH   1  21
BRANCH   2  25
ATOM     25  S   UNL     1      -1.197  14.379  20.211  0.00  0.00    +0.000 S 
BRANCH  25  26
ATOM     26  C   UNL     1      -0.126  15.615  21.061  0.00  0.00    +0.000 C 
BRANCH  26  27
ATOM     27  C   UNL     1       1.356  15.344  21.155  0.00  0.00    +0.000 C 
ATOM     28  O   UNL     1       1.923  15.011  22.200  0.00  0.00    +0.000 OA
BRANCH  27  29
ATOM     29  C   UNL     1       2.141  15.410  19.869  0.00  0.00    +0.000 A 
ATOM     30  C   UNL     1       2.125  16.547  19.043  0.00  0.00    +0.000 A 
ATOM     31  C   UNL     1       2.862  16.573  17.853  0.00  0.00    +0.000 A 
ATOM     32  C   UNL     1       3.627  15.471  17.482  0.00  0.00    +0.000 A 
ATOM     33  C   UNL     1       3.643  14.335  18.289  0.00  0.00    +0.000 A 
ATOM     34  C   UNL     1       2.898  14.301  19.473  0.00  0.00    +0.000 A 
ENDBRANCH  27  29
ENDBRANCH  26  27
ENDBRANCH  25  26
ENDBRANCH   2  25
TORSDOF 9
ENDMDL
MODEL 5
REMARK VINA RESULT:      -7.7      1.956      3.051
REMARK  Name = 
REMARK  10 active torsions:
REMARK  status: ('A' for Active; 'I' for Inactive)
REMARK    1  A    between atoms: C_1  and  O_2
REMARK    2  A    between atoms: O_2  and  C_3
REMARK    3  A    between atoms: C_3  and  C_4
REMARK    4  A    between atoms: C_4  and  N_5
REMARK    5  A    between atoms: C_6  and  S_7
REMARK    6  A    between atoms: S_7  and  C_8
REMARK    7  A    between atoms: C_8  and  C_9
REMARK    8  A    between atoms: C_9  and  C_11
REMARK    9  A    between atoms: C_20  and  C_21
REMARK   10  A    between atoms: N_23  and  C_24
REMARK                            x       y       z     vdW  Elec       q    Type
REMARK                         _______ _______ _______ _____ _____    ______ ____
ROOT
ATOM      1  N   UNL     1       3.357   4.116  19.010  0.00  0.00    +0.000 N 
ATOM      2  C   UNL     1       3.644   4.769  17.795  0.00  0.00    +0.000 A 
ATOM      3  N   UNL     1       3.245   5.955  17.534  0.00  0.00    +0.000 NA
ATOM      4  C   UNL     1       2.612   6.705  18.555  0.00  0.00    +0.000 A 
ATOM      5  C   UNL     1       2.308   8.054  18.356  0.00  0.00    +0.000 A 
ATOM      6  C   UNL     1       1.710   8.829  19.379  0.00  0.00    +0.000 A 
ATOM      7  C   UNL     1       1.469   8.265  20.634  0.00  0.00    +0.000 A 
ATOM      8  C   UNL     1       1.734   6.917  20.824  0.00  0.00    +0.000 A 
ATOM      9  C   UNL     1       2.291   6.160  19.782  0.00  0.00    +0.000 A 
ATOM     10  C   UNL     1       2.621   4.770  19.997  0.00  0.00    +0.000 A 
ATOM     11  O   UNL     1       2.251   4.271  21.074  0.00  0.00    +0.000 OA
ENDROOT
BRANCH   6  12
ATOM     12  C   UNL     1       1.333  10.242  19.069  0.00  0.00    +0.000 C 
ATOM     13  O   UNL     1       1.635  10.693  17.974  0.00  0.00    +0.000 OA
ATOM     14  N   UNL     1       0.628  10.942  20.039  0.00  0.00    +0.000 N 
ATOM     15  H   UNL     1       0.281  10.457  20.854  0.00  0.00    +0.000 HD
BRANCH  14  16
ATOM     16  C   UNL     1       0.129  12.298  19.831  0.00  0.00    +0.000 C 
ATOM     17  C   UNL     1      -1.378  12.395  20.031  0.00  0.00    +0.000 C 
ATOM     18  C   UNL     1      -1.648  13.875  20.282  0.00  0.00    +0.000 C 
ATOM     19  C   UNL     1      -0.365  14.453  20.871  0.00  0.00    +0.000 C 
ATOM     20  C   UNL     1       0.662  13.325  20.836  0.00  0.00    +0.000 C 
ENDBRANCH  14  16
ENDBRANCH   6  12
BRANCH   1  21
ATOM     21  C   UNL     1       3.896   2.851  19.480  0.00  0.00    +0.000 C 
BRANCH  21  22
ATOM     22  C   UNL     1       3.081   1.653  18.974  0.00  0.00    +0.000 C 
BRANCH  22  24
ATOM     23  C   UNL     1       0.761   2.004  18.870  0.00  0.00    +0.000 C 
ATOM     24  O   UNL     1       1.997   2.155  18.195  0.00  0.00    +0.000 OA
ENDBRANCH  22  24
ENDBRANCH  21  22
ENDBRANCH   1  21
BRANCH   2  25
ATOM     25  S   UNL     1       4.530   3.926  16.524  0.00  0.00    +0.000 S 
BRANCH  25  26
ATOM     26  C   UNL     1       5.274   5.229  15.453  0.00  0.00    +0.000 C 
BRANCH  26  27
ATOM     27  C   UNL     1       6.764   5.463  15.527  0.00  0.00    +0.000 C 
ATOM     28  O   UNL     1       7.529   5.291  14.574  0.00  0.00    +0.000 OA
BRANCH  27  29
ATOM     29  C   UNL     1       7.300   6.017  16.823  0.00  0.00    +0.000 A 
ATOM     30  C   UNL     1       7.572   7.386  16.993  0.00  0.00    +0.000 A 
ATOM     31  C   UNL     1       8.073   7.867  18.208  0.00  0.00    +0.000 A 
ATOM     32  C   UNL     1       8.300   6.990  19.266  0.00  0.00    +0.000 A 
ATOM     33  C   UNL     1       8.043   5.629  19.104  0.00  0.00    +0.000 A 
ATOM     34  C   UNL     1       7.552   5.143  17.887  0.00  0.00    +0.000 A 
ENDBRANCH  27  29
ENDBRANCH  26  27
ENDBRANCH  25  26
ENDBRANCH   2  25
TORSDOF 9
ENDMDL
MODEL 6
REMARK VINA RESULT:      -7.7      1.990      2.387
REMARK  Name = 
REMARK  10 active torsions:
REMARK  status: ('A' for Active; 'I' for Inactive)
REMARK    1  A    between atoms: C_1  and  O_2
REMARK    2  A    between atoms: O_2  and  C_3
REMARK    3  A    between atoms: C_3  and  C_4
REMARK    4  A    between atoms: C_4  and  N_5
REMARK    5  A    between atoms: C_6  and  S_7
REMARK    6  A    between atoms: S_7  and  C_8
REMARK    7  A    between atoms: C_8  and  C_9
REMARK    8  A    between atoms: C_9  and  C_11
REMARK    9  A    between atoms: C_20  and  C_21
REMARK   10  A    between atoms: N_23  and  C_24
REMARK                            x       y       z     vdW  Elec       q    Type
REMARK                         _______ _______ _______ _____ _____    ______ ____
ROOT
ATOM      1  N   UNL     1       3.169   4.211  19.421  0.00  0.00    +0.000 N 
ATOM      2  C   UNL     1       3.626   4.673  18.171  0.00  0.00    +0.000 A 
ATOM      3  N   UNL     1       3.344   5.834  17.717  0.00  0.00    +0.000 NA
ATOM      4  C   UNL     1       2.668   6.753  18.555  0.00  0.00    +0.000 A 
ATOM      5  C   UNL     1       2.486   8.078  18.151  0.00  0.00    +0.000 A 
ATOM      6  C   UNL     1       1.848   9.020  18.992  0.00  0.00    +0.000 A 
ATOM      7  C   UNL     1       1.439   8.648  20.276  0.00  0.00    +0.000 A 
ATOM      8  C   UNL     1       1.583   7.326  20.667  0.00  0.00    +0.000 A 
ATOM      9  C   UNL     1       2.185   6.402  19.800  0.00  0.00    +0.000 A 
ATOM     10  C   UNL     1       2.387   5.037  20.228  0.00  0.00    +0.000 A 
ATOM     11  O   UNL     1       1.875   4.713  21.313  0.00  0.00    +0.000 OA
ENDROOT
BRANCH   6  12
ATOM     12  C   UNL     1       1.610  10.397  18.462  0.00  0.00    +0.000 C 
ATOM     13  O   UNL     1       2.116  10.700  17.392  0.00  0.00    +0.000 OA
ATOM     14  N   UNL     1       0.793  11.237  19.209  0.00  0.00    +0.000 N 
ATOM     15  H   UNL     1       0.286  10.868  20.001  0.00  0.00    +0.000 HD
BRANCH  14  16
ATOM     16  C   UNL     1       0.415  12.575  18.763  0.00  0.00    +0.000 C 
ATOM     17  C   UNL     1      -0.651  13.200  19.656  0.00  0.00    +0.000 C 
ATOM     18  C   UNL     1      -0.558  14.699  19.389  0.00  0.00    +0.000 C 
ATOM     19  C   UNL     1       0.873  14.969  18.936  0.00  0.00    +0.000 C 
ATOM     20  C   UNL     1       1.549  13.604  18.833  0.00  0.00    +0.000 C 
ENDBRANCH  14  16
ENDBRANCH   6  12
BRANCH   1  21
ATOM     21  C   UNL     1       3.563   2.992  20.108  0.00  0.00    +0.000 C 
BRANCH  21  22
ATOM     22  C   UNL     1       2.621   1.822  19.792  0.00  0.00    +0.000 C 
BRANCH  22  24
ATOM     23  C   UNL     1       0.524   2.234  18.818  0.00  0.00    +0.000 C 
ATOM     24  O   UNL     1       1.919   2.134  18.590  0.00  0.00    +0.000 OA
ENDBRANCH  22  24
ENDBRANCH  21  22
ENDBRANCH   1  21
BRANCH   2  25
ATOM     25  S   UNL     1       4.570   3.613  17.126  0.00  0.00    +0.000 S 
BRANCH  25  26
ATOM     26  C   UNL     1       6.223   4.405  16.934  0.00  0.00    +0.000 C 
BRANCH  26  27
ATOM     27  C   UNL     1       6.413   5.430  15.842  0.00  0.00    +0.000 C 
ATOM     28  O   UNL     1       6.492   6.643  16.053  0.00  0.00    +0.000 OA
BRANCH  27  29
ATOM     29  C   UNL     1       6.596   4.903  14.441  0.00  0.00    +0.000 A 
ATOM     30  C   UNL     1       5.759   3.911  13.901  0.00  0.00    +0.000 A 
ATOM     31  C   UNL     1       5.961   3.441  12.598  0.00  0.00    +0.000 A 
ATOM     32  C   UNL     1       6.991   3.962  11.820  0.00  0.00    +0.000 A 
ATOM     33  C   UNL     1       7.833   4.939  12.349  0.00  0.00    +0.000 A 
ATOM     34  C   UNL     1       7.642   5.403  13.655  0.00  0.00    +0.000 A 
ENDBRANCH  27  29
ENDBRANCH  26  27
ENDBRANCH  25  26
ENDBRANCH   2  25
TORSDOF 9
ENDMDL
MODEL 7
REMARK VINA RESULT:      -7.5      3.656     10.617
REMARK  Name = 
REMARK  10 active torsions:
REMARK  status: ('A' for Active; 'I' for Inactive)
REMARK    1  A    between atoms: C_1  and  O_2
REMARK    2  A    between atoms: O_2  and  C_3
REMARK    3  A    between atoms: C_3  and  C_4
REMARK    4  A    between atoms: C_4  and  N_5
REMARK    5  A    between atoms: C_6  and  S_7
REMARK    6  A    between atoms: S_7  and  C_8
REMARK    7  A    between atoms: C_8  and  C_9
REMARK    8  A    between atoms: C_9  and  C_11
REMARK    9  A    between atoms: C_20  and  C_21
REMARK   10  A    between atoms: N_23  and  C_24
REMARK                            x       y       z     vdW  Elec       q    Type
REMARK                         _______ _______ _______ _____ _____    ______ ____
ROOT
ATOM      1  N   UNL     1      -0.363  11.111  20.497  0.00  0.00    +0.000 N 
ATOM      2  C   UNL     1      -0.395  11.083  19.089  0.00  0.00    +0.000 A 
ATOM      3  N   UNL     1       0.256  10.228  18.398  0.00  0.00    +0.000 NA
ATOM      4  C   UNL     1       0.922   9.172  19.066  0.00  0.00    +0.000 A 
ATOM      5  C   UNL     1       1.507   8.133  18.338  0.00  0.00    +0.000 A 
ATOM      6  C   UNL     1       2.145   7.050  18.990  0.00  0.00    +0.000 A 
ATOM      7  C   UNL     1       2.145   6.975  20.386  0.00  0.00    +0.000 A 
ATOM      8  C   UNL     1       1.599   8.023  21.111  0.00  0.00    +0.000 A 
ATOM      9  C   UNL     1       1.008   9.105  20.442  0.00  0.00    +0.000 A 
ATOM     10  C   UNL     1       0.388  10.169  21.197  0.00  0.00    +0.000 A 
ATOM     11  O   UNL     1       0.544  10.139  22.430  0.00  0.00    +0.000 OA
ENDROOT
BRANCH   6  12
ATOM     12  C   UNL     1       2.824   6.017  18.149  0.00  0.00    +0.000 C 
ATOM     13  O   UNL     1       2.153   5.092  17.717  0.00  0.00    +0.000 OA
ATOM     14  N   UNL     1       4.175   6.199  17.883  0.00  0.00    +0.000 N 
ATOM     15  H   UNL     1       4.625   7.065  18.142  0.00  0.00    +0.000 HD
BRANCH  14  16
ATOM     16  C   UNL     1       4.935   5.310  17.009  0.00  0.00    +0.000 C 
ATOM     17  C   UNL     1       5.314   5.979  15.693  0.00  0.00    +0.000 C 
ATOM     18  C   UNL     1       6.478   5.157  15.153  0.00  0.00    +0.000 C 
ATOM     19  C   UNL     1       7.157   4.522  16.363  0.00  0.00    +0.000 C 
ATOM     20  C   UNL     1       6.299   4.893  17.570  0.00  0.00    +0.000 C 
ENDBRANCH  14  16
ENDBRANCH   6  12
BRANCH   1  21
ATOM     21  C   UNL     1      -1.188  11.919  21.382  0.00  0.00    +0.000 C 
BRANCH  21  22
ATOM     22  C   UNL     1      -0.515  13.251  21.740  0.00  0.00    +0.000 C 
BRANCH  22  24
ATOM     23  C   UNL     1      -2.329  14.253  22.845  0.00  0.00    +0.000 C 
ATOM     24  O   UNL     1      -1.508  14.273  21.690  0.00  0.00    +0.000 OA
ENDBRANCH  22  24
ENDBRANCH  21  22
ENDBRANCH   1  21
BRANCH   2  25
ATOM     25  S   UNL     1      -1.303  12.306  18.199  0.00  0.00    +0.000 S 
BRANCH  25  26
ATOM     26  C   UNL     1      -2.347  11.399  16.981  0.00  0.00    +0.000 C 
BRANCH  26  27
ATOM     27  C   UNL     1      -3.442  10.496  17.498  0.00  0.00    +0.000 C 
ATOM     28  O   UNL     1      -3.257   9.321  17.827  0.00  0.00    +0.000 OA
BRANCH  27  29
ATOM     29  C   UNL     1      -4.802  11.119  17.689  0.00  0.00    +0.000 A 
ATOM     30  C   UNL     1      -5.231  12.222  16.929  0.00  0.00    +0.000 A 
ATOM     31  C   UNL     1      -6.499  12.779  17.136  0.00  0.00    +0.000 A 
ATOM     32  C   UNL     1      -7.351  12.237  18.094  0.00  0.00    +0.000 A 
ATOM     33  C   UNL     1      -6.932  11.150  18.859  0.00  0.00    +0.000 A 
ATOM     34  C   UNL     1      -5.661  10.598  18.664  0.00  0.00    +0.000 A 
ENDBRANCH  27  29
ENDBRANCH  26  27
ENDBRANCH  25  26
ENDBRANCH   2  25
TORSDOF 9
ENDMDL
MODEL 8
REMARK VINA RESULT:      -7.5      3.779     10.368
REMARK  Name = 
REMARK  10 active torsions:
REMARK  status: ('A' for Active; 'I' for Inactive)
REMARK    1  A    between atoms: C_1  and  O_2
REMARK    2  A    between atoms: O_2  and  C_3
REMARK    3  A    between atoms: C_3  and  C_4
REMARK    4  A    between atoms: C_4  and  N_5
REMARK    5  A    between atoms: C_6  and  S_7
REMARK    6  A    between atoms: S_7  and  C_8
REMARK    7  A    between atoms: C_8  and  C_9
REMARK    8  A    between atoms: C_9  and  C_11
REMARK    9  A    between atoms: C_20  and  C_21
REMARK   10  A    between atoms: N_23  and  C_24
REMARK                            x       y       z     vdW  Elec       q    Type
REMARK                         _______ _______ _______ _____ _____    ______ ____
ROOT
ATOM      1  N   UNL     1       0.336  11.372  20.807  0.00  0.00    +0.000 N 
ATOM      2  C   UNL     1       0.662  11.559  19.449  0.00  0.00    +0.000 A 
ATOM      3  N   UNL     1       1.273  10.675  18.757  0.00  0.00    +0.000 NA
ATOM      4  C   UNL     1       1.505   9.399  19.324  0.00  0.00    +0.000 A 
ATOM      5  C   UNL     1       2.023   8.362  18.545  0.00  0.00    +0.000 A 
ATOM      6  C   UNL     1       2.226   7.070  19.085  0.00  0.00    +0.000 A 
ATOM      7  C   UNL     1       1.851   6.795  20.404  0.00  0.00    +0.000 A 
ATOM      8  C   UNL     1       1.372   7.831  21.192  0.00  0.00    +0.000 A 
ATOM      9  C   UNL     1       1.217   9.113  20.643  0.00  0.00    +0.000 A 
ATOM     10  C   UNL     1       0.663  10.178  21.447  0.00  0.00    +0.000 A 
ATOM     11  O   UNL     1       0.486   9.931  22.652  0.00  0.00    +0.000 OA
ENDROOT
BRANCH   6  12
ATOM     12  C   UNL     1       2.864   6.031  18.220  0.00  0.00    +0.000 C 
ATOM     13  O   UNL     1       2.162   5.128  17.789  0.00  0.00    +0.000 OA
ATOM     14  N   UNL     1       4.214   6.183  17.930  0.00  0.00    +0.000 N 
ATOM     15  H   UNL     1       4.690   7.034  18.192  0.00  0.00    +0.000 HD
BRANCH  14  16
ATOM     16  C   UNL     1       4.936   5.286  17.031  0.00  0.00    +0.000 C 
ATOM     17  C   UNL     1       5.325   5.970  15.726  0.00  0.00    +0.000 C 
ATOM     18  C   UNL     1       6.456   5.119  15.158  0.00  0.00    +0.000 C 
ATOM     19  C   UNL     1       7.123   4.438  16.349  0.00  0.00    +0.000 C 
ATOM     20  C   UNL     1       6.290   4.812  17.571  0.00  0.00    +0.000 C 
ENDBRANCH  14  16
ENDBRANCH   6  12
BRANCH   1  21
ATOM     21  C   UNL     1      -0.499  12.226  21.638  0.00  0.00    +0.000 C 
BRANCH  21  22
ATOM     22  C   UNL     1      -1.955  12.254  21.156  0.00  0.00    +0.000 C 
BRANCH  22  24
ATOM     23  C   UNL     1      -2.824  12.203  23.337  0.00  0.00    +0.000 C 
ATOM     24  O   UNL     1      -2.730  12.945  22.133  0.00  0.00    +0.000 OA
ENDBRANCH  22  24
ENDBRANCH  21  22
ENDBRANCH   1  21
BRANCH   2  25
ATOM     25  S   UNL     1       0.295  13.088  18.651  0.00  0.00    +0.000 S 
BRANCH  25  26
ATOM     26  C   UNL     1       1.246  14.387  19.549  0.00  0.00    +0.000 C 
BRANCH  26  27
ATOM     27  C   UNL     1       2.016  15.407  18.744  0.00  0.00    +0.000 C 
ATOM     28  O   UNL     1       3.227  15.327  18.523  0.00  0.00    +0.000 OA
BRANCH  27  29
ATOM     29  C   UNL     1       1.215  16.523  18.120  0.00  0.00    +0.000 A 
ATOM     30  C   UNL     1      -0.162  16.677  18.357  0.00  0.00    +0.000 A 
ATOM     31  C   UNL     1      -0.875  17.721  17.758  0.00  0.00    +0.000 A 
ATOM     32  C   UNL     1      -0.221  18.626  16.926  0.00  0.00    +0.000 A 
ATOM     33  C   UNL     1       1.142  18.478  16.677  0.00  0.00    +0.000 A 
ATOM     34  C   UNL     1       1.857  17.427  17.264  0.00  0.00    +0.000 A 
ENDBRANCH  27  29
ENDBRANCH  26  27
ENDBRANCH  25  26
ENDBRANCH   2  25
TORSDOF 9
ENDMDL
MODEL 9
REMARK VINA RESULT:      -7.3      3.002     10.427
REMARK  Name = 
REMARK  10 active torsions:
REMARK  status: ('A' for Active; 'I' for Inactive)
REMARK    1  A    between atoms: C_1  and  O_2
REMARK    2  A    between atoms: O_2  and  C_3
REMARK    3  A    between atoms: C_3  and  C_4
REMARK    4  A    between atoms: C_4  and  N_5
REMARK    5  A    between atoms: C_6  and  S_7
REMARK    6  A    between atoms: S_7  and  C_8
REMARK    7  A    between atoms: C_8  and  C_9
REMARK    8  A    between atoms: C_9  and  C_11
REMARK    9  A    between atoms: C_20  and  C_21
REMARK   10  A    between atoms: N_23  and  C_24
REMARK                            x       y       z     vdW  Elec       q    Type
REMARK                         _______ _______ _______ _____ _____    ______ ____
ROOT
ATOM      1  N   UNL     1       1.249   8.395  20.323  0.00  0.00    +0.000 N 
ATOM      2  C   UNL     1       1.516   9.296  19.273  0.00  0.00    +0.000 A 
ATOM      3  N   UNL     1       2.326   9.028  18.321  0.00  0.00    +0.000 NA
ATOM      4  C   UNL     1       2.869   7.724  18.229  0.00  0.00    +0.000 A 
ATOM      5  C   UNL     1       3.627   7.350  17.117  0.00  0.00    +0.000 A 
ATOM      6  C   UNL     1       4.146   6.040  16.990  0.00  0.00    +0.000 A 
ATOM      7  C   UNL     1       3.854   5.074  17.958  0.00  0.00    +0.000 A 
ATOM      8  C   UNL     1       3.134   5.451  19.082  0.00  0.00    +0.000 A 
ATOM      9  C   UNL     1       2.664   6.767  19.202  0.00  0.00    +0.000 A 
ATOM     10  C   UNL     1       1.865   7.145  20.345  0.00  0.00    +0.000 A 
ATOM     11  O   UNL     1       1.757   6.301  21.252  0.00  0.00    +0.000 OA
ENDROOT
BRANCH   6  12
ATOM     12  C   UNL     1       5.020   5.733  15.817  0.00  0.00    +0.000 C 
ATOM     13  O   UNL     1       5.401   6.664  15.121  0.00  0.00    +0.000 OA
ATOM     14  N   UNL     1       5.375   4.406  15.614  0.00  0.00    +0.000 N 
ATOM     15  H   UNL     1       5.152   3.715  16.316  0.00  0.00    +0.000 HD
BRANCH  14  16
ATOM     16  C   UNL     1       6.289   3.983  14.556  0.00  0.00    +0.000 C 
ATOM     17  C   UNL     1       5.558   3.661  13.258  0.00  0.00    +0.000 C 
ATOM     18  C   UNL     1       6.626   3.743  12.173  0.00  0.00    +0.000 C 
ATOM     19  C   UNL     1       7.693   4.704  12.690  0.00  0.00    +0.000 C 
ATOM     20  C   UNL     1       7.281   5.065  14.115  0.00  0.00    +0.000 C 
ENDBRANCH  14  16
ENDBRANCH   6  12
BRANCH   1  21
ATOM     21  C   UNL     1       0.231   8.521  21.354  0.00  0.00    +0.000 C 
BRANCH  21  22
ATOM     22  C   UNL     1       0.726   9.336  22.556  0.00  0.00    +0.000 C 
BRANCH  22  24
ATOM     23  C   UNL     1      -1.015  10.839  23.031  0.00  0.00    +0.000 C 
ATOM     24  O   UNL     1      -0.396   9.616  23.391  0.00  0.00    +0.000 OA
ENDBRANCH  22  24
ENDBRANCH  21  22
ENDBRANCH   1  21
BRANCH   2  25
ATOM     25  S   UNL     1       0.779  10.898  19.269  0.00  0.00    +0.000 S 
BRANCH  25  26
ATOM     26  C   UNL     1      -1.040  10.636  19.132  0.00  0.00    +0.000 C 
BRANCH  26  27
ATOM     27  C   UNL     1      -1.962  11.798  19.415  0.00  0.00    +0.000 C 
ATOM     28  O   UNL     1      -1.655  12.751  20.136  0.00  0.00    +0.000 OA
BRANCH  27  29
ATOM     29  C   UNL     1      -3.287  11.804  18.694  0.00  0.00    +0.000 A 
ATOM     30  C   UNL     1      -3.412  11.384  17.358  0.00  0.00    +0.000 A 
ATOM     31  C   UNL     1      -4.656  11.406  16.718  0.00  0.00    +0.000 A 
ATOM     32  C   UNL     1      -5.787  11.839  17.405  0.00  0.00    +0.000 A 
ATOM     33  C   UNL     1      -5.673  12.267  18.727  0.00  0.00    +0.000 A 
ATOM     34  C   UNL     1      -4.428  12.257  19.367  0.00  0.00    +0.000 A 
ENDBRANCH  27  29
ENDBRANCH  26  27
ENDBRANCH  25  26
ENDBRANCH   2  25
TORSDOF 9
ENDMDL
