MODEL 1
REMARK VINA RESULT:      -7.0      0.000      0.000
REMARK  Name = 
REMARK  5 active torsions:
REMARK  status: ('A' for Active; 'I' for Inactive)
REMARK    1  A    between atoms: C_1  and  O_2
REMARK    2  A    between atoms: O_2  and  C_3
REMARK    3  A    between atoms: C_6  and  C_7
REMARK    4  A    between atoms: C_11  and  C_13
REMARK    5  A    between atoms: N_21  and  C_22
REMARK                            x       y       z     vdW  Elec       q    Type
REMARK                         _______ _______ _______ _____ _____    ______ ____
ROOT
ATOM      1  C   UNL     1      -1.980  12.205  21.445  0.00  0.00    +0.000 A 
ATOM      2  N   UNL     1      -1.270  13.184  20.806  0.00  0.00    +0.000 NA
ATOM      3  C   UNL     1      -0.171  12.894  20.062  0.00  0.00    +0.000 A 
ATOM      4  N   UNL     1       0.558  13.872  19.374  0.00  0.00    +0.000 N 
ATOM      5  C   UNL     1       0.203  15.205  19.333  0.00  0.00    +0.000 C 
ATOM      6  O   UNL     1      -0.771  15.715  19.879  0.00  0.00    +0.000 OA
ATOM      7  C   UNL     1       0.185  11.526  20.014  0.00  0.00    +0.000 A 
ATOM      8  N   UNL     1       1.200  10.866  19.414  0.00  0.00    +0.000 NA
ATOM      9  N   UNL     1       0.987   9.540  19.706  0.00  0.00    +0.000 N 
ATOM     10  C   UNL     1      -0.125   9.351  20.491  0.00  0.00    +0.000 A 
ATOM     11  C   UNL     1      -0.636  10.590  20.705  0.00  0.00    +0.000 A 
ATOM     12  N   UNL     1      -1.729  10.867  21.435  0.00  0.00    +0.000 NA
ATOM     13  H   UNL     1       1.329  13.517  18.824  0.00  0.00    +0.000 HD
ENDROOT
BRANCH   1  17
ATOM     14  C   UNL     1      -5.346  13.539  23.800  0.00  0.00    +0.000 A 
ATOM     15  C   UNL     1      -5.361  13.664  22.413  0.00  0.00    +0.000 A 
ATOM     16  C   UNL     1      -4.277  13.219  21.647  0.00  0.00    +0.000 A 
ATOM     17  C   UNL     1      -3.138  12.654  22.249  0.00  0.00    +0.000 A 
ATOM     18  C   UNL     1      -3.142  12.551  23.653  0.00  0.00    +0.000 A 
ATOM     19  C   UNL     1      -4.228  12.989  24.422  0.00  0.00    +0.000 A 
BRANCH  14  21
ATOM     20  C   UNL     1      -7.695  13.470  24.029  0.00  0.00    +0.000 C 
ATOM     21  O   UNL     1      -6.450  14.022  24.444  0.00  0.00    +0.000 OA
ENDBRANCH  14  21
ENDBRANCH   1  17
BRANCH   5  22
ATOM     22  C   UNL     1       1.068  16.094  18.511  0.00  0.00    +0.000 A 
ATOM     23  C   UNL     1       2.384  15.686  18.272  0.00  0.00    +0.000 A 
ATOM     24  C   UNL     1       3.192  16.501  17.503  0.00  0.00    +0.000 A 
ATOM     25  N   UNL     1       2.779  17.667  16.967  0.00  0.00    +0.000 NA
ATOM     26  C   UNL     1       1.499  18.028  17.194  0.00  0.00    +0.000 A 
ATOM     27  C   UNL     1       0.608  17.285  17.951  0.00  0.00    +0.000 A 
ENDBRANCH   5  22
BRANCH   9  28
ATOM     28  C   UNL     1       1.851   8.519  19.212  0.00  0.00    +0.000 A 
ATOM     29  C   UNL     1       2.476   8.668  17.966  0.00  0.00    +0.000 A 
ATOM     30  C   UNL     1       3.317   7.662  17.479  0.00  0.00    +0.000 A 
ATOM     31  C   UNL     1       3.530   6.501  18.223  0.00  0.00    +0.000 A 
ATOM     32  C   UNL     1       2.914   6.346  19.461  0.00  0.00    +0.000 A 
ATOM     33  C   UNL     1       2.082   7.352  19.959  0.00  0.00    +0.000 A 
ENDBRANCH   9  28
TORSDOF 4
ENDMDL
MODEL 2
REMARK VINA RESULT:      -7.0      0.202      1.209
REMARK  Name = 
REMARK  5 active torsions:
REMARK  status: ('A' for Active; 'I' for Inactive)
REMARK    1  A    between atoms: C_1  and  O_2
REMARK    2  A    between atoms: O_2  and  C_3
REMARK    3  A    between atoms: C_6  and  C_7
REMARK    4  A    between atoms: C_11  and  C_13
REMARK    5  A    between atoms: N_21  and  C_22
REMARK                            x       y       z     vdW  Elec       q    Type
REMARK                         _______ _______ _______ _____ _____    ______ ____
ROOT
ATOM      1  C   UNL     1      -1.858  12.089  21.373  0.00  0.00    +0.000 A 
ATOM      2  N   UNL     1      -1.134  13.062  20.739  0.00  0.00    +0.000 NA
ATOM      3  C   UNL     1      -0.033  12.762  20.002  0.00  0.00    +0.000 A 
ATOM      4  N   UNL     1       0.710  13.732  19.319  0.00  0.00    +0.000 N 
ATOM      5  C   UNL     1       0.369  15.069  19.278  0.00  0.00    +0.000 C 
ATOM      6  O   UNL     1      -0.603  15.588  19.819  0.00  0.00    +0.000 OA
ATOM      7  C   UNL     1       0.309  11.389  19.954  0.00  0.00    +0.000 A 
ATOM      8  N   UNL     1       1.321  10.720  19.359  0.00  0.00    +0.000 NA
ATOM      9  N   UNL     1       1.092   9.396  19.648  0.00  0.00    +0.000 N 
ATOM     10  C   UNL     1      -0.026   9.217  20.426  0.00  0.00    +0.000 A 
ATOM     11  C   UNL     1      -0.526  10.461  20.639  0.00  0.00    +0.000 A 
ATOM     12  N   UNL     1      -1.621  10.749  21.362  0.00  0.00    +0.000 NA
ATOM     13  H   UNL     1       1.481  13.370  18.773  0.00  0.00    +0.000 HD
ENDROOT
BRANCH   1  17
ATOM     14  C   UNL     1      -5.222  13.452  23.712  0.00  0.00    +0.000 A 
ATOM     15  C   UNL     1      -5.144  13.742  22.352  0.00  0.00    +0.000 A 
ATOM     16  C   UNL     1      -4.062  13.289  21.589  0.00  0.00    +0.000 A 
ATOM     17  C   UNL     1      -3.016  12.549  22.171  0.00  0.00    +0.000 A 
ATOM     18  C   UNL     1      -3.112  12.280  23.549  0.00  0.00    +0.000 A 
ATOM     19  C   UNL     1      -4.197  12.725  24.313  0.00  0.00    +0.000 A 
BRANCH  14  21
ATOM     20  C   UNL     1      -7.541  13.277  24.121  0.00  0.00    +0.000 C 
ATOM     21  O   UNL     1      -6.315  13.959  24.358  0.00  0.00    +0.000 OA
ENDBRANCH  14  21
ENDBRANCH   1  17
BRANCH   5  22
ATOM     22  C   UNL     1       1.248  15.951  18.463  0.00  0.00    +0.000 A 
ATOM     23  C   UNL     1       0.724  17.171  18.026  0.00  0.00    +0.000 A 
ATOM     24  C   UNL     1       1.535  18.001  17.277  0.00  0.00    +0.000 A 
ATOM     25  N   UNL     1       2.808  17.699  16.948  0.00  0.00    +0.000 NA
ATOM     26  C   UNL     1       3.297  16.526  17.399  0.00  0.00    +0.000 A 
ATOM     27  C   UNL     1       2.568  15.623  18.156  0.00  0.00    +0.000 A 
ENDBRANCH   5  22
BRANCH   9  28
ATOM     28  C   UNL     1       1.949   8.367  19.157  0.00  0.00    +0.000 A 
ATOM     29  C   UNL     1       2.140   7.195  19.903  0.00  0.00    +0.000 A 
ATOM     30  C   UNL     1       2.987   6.190  19.424  0.00  0.00    +0.000 A 
ATOM     31  C   UNL     1       3.654   6.351  18.211  0.00  0.00    +0.000 A 
ATOM     32  C   UNL     1       3.470   7.510  17.464  0.00  0.00    +0.000 A 
ATOM     33  C   UNL     1       2.616   8.514  17.930  0.00  0.00    +0.000 A 
ENDBRANCH   9  28
TORSDOF 4
ENDMDL
MODEL 3
REMARK VINA RESULT:      -6.9      2.605      7.633
REMARK  Name = 
REMARK  5 active torsions:
REMARK  status: ('A' for Active; 'I' for Inactive)
REMARK    1  A    between atoms: C_1  and  O_2
REMARK    2  A    between atoms: O_2  and  C_3
REMARK    3  A    between atoms: C_6  and  C_7
REMARK    4  A    between atoms: C_11  and  C_13
REMARK    5  A    between atoms: N_21  and  C_22
REMARK                            x       y       z     vdW  Elec       q    Type
REMARK                         _______ _______ _______ _____ _____    ______ ____
ROOT
ATOM      1  C   UNL     1       1.110   9.680  20.088  0.00  0.00    +0.000 A 
ATOM      2  N   UNL     1       1.453  10.881  19.528  0.00  0.00    +0.000 NA
ATOM      3  C   UNL     1       0.906  12.048  19.959  0.00  0.00    +0.000 A 
ATOM      4  N   UNL     1       1.259  13.293  19.425  0.00  0.00    +0.000 N 
ATOM      5  C   UNL     1       2.230  13.464  18.459  0.00  0.00    +0.000 C 
ATOM      6  O   UNL     1       2.904  12.579  17.940  0.00  0.00    +0.000 OA
ATOM      7  C   UNL     1      -0.041  11.924  21.003  0.00  0.00    +0.000 A 
ATOM      8  N   UNL     1      -0.795  12.830  21.664  0.00  0.00    +0.000 NA
ATOM      9  N   UNL     1      -1.493  12.101  22.596  0.00  0.00    +0.000 N 
ATOM     10  C   UNL     1      -1.213  10.758  22.525  0.00  0.00    +0.000 A 
ATOM     11  C   UNL     1      -0.309  10.626  21.521  0.00  0.00    +0.000 A 
ATOM     12  N   UNL     1       0.234   9.469  21.107  0.00  0.00    +0.000 NA
ATOM     13  H   UNL     1       0.810  14.085  19.864  0.00  0.00    +0.000 HD
ENDROOT
BRANCH   1  17
ATOM     14  C   UNL     1       3.009   6.188  18.400  0.00  0.00    +0.000 A 
ATOM     15  C   UNL     1       2.511   6.162  19.700  0.00  0.00    +0.000 A 
ATOM     16  C   UNL     1       1.882   7.288  20.244  0.00  0.00    +0.000 A 
ATOM     17  C   UNL     1       1.751   8.480  19.508  0.00  0.00    +0.000 A 
ATOM     18  C   UNL     1       2.274   8.485  18.201  0.00  0.00    +0.000 A 
ATOM     19  C   UNL     1       2.897   7.357  17.652  0.00  0.00    +0.000 A 
BRANCH  14  21
ATOM     20  C   UNL     1       3.697   3.997  18.949  0.00  0.00    +0.000 C 
ATOM     21  O   UNL     1       3.616   5.037  17.981  0.00  0.00    +0.000 OA
ENDBRANCH  14  21
ENDBRANCH   1  17
BRANCH   5  22
ATOM     22  C   UNL     1       2.508  14.866  18.043  0.00  0.00    +0.000 A 
ATOM     23  C   UNL     1       1.586  15.851  18.409  0.00  0.00    +0.000 A 
ATOM     24  C   UNL     1       1.839  17.156  18.035  0.00  0.00    +0.000 A 
ATOM     25  N   UNL     1       2.932  17.533  17.340  0.00  0.00    +0.000 NA
ATOM     26  C   UNL     1       3.817  16.567  17.017  0.00  0.00    +0.000 A 
ATOM     27  C   UNL     1       3.657  15.230  17.342  0.00  0.00    +0.000 A 
ENDBRANCH   5  22
BRANCH   9  28
ATOM     28  C   UNL     1      -2.388  12.726  23.515  0.00  0.00    +0.000 A 
ATOM     29  C   UNL     1      -2.107  14.007  24.010  0.00  0.00    +0.000 A 
ATOM     30  C   UNL     1      -2.981  14.615  24.917  0.00  0.00    +0.000 A 
ATOM     31  C   UNL     1      -4.129  13.948  25.343  0.00  0.00    +0.000 A 
ATOM     32  C   UNL     1      -4.415  12.676  24.856  0.00  0.00    +0.000 A 
ATOM     33  C   UNL     1      -3.554  12.067  23.941  0.00  0.00    +0.000 A 
ENDBRANCH   9  28
TORSDOF 4
ENDMDL
MODEL 4
REMARK VINA RESULT:      -6.9      2.599      7.662
REMARK  Name = 
REMARK  5 active torsions:
REMARK  status: ('A' for Active; 'I' for Inactive)
REMARK    1  A    between atoms: C_1  and  O_2
REMARK    2  A    between atoms: O_2  and  C_3
REMARK    3  A    between atoms: C_6  and  C_7
REMARK    4  A    between atoms: C_11  and  C_13
REMARK    5  A    between atoms: N_21  and  C_22
REMARK                            x       y       z     vdW  Elec       q    Type
REMARK                         _______ _______ _______ _____ _____    ______ ____
ROOT
ATOM      1  C   UNL     1       1.067   9.681  20.146  0.00  0.00    +0.000 A 
ATOM      2  N   UNL     1       1.423  10.876  19.582  0.00  0.00    +0.000 NA
ATOM      3  C   UNL     1       0.889  12.050  20.008  0.00  0.00    +0.000 A 
ATOM      4  N   UNL     1       1.255  13.290  19.470  0.00  0.00    +0.000 N 
ATOM      5  C   UNL     1       2.229  13.447  18.506  0.00  0.00    +0.000 C 
ATOM      6  O   UNL     1       2.894  12.553  17.990  0.00  0.00    +0.000 OA
ATOM      7  C   UNL     1      -0.061  11.940  21.052  0.00  0.00    +0.000 A 
ATOM      8  N   UNL     1      -0.807  12.856  21.708  0.00  0.00    +0.000 NA
ATOM      9  N   UNL     1      -1.514  12.137  22.642  0.00  0.00    +0.000 N 
ATOM     10  C   UNL     1      -1.247  10.791  22.577  0.00  0.00    +0.000 A 
ATOM     11  C   UNL     1      -0.344  10.646  21.574  0.00  0.00    +0.000 A 
ATOM     12  N   UNL     1       0.187   9.482  21.165  0.00  0.00    +0.000 NA
ATOM     13  H   UNL     1       0.813  14.088  19.906  0.00  0.00    +0.000 HD
ENDROOT
BRANCH   1  17
ATOM     14  C   UNL     1       2.878   6.140  18.464  0.00  0.00    +0.000 A 
ATOM     15  C   UNL     1       2.768   7.303  17.707  0.00  0.00    +0.000 A 
ATOM     16  C   UNL     1       2.195   8.456  18.255  0.00  0.00    +0.000 A 
ATOM     17  C   UNL     1       1.696   8.472  19.571  0.00  0.00    +0.000 A 
ATOM     18  C   UNL     1       1.808   7.279  20.310  0.00  0.00    +0.000 A 
ATOM     19  C   UNL     1       2.387   6.126  19.767  0.00  0.00    +0.000 A 
BRANCH  14  21
ATOM     20  C   UNL     1       4.818   5.208  17.492  0.00  0.00    +0.000 C 
ATOM     21  O   UNL     1       3.440   5.072  17.820  0.00  0.00    +0.000 OA
ENDBRANCH  14  21
ENDBRANCH   1  17
BRANCH   5  22
ATOM     22  C   UNL     1       2.523  14.844  18.085  0.00  0.00    +0.000 A 
ATOM     23  C   UNL     1       1.592  15.835  18.415  0.00  0.00    +0.000 A 
ATOM     24  C   UNL     1       1.859  17.136  18.037  0.00  0.00    +0.000 A 
ATOM     25  N   UNL     1       2.973  17.504  17.370  0.00  0.00    +0.000 NA
ATOM     26  C   UNL     1       3.865  16.533  17.082  0.00  0.00    +0.000 A 
ATOM     27  C   UNL     1       3.693  15.200  17.415  0.00  0.00    +0.000 A 
ENDBRANCH   5  22
BRANCH   9  28
ATOM     28  C   UNL     1      -2.403  12.775  23.558  0.00  0.00    +0.000 A 
ATOM     29  C   UNL     1      -3.587  12.136  23.950  0.00  0.00    +0.000 A 
ATOM     30  C   UNL     1      -4.461  12.766  24.842  0.00  0.00    +0.000 A 
ATOM     31  C   UNL     1      -4.168  14.036  25.336  0.00  0.00    +0.000 A 
ATOM     32  C   UNL     1      -2.994  14.677  24.952  0.00  0.00    +0.000 A 
ATOM     33  C   UNL     1      -2.110  14.049  24.071  0.00  0.00    +0.000 A 
ENDBRANCH   9  28
TORSDOF 4
ENDMDL
MODEL 5
REMARK VINA RESULT:      -6.7      2.589      7.664
REMARK  Name = 
REMARK  5 active torsions:
REMARK  status: ('A' for Active; 'I' for Inactive)
REMARK    1  A    between atoms: C_1  and  O_2
REMARK    2  A    between atoms: O_2  and  C_3
REMARK    3  A    between atoms: C_6  and  C_7
REMARK    4  A    between atoms: C_11  and  C_13
REMARK    5  A    between atoms: N_21  and  C_22
REMARK                            x       y       z     vdW  Elec       q    Type
REMARK                         _______ _______ _______ _____ _____    ______ ____
ROOT
ATOM      1  C   UNL     1       1.055   9.698  20.156  0.00  0.00    +0.000 A 
ATOM      2  N   UNL     1       1.396  10.901  19.602  0.00  0.00    +0.000 NA
ATOM      3  C   UNL     1       0.851  12.066  20.041  0.00  0.00    +0.000 A 
ATOM      4  N   UNL     1       1.202  13.314  19.513  0.00  0.00    +0.000 N 
ATOM      5  C   UNL     1       2.172  13.490  18.547  0.00  0.00    +0.000 C 
ATOM      6  O   UNL     1       2.845  12.608  18.022  0.00  0.00    +0.000 OA
ATOM      7  C   UNL     1      -0.095  11.936  21.086  0.00  0.00    +0.000 A 
ATOM      8  N   UNL     1      -0.848  12.839  21.752  0.00  0.00    +0.000 NA
ATOM      9  N   UNL     1      -1.545  12.105  22.682  0.00  0.00    +0.000 N 
ATOM     10  C   UNL     1      -1.264  10.762  22.604  0.00  0.00    +0.000 A 
ATOM     11  C   UNL     1      -0.362  10.635  21.597  0.00  0.00    +0.000 A 
ATOM     12  N   UNL     1       0.180   9.480  21.176  0.00  0.00    +0.000 NA
ATOM     13  H   UNL     1       0.754  14.104  19.956  0.00  0.00    +0.000 HD
ENDROOT
BRANCH   1  17
ATOM     14  C   UNL     1       2.951   6.214  18.447  0.00  0.00    +0.000 A 
ATOM     15  C   UNL     1       2.460   6.183  19.750  0.00  0.00    +0.000 A 
ATOM     16  C   UNL     1       1.832   7.306  20.301  0.00  0.00    +0.000 A 
ATOM     17  C   UNL     1       1.695   8.500  19.569  0.00  0.00    +0.000 A 
ATOM     18  C   UNL     1       2.211   8.510  18.260  0.00  0.00    +0.000 A 
ATOM     19  C   UNL     1       2.833   7.386  17.703  0.00  0.00    +0.000 A 
BRANCH  14  21
ATOM     20  C   UNL     1       4.685   5.245  17.171  0.00  0.00    +0.000 C 
ATOM     21  O   UNL     1       3.558   5.066  18.022  0.00  0.00    +0.000 OA
ENDBRANCH  14  21
ENDBRANCH   1  17
BRANCH   5  22
ATOM     22  C   UNL     1       2.450  14.894  18.137  0.00  0.00    +0.000 A 
ATOM     23  C   UNL     1       3.627  15.147  17.427  0.00  0.00    +0.000 A 
ATOM     24  C   UNL     1       3.889  16.445  17.035  0.00  0.00    +0.000 A 
ATOM     25  N   UNL     1       3.068  17.482  17.296  0.00  0.00    +0.000 NA
ATOM     26  C   UNL     1       1.927  17.209  17.964  0.00  0.00    +0.000 A 
ATOM     27  C   UNL     1       1.571  15.944  18.402  0.00  0.00    +0.000 A 
ENDBRANCH   5  22
BRANCH   9  28
ATOM     28  C   UNL     1      -2.438  12.725  23.605  0.00  0.00    +0.000 A 
ATOM     29  C   UNL     1      -3.614  12.069  23.995  0.00  0.00    +0.000 A 
ATOM     30  C   UNL     1      -4.492  12.682  24.895  0.00  0.00    +0.000 A 
ATOM     31  C   UNL     1      -4.211  13.951  25.400  0.00  0.00    +0.000 A 
ATOM     32  C   UNL     1      -3.045  14.608  25.018  0.00  0.00    +0.000 A 
ATOM     33  C   UNL     1      -2.157  13.998  24.129  0.00  0.00    +0.000 A 
ENDBRANCH   9  28
TORSDOF 4
ENDMDL
MODEL 6
REMARK VINA RESULT:      -6.7      3.787      8.658
REMARK  Name = 
REMARK  5 active torsions:
REMARK  status: ('A' for Active; 'I' for Inactive)
REMARK    1  A    between atoms: C_1  and  O_2
REMARK    2  A    between atoms: O_2  and  C_3
REMARK    3  A    between atoms: C_6  and  C_7
REMARK    4  A    between atoms: C_11  and  C_13
REMARK    5  A    between atoms: N_21  and  C_22
REMARK                            x       y       z     vdW  Elec       q    Type
REMARK                         _______ _______ _______ _____ _____    ______ ____
ROOT
ATOM      1  C   UNL     1       0.479  11.098  19.852  0.00  0.00    +0.000 A 
ATOM      2  N   UNL     1      -0.839  11.236  19.510  0.00  0.00    +0.000 NA
ATOM      3  C   UNL     1      -1.563  12.319  19.895  0.00  0.00    +0.000 A 
ATOM      4  N   UNL     1      -2.904  12.501  19.536  0.00  0.00    +0.000 N 
ATOM      5  C   UNL     1      -3.600  11.639  18.712  0.00  0.00    +0.000 C 
ATOM      6  O   UNL     1      -3.161  10.616  18.193  0.00  0.00    +0.000 OA
ATOM      7  C   UNL     1      -0.865  13.267  20.679  0.00  0.00    +0.000 A 
ATOM      8  N   UNL     1      -1.241  14.431  21.255  0.00  0.00    +0.000 NA
ATOM      9  N   UNL     1      -0.104  14.915  21.856  0.00  0.00    +0.000 N 
ATOM     10  C   UNL     1       0.972  14.077  21.691  0.00  0.00    +0.000 A 
ATOM     11  C   UNL     1       0.510  13.029  20.963  0.00  0.00    +0.000 A 
ATOM     12  N   UNL     1       1.236  11.966  20.577  0.00  0.00    +0.000 NA
ATOM     13  H   UNL     1      -3.314  13.369  19.853  0.00  0.00    +0.000 HD
ENDROOT
BRANCH   1  17
ATOM     14  C   UNL     1       2.406   7.468  18.523  0.00  0.00    +0.000 A 
ATOM     15  C   UNL     1       2.246   8.543  17.652  0.00  0.00    +0.000 A 
ATOM     16  C   UNL     1       1.635   9.725  18.084  0.00  0.00    +0.000 A 
ATOM     17  C   UNL     1       1.148   9.859  19.398  0.00  0.00    +0.000 A 
ATOM     18  C   UNL     1       1.309   8.754  20.255  0.00  0.00    +0.000 A 
ATOM     19  C   UNL     1       1.927   7.572  19.827  0.00  0.00    +0.000 A 
BRANCH  14  21
ATOM     20  C   UNL     1       2.582   5.114  18.528  0.00  0.00    +0.000 C 
ATOM     21  O   UNL     1       3.001   6.361  17.987  0.00  0.00    +0.000 OA
ENDBRANCH  14  21
ENDBRANCH   1  17
BRANCH   5  22
ATOM     22  C   UNL     1      -5.004  12.016  18.396  0.00  0.00    +0.000 A 
ATOM     23  C   UNL     1      -5.928  12.032  19.446  0.00  0.00    +0.000 A 
ATOM     24  C   UNL     1      -7.232  12.389  19.165  0.00  0.00    +0.000 A 
ATOM     25  N   UNL     1      -7.662  12.727  17.932  0.00  0.00    +0.000 NA
ATOM     26  C   UNL     1      -6.747  12.725  16.941  0.00  0.00    +0.000 A 
ATOM     27  C   UNL     1      -5.416  12.382  17.116  0.00  0.00    +0.000 A 
ENDBRANCH   5  22
BRANCH   9  28
ATOM     28  C   UNL     1      -0.101  16.161  22.552  0.00  0.00    +0.000 A 
ATOM     29  C   UNL     1      -1.294  16.877  22.718  0.00  0.00    +0.000 A 
ATOM     30  C   UNL     1      -1.288  18.102  23.394  0.00  0.00    +0.000 A 
ATOM     31  C   UNL     1      -0.095  18.623  23.895  0.00  0.00    +0.000 A 
ATOM     32  C   UNL     1       1.094  17.918  23.734  0.00  0.00    +0.000 A 
ATOM     33  C   UNL     1       1.093  16.688  23.071  0.00  0.00    +0.000 A 
ENDBRANCH   9  28
TORSDOF 4
ENDMDL
MODEL 7
REMARK VINA RESULT:      -6.7      3.310      7.253
REMARK  Name = 
REMARK  5 active torsions:
REMARK  status: ('A' for Active; 'I' for Inactive)
REMARK    1  A    between atoms: C_1  and  O_2
REMARK    2  A    between atoms: O_2  and  C_3
REMARK    3  A    between atoms: C_6  and  C_7
REMARK    4  A    between atoms: C_11  and  C_13
REMARK    5  A    between atoms: N_21  and  C_22
REMARK                            x       y       z     vdW  Elec       q    Type
REMARK                         _______ _______ _______ _____ _____    ______ ____
ROOT
ATOM      1  C   UNL     1      -0.740  12.024  18.452  0.00  0.00    +0.000 A 
ATOM      2  N   UNL     1       0.085  10.942  18.305  0.00  0.00    +0.000 NA
ATOM      3  C   UNL     1       1.437  11.074  18.307  0.00  0.00    +0.000 A 
ATOM      4  N   UNL     1       2.306   9.982  18.187  0.00  0.00    +0.000 N 
ATOM      5  C   UNL     1       1.881   8.671  18.116  0.00  0.00    +0.000 C 
ATOM      6  O   UNL     1       0.718   8.280  18.142  0.00  0.00    +0.000 OA
ATOM      7  C   UNL     1       1.917  12.397  18.456  0.00  0.00    +0.000 A 
ATOM      8  N   UNL     1       3.163  12.919  18.482  0.00  0.00    +0.000 NA
ATOM      9  N   UNL     1       2.981  14.265  18.690  0.00  0.00    +0.000 N 
ATOM     10  C   UNL     1       1.653  14.606  18.774  0.00  0.00    +0.000 A 
ATOM     11  C   UNL     1       0.967  13.445  18.618  0.00  0.00    +0.000 A 
ATOM     12  N   UNL     1      -0.370  13.322  18.626  0.00  0.00    +0.000 NA
ATOM     13  H   UNL     1       3.288  10.213  18.246  0.00  0.00    +0.000 HD
ENDROOT
BRANCH   1  17
ATOM     14  C   UNL     1      -4.986  11.257  18.289  0.00  0.00    +0.000 A 
ATOM     15  C   UNL     1      -4.132  10.700  17.341  0.00  0.00    +0.000 A 
ATOM     16  C   UNL     1      -2.754  10.935  17.400  0.00  0.00    +0.000 A 
ATOM     17  C   UNL     1      -2.193  11.752  18.400  0.00  0.00    +0.000 A 
ATOM     18  C   UNL     1      -3.080  12.313  19.339  0.00  0.00    +0.000 A 
ATOM     19  C   UNL     1      -4.458  12.073  19.286  0.00  0.00    +0.000 A 
BRANCH  14  21
ATOM     20  C   UNL     1      -6.878  10.088  19.084  0.00  0.00    +0.000 C 
ATOM     21  O   UNL     1      -6.313  10.971  18.122  0.00  0.00    +0.000 OA
ENDBRANCH  14  21
ENDBRANCH   1  17
BRANCH   5  22
ATOM     22  C   UNL     1       2.947   7.634  18.040  0.00  0.00    +0.000 A 
ATOM     23  C   UNL     1       2.904   6.585  18.962  0.00  0.00    +0.000 A 
ATOM     24  C   UNL     1       3.883   5.613  18.895  0.00  0.00    +0.000 A 
ATOM     25  N   UNL     1       4.877   5.620  17.983  0.00  0.00    +0.000 NA
ATOM     26  C   UNL     1       4.884   6.632  17.090  0.00  0.00    +0.000 A 
ATOM     27  C   UNL     1       3.951   7.655  17.072  0.00  0.00    +0.000 A 
ENDBRANCH   5  22
BRANCH   9  28
ATOM     28  C   UNL     1       4.088  15.158  18.807  0.00  0.00    +0.000 A 
ATOM     29  C   UNL     1       5.311  14.846  18.199  0.00  0.00    +0.000 A 
ATOM     30  C   UNL     1       6.397  15.719  18.321  0.00  0.00    +0.000 A 
ATOM     31  C   UNL     1       6.275  16.897  19.056  0.00  0.00    +0.000 A 
ATOM     32  C   UNL     1       5.063  17.215  19.663  0.00  0.00    +0.000 A 
ATOM     33  C   UNL     1       3.970  16.354  19.535  0.00  0.00    +0.000 A 
ENDBRANCH   9  28
TORSDOF 4
ENDMDL
MODEL 8
REMARK VINA RESULT:      -6.6      3.317      7.277
REMARK  Name = 
REMARK  5 active torsions:
REMARK  status: ('A' for Active; 'I' for Inactive)
REMARK    1  A    between atoms: C_1  and  O_2
REMARK    2  A    between atoms: O_2  and  C_3
REMARK    3  A    between atoms: C_6  and  C_7
REMARK    4  A    between atoms: C_11  and  C_13
REMARK    5  A    between atoms: N_21  and  C_22
REMARK                            x       y       z     vdW  Elec       q    Type
REMARK                         _______ _______ _______ _____ _____    ______ ____
ROOT
ATOM      1  C   UNL     1      -0.850  12.123  18.353  0.00  0.00    +0.000 A 
ATOM      2  N   UNL     1      -0.024  11.039  18.239  0.00  0.00    +0.000 NA
ATOM      3  C   UNL     1       1.328  11.164  18.310  0.00  0.00    +0.000 A 
ATOM      4  N   UNL     1       2.196  10.070  18.226  0.00  0.00    +0.000 N 
ATOM      5  C   UNL     1       1.770   8.761  18.124  0.00  0.00    +0.000 C 
ATOM      6  O   UNL     1       0.605   8.376  18.090  0.00  0.00    +0.000 OA
ATOM      7  C   UNL     1       1.805  12.484  18.491  0.00  0.00    +0.000 A 
ATOM      8  N   UNL     1       3.050  13.001  18.583  0.00  0.00    +0.000 NA
ATOM      9  N   UNL     1       2.864  14.346  18.791  0.00  0.00    +0.000 N 
ATOM     10  C   UNL     1       1.535  14.693  18.812  0.00  0.00    +0.000 A 
ATOM     11  C   UNL     1       0.853  13.536  18.613  0.00  0.00    +0.000 A 
ATOM     12  N   UNL     1      -0.484  13.419  18.554  0.00  0.00    +0.000 NA
ATOM     13  H   UNL     1       3.176  10.296  18.335  0.00  0.00    +0.000 HD
ENDROOT
BRANCH   1  17
ATOM     14  C   UNL     1      -5.078  11.322  17.993  0.00  0.00    +0.000 A 
ATOM     15  C   UNL     1      -4.574  11.957  19.125  0.00  0.00    +0.000 A 
ATOM     16  C   UNL     1      -3.206  12.230  19.238  0.00  0.00    +0.000 A 
ATOM     17  C   UNL     1      -2.300  11.858  18.227  0.00  0.00    +0.000 A 
ATOM     18  C   UNL     1      -2.833  11.207  17.099  0.00  0.00    +0.000 A 
ATOM     19  C   UNL     1      -4.202  10.939  16.980  0.00  0.00    +0.000 A 
BRANCH  14  21
ATOM     20  C   UNL     1      -7.054  11.159  19.275  0.00  0.00    +0.000 C 
ATOM     21  O   UNL     1      -6.426  11.093  18.000  0.00  0.00    +0.000 OA
ENDBRANCH  14  21
ENDBRANCH   1  17
BRANCH   5  22
ATOM     22  C   UNL     1       2.834   7.720  18.094  0.00  0.00    +0.000 A 
ATOM     23  C   UNL     1       2.768   6.692  19.039  0.00  0.00    +0.000 A 
ATOM     24  C   UNL     1       3.746   5.716  19.014  0.00  0.00    +0.000 A 
ATOM     25  N   UNL     1       4.758   5.700  18.123  0.00  0.00    +0.000 NA
ATOM     26  C   UNL     1       4.788   6.691  17.208  0.00  0.00    +0.000 A 
ATOM     27  C   UNL     1       3.858   7.716  17.148  0.00  0.00    +0.000 A 
ENDBRANCH   5  22
BRANCH   9  28
ATOM     28  C   UNL     1       3.967  15.233  18.969  0.00  0.00    +0.000 A 
ATOM     29  C   UNL     1       3.832  16.371  19.776  0.00  0.00    +0.000 A 
ATOM     30  C   UNL     1       4.912  17.244  19.943  0.00  0.00    +0.000 A 
ATOM     31  C   UNL     1       6.124  16.995  19.300  0.00  0.00    +0.000 A 
ATOM     32  C   UNL     1       6.267  15.868  18.497  0.00  0.00    +0.000 A 
ATOM     33  C   UNL     1       5.196  14.984  18.335  0.00  0.00    +0.000 A 
ENDBRANCH   9  28
TORSDOF 4
ENDMDL
MODEL 9
REMARK VINA RESULT:      -6.6      2.172      6.531
REMARK  Name = 
REMARK  5 active torsions:
REMARK  status: ('A' for Active; 'I' for Inactive)
REMARK    1  A    between atoms: C_1  and  O_2
REMARK    2  A    between atoms: O_2  and  C_3
REMARK    3  A    between atoms: C_6  and  C_7
REMARK    4  A    between atoms: C_11  and  C_13
REMARK    5  A    between atoms: N_21  and  C_22
REMARK                            x       y       z     vdW  Elec       q    Type
REMARK                         _______ _______ _______ _____ _____    ______ ____
ROOT
ATOM      1  C   UNL     1      -1.073  12.975  21.649  0.00  0.00    +0.000 A 
ATOM      2  N   UNL     1      -0.528  11.807  21.191  0.00  0.00    +0.000 NA
ATOM      3  C   UNL     1       0.701  11.775  20.612  0.00  0.00    +0.000 A 
ATOM      4  N   UNL     1       1.296  10.591  20.160  0.00  0.00    +0.000 N 
ATOM      5  C   UNL     1       0.727   9.343  20.311  0.00  0.00    +0.000 C 
ATOM      6  O   UNL     1      -0.351   9.094  20.843  0.00  0.00    +0.000 OA
ATOM      7  C   UNL     1       1.353  13.027  20.506  0.00  0.00    +0.000 A 
ATOM      8  N   UNL     1       2.544  13.395  19.983  0.00  0.00    +0.000 NA
ATOM      9  N   UNL     1       2.632  14.747  20.214  0.00  0.00    +0.000 N 
ATOM     10  C   UNL     1       1.519  15.242  20.849  0.00  0.00    +0.000 A 
ATOM     11  C   UNL     1       0.698  14.176  21.031  0.00  0.00    +0.000 A 
ATOM     12  N   UNL     1      -0.511  14.215  21.614  0.00  0.00    +0.000 NA
ATOM     13  H   UNL     1       2.229  10.701  19.787  0.00  0.00    +0.000 HD
ENDROOT
BRANCH   1  17
ATOM     14  C   UNL     1      -5.037  12.674  23.337  0.00  0.00    +0.000 A 
ATOM     15  C   UNL     1      -3.912  12.506  24.141  0.00  0.00    +0.000 A 
ATOM     16  C   UNL     1      -2.627  12.618  23.600  0.00  0.00    +0.000 A 
ATOM     17  C   UNL     1      -2.430  12.882  22.231  0.00  0.00    +0.000 A 
ATOM     18  C   UNL     1      -3.582  13.035  21.437  0.00  0.00    +0.000 A 
ATOM     19  C   UNL     1      -4.870  12.931  21.978  0.00  0.00    +0.000 A 
BRANCH  14  21
ATOM     20  C   UNL     1      -7.375  12.433  23.121  0.00  0.00    +0.000 C 
ATOM     21  O   UNL     1      -6.239  12.528  23.971  0.00  0.00    +0.000 OA
ENDBRANCH  14  21
ENDBRANCH   1  17
BRANCH   5  22
ATOM     22  C   UNL     1       1.524   8.189  19.814  0.00  0.00    +0.000 A 
ATOM     23  C   UNL     1       1.617   7.058  20.631  0.00  0.00    +0.000 A 
ATOM     24  C   UNL     1       2.347   5.978  20.175  0.00  0.00    +0.000 A 
ATOM     25  N   UNL     1       2.972   5.954  18.980  0.00  0.00    +0.000 NA
ATOM     26  C   UNL     1       2.850   7.049  18.200  0.00  0.00    +0.000 A 
ATOM     27  C   UNL     1       2.143   8.183  18.564  0.00  0.00    +0.000 A 
ENDBRANCH   5  22
BRANCH   9  28
ATOM     28  C   UNL     1       3.781  15.497  19.822  0.00  0.00    +0.000 A 
ATOM     29  C   UNL     1       4.059  16.728  20.432  0.00  0.00    +0.000 A 
ATOM     30  C   UNL     1       5.181  17.465  20.042  0.00  0.00    +0.000 A 
ATOM     31  C   UNL     1       6.023  16.988  19.037  0.00  0.00    +0.000 A 
ATOM     32  C   UNL     1       5.754  15.766  18.428  0.00  0.00    +0.000 A 
ATOM     33  C   UNL     1       4.642  15.018  18.821  0.00  0.00    +0.000 A 
ENDBRANCH   9  28
TORSDOF 4
ENDMDL
