MODEL 1
REMARK VINA RESULT:      -7.9      0.000      0.000
REMARK  Name = 
REMARK  2 active torsions:
REMARK  status: ('A' for Active; 'I' for Inactive)
REMARK    1  A    between atoms: C_17  and  O_18
REMARK    2  A    between atoms: N_22  and  O_23
REMARK                            x       y       z     vdW  Elec       q    Type
REMARK                         _______ _______ _______ _____ _____    ______ ____
ROOT
ATOM      1  O   UNL     1       4.712   6.337  16.151  0.00  0.00    +0.000 OA
ATOM      2  C   UNL     1       4.220   5.547  16.937  0.00  0.00    +0.000 C 
ATOM      3  N   UNL     1       4.530   4.193  17.082  0.00  0.00    +0.000 N 
ATOM      4  C   UNL     1       3.707   3.588  18.027  0.00  0.00    +0.000 A 
ATOM      5  C   UNL     1       3.734   2.280  18.479  0.00  0.00    +0.000 A 
ATOM      6  C   UNL     1       2.783   1.915  19.437  0.00  0.00    +0.000 A 
ATOM      7  C   UNL     1       1.769   2.810  19.797  0.00  0.00    +0.000 A 
ATOM      8  F   UNL     1       0.874   2.453  20.733  0.00  0.00    +0.000 F 
ATOM      9  C   UNL     1       1.702   4.083  19.260  0.00  0.00    +0.000 A 
ATOM     10  C   UNL     1       2.763   4.506  18.494  0.00  0.00    +0.000 A 
ATOM     11  C   UNL     1       3.159   5.814  17.975  0.00  0.00    +0.000 C 
ATOM     12  C   UNL     1       2.829   7.056  18.388  0.00  0.00    +0.000 C 
ATOM     13  N   UNL     1       3.142   8.265  17.763  0.00  0.00    +0.000 N 
ATOM     14  C   UNL     1       2.269   9.254  18.227  0.00  0.00    +0.000 A 
ATOM     15  C   UNL     1       2.211  10.600  17.922  0.00  0.00    +0.000 A 
ATOM     16  C   UNL     1       1.350  11.426  18.674  0.00  0.00    +0.000 A 
ATOM     17  C   UNL     1       0.573  10.895  19.717  0.00  0.00    +0.000 A 
ATOM     18  C   UNL     1       0.623   9.560  20.032  0.00  0.00    +0.000 A 
ATOM     19  C   UNL     1       1.491   8.778  19.279  0.00  0.00    +0.000 A 
ATOM     20  C   UNL     1       1.919   7.405  19.568  0.00  0.00    +0.000 C 
ATOM     21  N   UNL     1       1.585   6.930  20.717  0.00  0.00    +0.000 NA
ATOM     22  H   UNL     1       5.240   3.727  16.533  0.00  0.00    +0.000 HD
ATOM     23  H   UNL     1       3.516   8.271  16.817  0.00  0.00    +0.000 HD
ENDROOT
BRANCH  17  24
ATOM     24  O   UNL     1      -0.232  11.672  20.495  0.00  0.00    +0.000 OA
ATOM     25  H   UNL     1       0.037  11.581  21.421  0.00  0.00    +0.000 HD
ENDBRANCH  17  24
BRANCH  21  26
ATOM     26  O   UNL     1       2.328   5.841  21.135  0.00  0.00    +0.000 OA
ATOM     27  H   UNL     1       2.033   5.745  22.063  0.00  0.00    +0.000 HD
ENDBRANCH  21  26
TORSDOF 2
ENDMDL
MODEL 2
REMARK VINA RESULT:      -7.5      2.407      3.771
REMARK  Name = 
REMARK  2 active torsions:
REMARK  status: ('A' for Active; 'I' for Inactive)
REMARK    1  A    between atoms: C_17  and  O_18
REMARK    2  A    between atoms: N_22  and  O_23
REMARK                            x       y       z     vdW  Elec       q    Type
REMARK                         _______ _______ _______ _____ _____    ______ ____
ROOT
ATOM      1  O   UNL     1       2.224   4.415  21.540  0.00  0.00    +0.000 OA
ATOM      2  C   UNL     1       2.700   4.693  20.454  0.00  0.00    +0.000 C 
ATOM      3  N   UNL     1       3.337   3.826  19.562  0.00  0.00    +0.000 N 
ATOM      4  C   UNL     1       3.827   4.515  18.457  0.00  0.00    +0.000 A 
ATOM      5  C   UNL     1       4.471   4.006  17.343  0.00  0.00    +0.000 A 
ATOM      6  C   UNL     1       4.876   4.920  16.364  0.00  0.00    +0.000 A 
ATOM      7  C   UNL     1       4.753   6.294  16.593  0.00  0.00    +0.000 A 
ATOM      8  F   UNL     1       5.128   7.160  15.637  0.00  0.00    +0.000 F 
ATOM      9  C   UNL     1       4.193   6.788  17.758  0.00  0.00    +0.000 A 
ATOM     10  C   UNL     1       3.599   5.884  18.609  0.00  0.00    +0.000 A 
ATOM     11  C   UNL     1       2.722   6.036  19.770  0.00  0.00    +0.000 C 
ATOM     12  C   UNL     1       1.928   7.063  20.139  0.00  0.00    +0.000 C 
ATOM     13  N   UNL     1       1.215   7.194  21.332  0.00  0.00    +0.000 N 
ATOM     14  C   UNL     1       0.898   8.541  21.526  0.00  0.00    +0.000 A 
ATOM     15  C   UNL     1       0.182   9.148  22.541  0.00  0.00    +0.000 A 
ATOM     16  C   UNL     1      -0.161  10.508  22.405  0.00  0.00    +0.000 A 
ATOM     17  C   UNL     1       0.209  11.233  21.260  0.00  0.00    +0.000 A 
ATOM     18  C   UNL     1       0.918  10.642  20.243  0.00  0.00    +0.000 A 
ATOM     19  C   UNL     1       1.228   9.298  20.405  0.00  0.00    +0.000 A 
ATOM     20  C   UNL     1       1.741   8.380  19.381  0.00  0.00    +0.000 C 
ATOM     21  N   UNL     1       1.756   8.821  18.171  0.00  0.00    +0.000 NA
ATOM     22  H   UNL     1       3.448   2.837  19.738  0.00  0.00    +0.000 HD
ATOM     23  H   UNL     1       1.395   6.560  22.108  0.00  0.00    +0.000 HD
ENDROOT
BRANCH  17  24
ATOM     24  O   UNL     1      -0.148  12.535  21.074  0.00  0.00    +0.000 OA
ATOM     25  H   UNL     1      -1.092  12.578  20.859  0.00  0.00    +0.000 HD
ENDBRANCH  17  24
BRANCH  21  26
ATOM     26  O   UNL     1       1.833   7.843  17.196  0.00  0.00    +0.000 OA
ATOM     27  H   UNL     1       2.772   7.906  16.928  0.00  0.00    +0.000 HD
ENDBRANCH  21  26
TORSDOF 2
ENDMDL
MODEL 3
REMARK VINA RESULT:      -7.4      2.572      6.314
REMARK  Name = 
REMARK  2 active torsions:
REMARK  status: ('A' for Active; 'I' for Inactive)
REMARK    1  A    between atoms: C_17  and  O_18
REMARK    2  A    between atoms: N_22  and  O_23
REMARK                            x       y       z     vdW  Elec       q    Type
REMARK                         _______ _______ _______ _____ _____    ______ ____
ROOT
ATOM      1  O   UNL     1       1.945  10.383  17.251  0.00  0.00    +0.000 OA
ATOM      2  C   UNL     1       1.458  10.259  18.361  0.00  0.00    +0.000 C 
ATOM      3  N   UNL     1       0.557  11.122  18.990  0.00  0.00    +0.000 N 
ATOM      4  C   UNL     1       0.282  10.701  20.287  0.00  0.00    +0.000 A 
ATOM      5  C   UNL     1      -0.590  11.260  21.205  0.00  0.00    +0.000 A 
ATOM      6  C   UNL     1      -0.679  10.645  22.459  0.00  0.00    +0.000 A 
ATOM      7  C   UNL     1       0.191   9.602  22.793  0.00  0.00    +0.000 A 
ATOM      8  F   UNL     1       0.082   9.008  23.993  0.00  0.00    +0.000 F 
ATOM      9  C   UNL     1       1.125   9.120  21.892  0.00  0.00    +0.000 A 
ATOM     10  C   UNL     1       1.053   9.578  20.597  0.00  0.00    +0.000 A 
ATOM     11  C   UNL     1       1.679   9.143  19.350  0.00  0.00    +0.000 C 
ATOM     12  C   UNL     1       2.215   7.952  19.008  0.00  0.00    +0.000 C 
ATOM     13  N   UNL     1       2.916   7.645  17.840  0.00  0.00    +0.000 N 
ATOM     14  C   UNL     1       3.673   6.490  18.056  0.00  0.00    +0.000 A 
ATOM     15  C   UNL     1       4.495   5.793  17.192  0.00  0.00    +0.000 A 
ATOM     16  C   UNL     1       5.002   4.543  17.602  0.00  0.00    +0.000 A 
ATOM     17  C   UNL     1       4.671   4.010  18.859  0.00  0.00    +0.000 A 
ATOM     18  C   UNL     1       3.853   4.690  19.727  0.00  0.00    +0.000 A 
ATOM     19  C   UNL     1       3.362   5.913  19.285  0.00  0.00    +0.000 A 
ATOM     20  C   UNL     1       2.288   6.706  19.893  0.00  0.00    +0.000 C 
ATOM     21  N   UNL     1       1.623   6.139  20.839  0.00  0.00    +0.000 NA
ATOM     22  H   UNL     1       0.194  11.957  18.551  0.00  0.00    +0.000 HD
ATOM     23  H   UNL     1       3.224   8.388  17.217  0.00  0.00    +0.000 HD
ENDROOT
BRANCH  17  24
ATOM     24  O   UNL     1       5.103   2.784  19.268  0.00  0.00    +0.000 OA
ATOM     25  H   UNL     1       5.341   2.828  20.206  0.00  0.00    +0.000 HD
ENDBRANCH  17  24
BRANCH  21  26
ATOM     26  O   UNL     1       0.388   6.706  21.102  0.00  0.00    +0.000 OA
ATOM     27  H   UNL     1      -0.110   5.940  21.452  0.00  0.00    +0.000 HD
ENDBRANCH  21  26
TORSDOF 2
ENDMDL
MODEL 4
REMARK VINA RESULT:      -7.4      3.211      7.341
REMARK  Name = 
REMARK  2 active torsions:
REMARK  status: ('A' for Active; 'I' for Inactive)
REMARK    1  A    between atoms: C_17  and  O_18
REMARK    2  A    between atoms: N_22  and  O_23
REMARK                            x       y       z     vdW  Elec       q    Type
REMARK                         _______ _______ _______ _____ _____    ______ ____
ROOT
ATOM      1  O   UNL     1       0.382   8.914  22.956  0.00  0.00    +0.000 OA
ATOM      2  C   UNL     1       0.040   9.646  22.044  0.00  0.00    +0.000 C 
ATOM      3  N   UNL     1      -0.713  10.819  22.138  0.00  0.00    +0.000 N 
ATOM      4  C   UNL     1      -0.980  11.346  20.878  0.00  0.00    +0.000 A 
ATOM      5  C   UNL     1      -1.652  12.512  20.559  0.00  0.00    +0.000 A 
ATOM      6  C   UNL     1      -1.796  12.817  19.201  0.00  0.00    +0.000 A 
ATOM      7  C   UNL     1      -1.397  11.894  18.228  0.00  0.00    +0.000 A 
ATOM      8  F   UNL     1      -1.524  12.208  16.929  0.00  0.00    +0.000 F 
ATOM      9  C   UNL     1      -0.814  10.687  18.570  0.00  0.00    +0.000 A 
ATOM     10  C   UNL     1      -0.476  10.497  19.890  0.00  0.00    +0.000 A 
ATOM     11  C   UNL     1       0.344   9.498  20.575  0.00  0.00    +0.000 C 
ATOM     12  C   UNL     1       1.315   8.688  20.102  0.00  0.00    +0.000 C 
ATOM     13  N   UNL     1       1.968   7.663  20.788  0.00  0.00    +0.000 N 
ATOM     14  C   UNL     1       2.553   6.797  19.860  0.00  0.00    +0.000 A 
ATOM     15  C   UNL     1       3.320   5.666  20.061  0.00  0.00    +0.000 A 
ATOM     16  C   UNL     1       3.951   5.071  18.950  0.00  0.00    +0.000 A 
ATOM     17  C   UNL     1       3.812   5.620  17.664  0.00  0.00    +0.000 A 
ATOM     18  C   UNL     1       3.054   6.745  17.449  0.00  0.00    +0.000 A 
ATOM     19  C   UNL     1       2.456   7.311  18.569  0.00  0.00    +0.000 A 
ATOM     20  C   UNL     1       1.821   8.631  18.659  0.00  0.00    +0.000 C 
ATOM     21  N   UNL     1       1.971   9.409  17.644  0.00  0.00    +0.000 NA
ATOM     22  H   UNL     1      -1.041  11.196  23.017  0.00  0.00    +0.000 HD
ATOM     23  H   UNL     1       1.613   7.339  21.685  0.00  0.00    +0.000 HD
ENDROOT
BRANCH  17  24
ATOM     24  O   UNL     1       4.447   5.100  16.576  0.00  0.00    +0.000 OA
ATOM     25  H   UNL     1       3.984   5.383  15.773  0.00  0.00    +0.000 HD
ENDBRANCH  17  24
BRANCH  21  26
ATOM     26  O   UNL     1       1.744  10.749  17.901  0.00  0.00    +0.000 OA
ATOM     27  H   UNL     1       2.657  11.092  17.983  0.00  0.00    +0.000 HD
ENDBRANCH  21  26
TORSDOF 2
ENDMDL
MODEL 5
REMARK VINA RESULT:      -7.1      4.235      5.981
REMARK  Name = 
REMARK  2 active torsions:
REMARK  status: ('A' for Active; 'I' for Inactive)
REMARK    1  A    between atoms: C_17  and  O_18
REMARK    2  A    between atoms: N_22  and  O_23
REMARK                            x       y       z     vdW  Elec       q    Type
REMARK                         _______ _______ _______ _____ _____    ______ ____
ROOT
ATOM      1  O   UNL     1       6.787   7.208  17.995  0.00  0.00    +0.000 OA
ATOM      2  C   UNL     1       6.742   6.473  17.024  0.00  0.00    +0.000 C 
ATOM      3  N   UNL     1       7.660   6.401  15.974  0.00  0.00    +0.000 N 
ATOM      4  C   UNL     1       7.237   5.502  14.999  0.00  0.00    +0.000 A 
ATOM      5  C   UNL     1       7.889   5.124  13.838  0.00  0.00    +0.000 A 
ATOM      6  C   UNL     1       7.240   4.200  13.012  0.00  0.00    +0.000 A 
ATOM      7  C   UNL     1       5.929   3.804  13.296  0.00  0.00    +0.000 A 
ATOM      8  F   UNL     1       5.325   2.903  12.505  0.00  0.00    +0.000 F 
ATOM      9  C   UNL     1       5.256   4.270  14.412  0.00  0.00    +0.000 A 
ATOM     10  C   UNL     1       5.978   4.998  15.330  0.00  0.00    +0.000 A 
ATOM     11  C   UNL     1       5.697   5.437  16.696  0.00  0.00    +0.000 C 
ATOM     12  C   UNL     1       4.822   4.959  17.607  0.00  0.00    +0.000 C 
ATOM     13  N   UNL     1       4.513   5.511  18.851  0.00  0.00    +0.000 N 
ATOM     14  C   UNL     1       3.283   5.004  19.280  0.00  0.00    +0.000 A 
ATOM     15  C   UNL     1       2.587   5.234  20.451  0.00  0.00    +0.000 A 
ATOM     16  C   UNL     1       1.449   4.449  20.725  0.00  0.00    +0.000 A 
ATOM     17  C   UNL     1       1.033   3.448  19.832  0.00  0.00    +0.000 A 
ATOM     18  C   UNL     1       1.716   3.207  18.665  0.00  0.00    +0.000 A 
ATOM     19  C   UNL     1       2.839   3.991  18.433  0.00  0.00    +0.000 A 
ATOM     20  C   UNL     1       3.874   3.774  17.415  0.00  0.00    +0.000 C 
ATOM     21  N   UNL     1       3.822   2.658  16.775  0.00  0.00    +0.000 NA
ATOM     22  H   UNL     1       8.497   6.965  15.933  0.00  0.00    +0.000 HD
ATOM     23  H   UNL     1       4.826   6.450  19.087  0.00  0.00    +0.000 HD
ENDROOT
BRANCH  17  24
ATOM     24  O   UNL     1      -0.034   2.639  20.088  0.00  0.00    +0.000 OA
ATOM     25  H   UNL     1      -0.832   3.036  19.708  0.00  0.00    +0.000 HD
ENDBRANCH  17  24
BRANCH  21  26
ATOM     26  O   UNL     1       4.999   2.292  16.148  0.00  0.00    +0.000 OA
ATOM     27  H   UNL     1       5.540   3.100  16.256  0.00  0.00    +0.000 HD
ENDBRANCH  21  26
TORSDOF 2
ENDMDL
MODEL 6
REMARK VINA RESULT:      -6.9      4.807      7.265
REMARK  Name = 
REMARK  2 active torsions:
REMARK  status: ('A' for Active; 'I' for Inactive)
REMARK    1  A    between atoms: C_17  and  O_18
REMARK    2  A    between atoms: N_22  and  O_23
REMARK                            x       y       z     vdW  Elec       q    Type
REMARK                         _______ _______ _______ _____ _____    ______ ____
ROOT
ATOM      1  O   UNL     1      -2.901  11.809  17.374  0.00  0.00    +0.000 OA
ATOM      2  C   UNL     1      -1.957  11.244  17.898  0.00  0.00    +0.000 C 
ATOM      3  N   UNL     1      -0.983  10.464  17.270  0.00  0.00    +0.000 N 
ATOM      4  C   UNL     1      -0.108   9.911  18.199  0.00  0.00    +0.000 A 
ATOM      5  C   UNL     1       1.007   9.125  17.968  0.00  0.00    +0.000 A 
ATOM      6  C   UNL     1       1.722   8.683  19.086  0.00  0.00    +0.000 A 
ATOM      7  C   UNL     1       1.228   8.919  20.373  0.00  0.00    +0.000 A 
ATOM      8  F   UNL     1       1.934   8.506  21.438  0.00  0.00    +0.000 F 
ATOM      9  C   UNL     1       0.057   9.625  20.582  0.00  0.00    +0.000 A 
ATOM     10  C   UNL     1      -0.515  10.242  19.493  0.00  0.00    +0.000 A 
ATOM     11  C   UNL     1      -1.575  11.240  19.356  0.00  0.00    +0.000 C 
ATOM     12  C   UNL     1      -2.058  12.133  20.246  0.00  0.00    +0.000 C 
ATOM     13  N   UNL     1      -3.164  12.970  20.087  0.00  0.00    +0.000 N 
ATOM     14  C   UNL     1      -3.597  13.394  21.347  0.00  0.00    +0.000 A 
ATOM     15  C   UNL     1      -4.627  14.247  21.692  0.00  0.00    +0.000 A 
ATOM     16  C   UNL     1      -4.740  14.662  23.034  0.00  0.00    +0.000 A 
ATOM     17  C   UNL     1      -3.819  14.227  24.002  0.00  0.00    +0.000 A 
ATOM     18  C   UNL     1      -2.789  13.381  23.674  0.00  0.00    +0.000 A 
ATOM     19  C   UNL     1      -2.701  13.001  22.340  0.00  0.00    +0.000 A 
ATOM     20  C   UNL     1      -1.574  12.328  21.685  0.00  0.00    +0.000 C 
ATOM     21  N   UNL     1      -0.492  12.219  22.375  0.00  0.00    +0.000 NA
ATOM     22  H   UNL     1      -0.960  10.308  16.272  0.00  0.00    +0.000 HD
ATOM     23  H   UNL     1      -3.806  12.829  19.311  0.00  0.00    +0.000 HD
ENDROOT
BRANCH  17  24
ATOM     24  O   UNL     1      -3.869  14.647  25.297  0.00  0.00    +0.000 OA
ATOM     25  H   UNL     1      -3.689  13.895  25.882  0.00  0.00    +0.000 HD
ENDBRANCH  17  24
BRANCH  21  26
ATOM     26  O   UNL     1       0.650  11.979  21.632  0.00  0.00    +0.000 OA
ATOM     27  H   UNL     1       0.689  11.002  21.641  0.00  0.00    +0.000 HD
ENDBRANCH  21  26
TORSDOF 2
ENDMDL
MODEL 7
REMARK VINA RESULT:      -6.8      7.187      9.597
REMARK  Name = 
REMARK  2 active torsions:
REMARK  status: ('A' for Active; 'I' for Inactive)
REMARK    1  A    between atoms: C_17  and  O_18
REMARK    2  A    between atoms: N_22  and  O_23
REMARK                            x       y       z     vdW  Elec       q    Type
REMARK                         _______ _______ _______ _____ _____    ______ ____
ROOT
ATOM      1  O   UNL     1      -7.201  12.629  17.882  0.00  0.00    +0.000 OA
ATOM      2  C   UNL     1      -6.094  12.179  17.641  0.00  0.00    +0.000 C 
ATOM      3  N   UNL     1      -5.635  11.668  16.425  0.00  0.00    +0.000 N 
ATOM      4  C   UNL     1      -4.342  11.168  16.547  0.00  0.00    +0.000 A 
ATOM      5  C   UNL     1      -3.534  10.626  15.564  0.00  0.00    +0.000 A 
ATOM      6  C   UNL     1      -2.264  10.184  15.951  0.00  0.00    +0.000 A 
ATOM      7  C   UNL     1      -1.908  10.168  17.304  0.00  0.00    +0.000 A 
ATOM      8  F   UNL     1      -0.680   9.759  17.659  0.00  0.00    +0.000 F 
ATOM      9  C   UNL     1      -2.770  10.625  18.285  0.00  0.00    +0.000 A 
ATOM     10  C   UNL     1      -3.919  11.261  17.875  0.00  0.00    +0.000 A 
ATOM     11  C   UNL     1      -4.918  12.065  18.578  0.00  0.00    +0.000 C 
ATOM     12  C   UNL     1      -4.836  12.742  19.742  0.00  0.00    +0.000 C 
ATOM     13  N   UNL     1      -5.873  13.384  20.422  0.00  0.00    +0.000 N 
ATOM     14  C   UNL     1      -5.497  13.566  21.756  0.00  0.00    +0.000 A 
ATOM     15  C   UNL     1      -6.175  14.174  22.795  0.00  0.00    +0.000 A 
ATOM     16  C   UNL     1      -5.494  14.395  24.008  0.00  0.00    +0.000 A 
ATOM     17  C   UNL     1      -4.150  14.014  24.159  0.00  0.00    +0.000 A 
ATOM     18  C   UNL     1      -3.463  13.410  23.135  0.00  0.00    +0.000 A 
ATOM     19  C   UNL     1      -4.162  13.219  21.950  0.00  0.00    +0.000 A 
ATOM     20  C   UNL     1      -3.605  12.841  20.646  0.00  0.00    +0.000 C 
ATOM     21  N   UNL     1      -2.320  12.841  20.551  0.00  0.00    +0.000 NA
ATOM     22  H   UNL     1      -6.201  11.641  15.588  0.00  0.00    +0.000 HD
ATOM     23  H   UNL     1      -6.840  13.228  20.146  0.00  0.00    +0.000 HD
ENDROOT
BRANCH  17  24
ATOM     24  O   UNL     1      -3.447  14.256  25.301  0.00  0.00    +0.000 OA
ATOM     25  H   UNL     1      -2.504  14.311  25.087  0.00  0.00    +0.000 HD
ENDBRANCH  17  24
BRANCH  21  26
ATOM     26  O   UNL     1      -1.833  12.900  19.257  0.00  0.00    +0.000 OA
ATOM     27  H   UNL     1      -0.977  12.435  19.347  0.00  0.00    +0.000 HD
ENDBRANCH  21  26
TORSDOF 2
ENDMDL
MODEL 8
REMARK VINA RESULT:      -6.7      9.849     11.400
REMARK  Name = 
REMARK  2 active torsions:
REMARK  status: ('A' for Active; 'I' for Inactive)
REMARK    1  A    between atoms: C_17  and  O_18
REMARK    2  A    between atoms: N_22  and  O_23
REMARK                            x       y       z     vdW  Elec       q    Type
REMARK                         _______ _______ _______ _____ _____    ______ ____
ROOT
ATOM      1  O   UNL     1      12.068  11.498  20.259  0.00  0.00    +0.000 OA
ATOM      2  C   UNL     1      11.703  12.484  19.644  0.00  0.00    +0.000 C 
ATOM      3  N   UNL     1      12.262  13.009  18.477  0.00  0.00    +0.000 N 
ATOM      4  C   UNL     1      11.632  14.192  18.106  0.00  0.00    +0.000 A 
ATOM      5  C   UNL     1      11.867  14.980  16.993  0.00  0.00    +0.000 A 
ATOM      6  C   UNL     1      11.096  16.138  16.853  0.00  0.00    +0.000 A 
ATOM      7  C   UNL     1      10.234  16.535  17.881  0.00  0.00    +0.000 A 
ATOM      8  F   UNL     1       9.484  17.639  17.725  0.00  0.00    +0.000 F 
ATOM      9  C   UNL     1      10.084  15.784  19.033  0.00  0.00    +0.000 A 
ATOM     10  C   UNL     1      10.675  14.541  19.061  0.00  0.00    +0.000 A 
ATOM     11  C   UNL     1      10.546  13.398  19.963  0.00  0.00    +0.000 C 
ATOM     12  C   UNL     1       9.554  13.059  20.813  0.00  0.00    +0.000 C 
ATOM     13  N   UNL     1       9.556  12.018  21.743  0.00  0.00    +0.000 N 
ATOM     14  C   UNL     1       8.575  12.269  22.707  0.00  0.00    +0.000 A 
ATOM     15  C   UNL     1       8.189  11.514  23.798  0.00  0.00    +0.000 A 
ATOM     16  C   UNL     1       7.038  11.901  24.514  0.00  0.00    +0.000 A 
ATOM     17  C   UNL     1       6.292  13.026  24.123  0.00  0.00    +0.000 A 
ATOM     18  C   UNL     1       6.663  13.784  23.039  0.00  0.00    +0.000 A 
ATOM     19  C   UNL     1       7.795  13.366  22.351  0.00  0.00    +0.000 A 
ATOM     20  C   UNL     1       8.252  13.832  21.036  0.00  0.00    +0.000 C 
ATOM     21  N   UNL     1       7.439  14.588  20.382  0.00  0.00    +0.000 NA
ATOM     22  H   UNL     1      13.047  12.584  18.002  0.00  0.00    +0.000 HD
ATOM     23  H   UNL     1      10.421  11.528  21.962  0.00  0.00    +0.000 HD
ENDROOT
BRANCH  17  24
ATOM     24  O   UNL     1       5.148  13.400  24.762  0.00  0.00    +0.000 OA
ATOM     25  H   UNL     1       4.598  13.915  24.152  0.00  0.00    +0.000 HD
ENDBRANCH  17  24
BRANCH  21  26
ATOM     26  O   UNL     1       7.686  14.667  19.023  0.00  0.00    +0.000 OA
ATOM     27  H   UNL     1       6.778  14.696  18.659  0.00  0.00    +0.000 HD
ENDBRANCH  21  26
TORSDOF 2
ENDMDL
MODEL 9
REMARK VINA RESULT:      -6.7      4.356      6.815
REMARK  Name = 
REMARK  2 active torsions:
REMARK  status: ('A' for Active; 'I' for Inactive)
REMARK    1  A    between atoms: C_17  and  O_18
REMARK    2  A    between atoms: N_22  and  O_23
REMARK                            x       y       z     vdW  Elec       q    Type
REMARK                         _______ _______ _______ _____ _____    ______ ____
ROOT
ATOM      1  O   UNL     1      -0.733  13.116  18.228  0.00  0.00    +0.000 OA
ATOM      2  C   UNL     1      -0.214  12.098  18.651  0.00  0.00    +0.000 C 
ATOM      3  N   UNL     1       0.801  11.353  18.047  0.00  0.00    +0.000 N 
ATOM      4  C   UNL     1       1.086  10.205  18.780  0.00  0.00    +0.000 A 
ATOM      5  C   UNL     1       2.052   9.245  18.535  0.00  0.00    +0.000 A 
ATOM      6  C   UNL     1       2.129   8.172  19.428  0.00  0.00    +0.000 A 
ATOM      7  C   UNL     1       1.166   8.023  20.433  0.00  0.00    +0.000 A 
ATOM      8  F   UNL     1       1.264   6.999  21.295  0.00  0.00    +0.000 F 
ATOM      9  C   UNL     1       0.148   8.945  20.602  0.00  0.00    +0.000 A 
ATOM     10  C   UNL     1       0.213  10.105  19.866  0.00  0.00    +0.000 A 
ATOM     11  C   UNL     1      -0.511  11.374  19.939  0.00  0.00    +0.000 C 
ATOM     12  C   UNL     1      -1.187  11.938  20.962  0.00  0.00    +0.000 C 
ATOM     13  N   UNL     1      -1.967  13.095  20.923  0.00  0.00    +0.000 N 
ATOM     14  C   UNL     1      -2.834  13.096  22.020  0.00  0.00    +0.000 A 
ATOM     15  C   UNL     1      -3.764  14.037  22.416  0.00  0.00    +0.000 A 
ATOM     16  C   UNL     1      -4.384  13.887  23.673  0.00  0.00    +0.000 A 
ATOM     17  C   UNL     1      -4.058  12.807  24.511  0.00  0.00    +0.000 A 
ATOM     18  C   UNL     1      -3.134  11.865  24.131  0.00  0.00    +0.000 A 
ATOM     19  C   UNL     1      -2.534  12.052  22.892  0.00  0.00    +0.000 A 
ATOM     20  C   UNL     1      -1.355  11.354  22.366  0.00  0.00    +0.000 C 
ATOM     21  N   UNL     1      -0.714  10.608  23.198  0.00  0.00    +0.000 NA
ATOM     22  H   UNL     1       1.232  11.615  17.171  0.00  0.00    +0.000 HD
ATOM     23  H   UNL     1      -2.220  13.513  20.030  0.00  0.00    +0.000 HD
ENDROOT
BRANCH  17  24
ATOM     24  O   UNL     1      -4.602  12.658  25.752  0.00  0.00    +0.000 OA
ATOM     25  H   UNL     1      -3.889  12.544  26.399  0.00  0.00    +0.000 HD
ENDBRANCH  17  24
BRANCH  21  26
ATOM     26  O   UNL     1       0.584  10.307  22.827  0.00  0.00    +0.000 OA
ATOM     27  H   UNL     1       0.770   9.521  23.379  0.00  0.00    +0.000 HD
ENDBRANCH  21  26
TORSDOF 2
ENDMDL
