MODEL 1
REMARK VINA RESULT:      -6.2      0.000      0.000
REMARK  Name = 
REMARK  11 active torsions:
REMARK  status: ('A' for Active; 'I' for Inactive)
REMARK    1  A    between atoms: C_1  and  O_2
REMARK    2  A    between atoms: O_2  and  C_3
REMARK    3  A    between atoms: C_3  and  C_5
REMARK    4  A    between atoms: C_8  and  C_9
REMARK    5  A    between atoms: C_9  and  N_10
REMARK    6  A    between atoms: N_10  and  C_11
REMARK    7  A    between atoms: N_10  and  C_14
REMARK    8  A    between atoms: C_11  and  C_12
REMARK    9  A    between atoms: C_11  and  C_13
REMARK   10  A    between atoms: C_14  and  C_15
REMARK   11  A    between atoms: C_14  and  C_16
REMARK                            x       y       z     vdW  Elec       q    Type
REMARK                         _______ _______ _______ _____ _____    ______ ____
ROOT
ATOM      1  C   UNL     1       6.413   4.604  16.656  0.00  0.00    +0.000 A 
ATOM      2  C   UNL     1       7.141   5.240  17.642  0.00  0.00    +0.000 A 
ATOM      3  C   UNL     1       6.434   5.063  18.803  0.00  0.00    +0.000 A 
ATOM      4  C   UNL     1       5.325   4.311  18.462  0.00  0.00    +0.000 A 
ATOM      5  O   UNL     1       5.329   4.062  17.166  0.00  0.00    +0.000 OA
ENDROOT
BRANCH   1   6
ATOM      6  C   UNL     1       6.786   4.542  15.231  0.00  0.00    +0.000 C 
ATOM      7  O   UNL     1       7.651   5.293  14.801  0.00  0.00    +0.000 OA
BRANCH   6   9
ATOM      8  C   UNL     1       6.270   3.723  13.030  0.00  0.00    +0.000 C 
ATOM      9  O   UNL     1       6.150   3.678  14.403  0.00  0.00    +0.000 OA
ENDBRANCH   6   9
ENDBRANCH   1   6
BRANCH   4  10
ATOM     10  C   UNL     1       4.281   3.865  19.437  0.00  0.00    +0.000 C 
BRANCH  10  11
ATOM     11  N   UNL     1       2.898   4.385  19.198  0.00  0.00    +0.000 NA
BRANCH  11  12
ATOM     12  C   UNL     1       1.806   3.640  19.944  0.00  0.00    +0.000 C 
ATOM     13  C   UNL     1       1.025   2.659  19.032  0.00  0.00    +0.000 C 
ATOM     14  C   UNL     1       2.314   2.762  21.112  0.00  0.00    +0.000 C 
ENDBRANCH  11  12
BRANCH  11  15
ATOM     15  C   UNL     1       2.854   5.876  19.454  0.00  0.00    +0.000 C 
ATOM     16  C   UNL     1       2.649   6.719  18.172  0.00  0.00    +0.000 C 
ATOM     17  C   UNL     1       1.819   6.301  20.518  0.00  0.00    +0.000 C 
ENDBRANCH  11  15
ENDBRANCH  10  11
ENDBRANCH   4  10
TORSDOF 6
ENDMDL
MODEL 2
REMARK VINA RESULT:      -6.2      1.406      2.399
REMARK  Name = 
REMARK  11 active torsions:
REMARK  status: ('A' for Active; 'I' for Inactive)
REMARK    1  A    between atoms: C_1  and  O_2
REMARK    2  A    between atoms: O_2  and  C_3
REMARK    3  A    between atoms: C_3  and  C_5
REMARK    4  A    between atoms: C_8  and  C_9
REMARK    5  A    between atoms: C_9  and  N_10
REMARK    6  A    between atoms: N_10  and  C_11
REMARK    7  A    between atoms: N_10  and  C_14
REMARK    8  A    between atoms: C_11  and  C_12
REMARK    9  A    between atoms: C_11  and  C_13
REMARK   10  A    between atoms: C_14  and  C_15
REMARK   11  A    between atoms: C_14  and  C_16
REMARK                            x       y       z     vdW  Elec       q    Type
REMARK                         _______ _______ _______ _____ _____    ______ ____
ROOT
ATOM      1  C   UNL     1       5.951   5.223  15.897  0.00  0.00    +0.000 A 
ATOM      2  C   UNL     1       5.144   6.343  15.913  0.00  0.00    +0.000 A 
ATOM      3  C   UNL     1       4.565   6.371  17.155  0.00  0.00    +0.000 A 
ATOM      4  C   UNL     1       5.067   5.276  17.833  0.00  0.00    +0.000 A 
ATOM      5  O   UNL     1       5.884   4.596  17.051  0.00  0.00    +0.000 OA
ENDROOT
BRANCH   1   6
ATOM      6  C   UNL     1       6.766   4.781  14.752  0.00  0.00    +0.000 C 
ATOM      7  O   UNL     1       7.744   5.436  14.418  0.00  0.00    +0.000 OA
BRANCH   6   9
ATOM      8  C   UNL     1       6.301   3.642  12.685  0.00  0.00    +0.000 C 
ATOM      9  O   UNL     1       6.412   3.670  14.059  0.00  0.00    +0.000 OA
ENDBRANCH   6   9
ENDBRANCH   1   6
BRANCH   4  10
ATOM     10  C   UNL     1       4.714   4.927  19.245  0.00  0.00    +0.000 C 
BRANCH  10  11
ATOM     11  N   UNL     1       3.637   3.901  19.415  0.00  0.00    +0.000 NA
BRANCH  11  12
ATOM     12  C   UNL     1       2.302   4.458  19.878  0.00  0.00    +0.000 C 
ATOM     13  C   UNL     1       1.833   3.838  21.220  0.00  0.00    +0.000 C 
ATOM     14  C   UNL     1       2.301   5.984  20.135  0.00  0.00    +0.000 C 
ENDBRANCH  11  12
BRANCH  11  15
ATOM     15  C   UNL     1       3.506   3.072  18.156  0.00  0.00    +0.000 C 
ATOM     16  C   UNL     1       3.597   1.548  18.406  0.00  0.00    +0.000 C 
ATOM     17  C   UNL     1       2.241   3.382  17.327  0.00  0.00    +0.000 C 
ENDBRANCH  11  15
ENDBRANCH  10  11
ENDBRANCH   4  10
TORSDOF 6
ENDMDL
MODEL 3
REMARK VINA RESULT:      -6.1      1.166      2.180
REMARK  Name = 
REMARK  11 active torsions:
REMARK  status: ('A' for Active; 'I' for Inactive)
REMARK    1  A    between atoms: C_1  and  O_2
REMARK    2  A    between atoms: O_2  and  C_3
REMARK    3  A    between atoms: C_3  and  C_5
REMARK    4  A    between atoms: C_8  and  C_9
REMARK    5  A    between atoms: C_9  and  N_10
REMARK    6  A    between atoms: N_10  and  C_11
REMARK    7  A    between atoms: N_10  and  C_14
REMARK    8  A    between atoms: C_11  and  C_12
REMARK    9  A    between atoms: C_11  and  C_13
REMARK   10  A    between atoms: C_14  and  C_15
REMARK   11  A    between atoms: C_14  and  C_16
REMARK                            x       y       z     vdW  Elec       q    Type
REMARK                         _______ _______ _______ _____ _____    ______ ____
ROOT
ATOM      1  C   UNL     1       6.640   5.084  16.067  0.00  0.00    +0.000 A 
ATOM      2  C   UNL     1       7.193   6.095  16.828  0.00  0.00    +0.000 A 
ATOM      3  C   UNL     1       6.685   5.934  18.092  0.00  0.00    +0.000 A 
ATOM      4  C   UNL     1       5.867   4.821  18.033  0.00  0.00    +0.000 A 
ATOM      5  O   UNL     1       5.846   4.339  16.805  0.00  0.00    +0.000 OA
ENDROOT
BRANCH   1   6
ATOM      6  C   UNL     1       6.893   4.868  14.632  0.00  0.00    +0.000 C 
ATOM      7  O   UNL     1       7.812   5.461  14.084  0.00  0.00    +0.000 OA
BRANCH   6   9
ATOM      8  C   UNL     1       6.398   3.590  12.655  0.00  0.00    +0.000 C 
ATOM      9  O   UNL     1       6.088   4.039  13.922  0.00  0.00    +0.000 OA
ENDBRANCH   6   9
ENDBRANCH   1   6
BRANCH   4  10
ATOM     10  C   UNL     1       5.117   4.267  19.204  0.00  0.00    +0.000 C 
BRANCH  10  11
ATOM     11  N   UNL     1       3.721   4.776  19.387  0.00  0.00    +0.000 NA
BRANCH  11  12
ATOM     12  C   UNL     1       3.083   5.333  18.127  0.00  0.00    +0.000 C 
ATOM     13  C   UNL     1       1.825   4.535  17.696  0.00  0.00    +0.000 C 
ATOM     14  C   UNL     1       2.590   6.794  18.252  0.00  0.00    +0.000 C 
ENDBRANCH  11  12
BRANCH  11  15
ATOM     15  C   UNL     1       2.865   3.714  20.043  0.00  0.00    +0.000 C 
ATOM     16  C   UNL     1       3.617   2.387  20.306  0.00  0.00    +0.000 C 
ATOM     17  C   UNL     1       2.174   4.178  21.343  0.00  0.00    +0.000 C 
ENDBRANCH  11  15
ENDBRANCH  10  11
ENDBRANCH   4  10
TORSDOF 6
ENDMDL
MODEL 4
REMARK VINA RESULT:      -6.1      1.170      1.524
REMARK  Name = 
REMARK  11 active torsions:
REMARK  status: ('A' for Active; 'I' for Inactive)
REMARK    1  A    between atoms: C_1  and  O_2
REMARK    2  A    between atoms: O_2  and  C_3
REMARK    3  A    between atoms: C_3  and  C_5
REMARK    4  A    between atoms: C_8  and  C_9
REMARK    5  A    between atoms: C_9  and  N_10
REMARK    6  A    between atoms: N_10  and  C_11
REMARK    7  A    between atoms: N_10  and  C_14
REMARK    8  A    between atoms: C_11  and  C_12
REMARK    9  A    between atoms: C_11  and  C_13
REMARK   10  A    between atoms: C_14  and  C_15
REMARK   11  A    between atoms: C_14  and  C_16
REMARK                            x       y       z     vdW  Elec       q    Type
REMARK                         _______ _______ _______ _____ _____    ______ ____
ROOT
ATOM      1  C   UNL     1       6.476   5.150  16.278  0.00  0.00    +0.000 A 
ATOM      2  C   UNL     1       6.998   6.211  16.991  0.00  0.00    +0.000 A 
ATOM      3  C   UNL     1       6.321   6.232  18.183  0.00  0.00    +0.000 A 
ATOM      4  C   UNL     1       5.438   5.169  18.136  0.00  0.00    +0.000 A 
ATOM      5  O   UNL     1       5.541   4.546  16.977  0.00  0.00    +0.000 OA
ENDROOT
BRANCH   1   6
ATOM      6  C   UNL     1       6.896   4.750  14.923  0.00  0.00    +0.000 C 
ATOM      7  O   UNL     1       7.764   5.390  14.347  0.00  0.00    +0.000 OA
BRANCH   6   9
ATOM      8  C   UNL     1       6.206   3.571  12.944  0.00  0.00    +0.000 C 
ATOM      9  O   UNL     1       6.297   3.698  14.314  0.00  0.00    +0.000 OA
ENDBRANCH   6   9
ENDBRANCH   1   6
BRANCH   4  10
ATOM     10  C   UNL     1       4.504   4.803  19.247  0.00  0.00    +0.000 C 
BRANCH  10  11
ATOM     11  N   UNL     1       3.263   4.070  18.844  0.00  0.00    +0.000 NA
BRANCH  11  12
ATOM     12  C   UNL     1       3.233   2.608  19.251  0.00  0.00    +0.000 C 
ATOM     13  C   UNL     1       3.424   1.652  18.046  0.00  0.00    +0.000 C 
ATOM     14  C   UNL     1       4.342   2.199  20.249  0.00  0.00    +0.000 C 
ENDBRANCH  11  12
BRANCH  11  15
ATOM     15  C   UNL     1       2.039   4.823  19.320  0.00  0.00    +0.000 C 
ATOM     16  C   UNL     1       1.106   3.981  20.222  0.00  0.00    +0.000 C 
ATOM     17  C   UNL     1       2.357   6.163  20.019  0.00  0.00    +0.000 C 
ENDBRANCH  11  15
ENDBRANCH  10  11
ENDBRANCH   4  10
TORSDOF 6
ENDMDL
MODEL 5
REMARK VINA RESULT:      -6.1      1.525      2.184
REMARK  Name = 
REMARK  11 active torsions:
REMARK  status: ('A' for Active; 'I' for Inactive)
REMARK    1  A    between atoms: C_1  and  O_2
REMARK    2  A    between atoms: O_2  and  C_3
REMARK    3  A    between atoms: C_3  and  C_5
REMARK    4  A    between atoms: C_8  and  C_9
REMARK    5  A    between atoms: C_9  and  N_10
REMARK    6  A    between atoms: N_10  and  C_11
REMARK    7  A    between atoms: N_10  and  C_14
REMARK    8  A    between atoms: C_11  and  C_12
REMARK    9  A    between atoms: C_11  and  C_13
REMARK   10  A    between atoms: C_14  and  C_15
REMARK   11  A    between atoms: C_14  and  C_16
REMARK                            x       y       z     vdW  Elec       q    Type
REMARK                         _______ _______ _______ _____ _____    ______ ____
ROOT
ATOM      1  C   UNL     1       5.700   5.220  15.803  0.00  0.00    +0.000 A 
ATOM      2  C   UNL     1       5.227   6.510  15.934  0.00  0.00    +0.000 A 
ATOM      3  C   UNL     1       4.512   6.532  17.103  0.00  0.00    +0.000 A 
ATOM      4  C   UNL     1       4.605   5.257  17.629  0.00  0.00    +0.000 A 
ATOM      5  O   UNL     1       5.310   4.486  16.823  0.00  0.00    +0.000 OA
ENDROOT
BRANCH   1   6
ATOM      6  C   UNL     1       6.517   4.724  14.682  0.00  0.00    +0.000 C 
ATOM      7  O   UNL     1       6.219   3.670  14.138  0.00  0.00    +0.000 OA
BRANCH   6   9
ATOM      8  C   UNL     1       8.090   5.390  12.989  0.00  0.00    +0.000 C 
ATOM      9  O   UNL     1       7.607   5.423  14.280  0.00  0.00    +0.000 OA
ENDBRANCH   6   9
ENDBRANCH   1   6
BRANCH   4  10
ATOM     10  C   UNL     1       3.982   4.834  18.922  0.00  0.00    +0.000 C 
BRANCH  10  11
ATOM     11  N   UNL     1       2.851   3.859  18.815  0.00  0.00    +0.000 NA
BRANCH  11  12
ATOM     12  C   UNL     1       3.195   2.445  19.248  0.00  0.00    +0.000 C 
ATOM     13  C   UNL     1       3.527   1.520  18.048  0.00  0.00    +0.000 C 
ATOM     14  C   UNL     1       4.433   2.341  20.170  0.00  0.00    +0.000 C 
ENDBRANCH  11  12
BRANCH  11  15
ATOM     15  C   UNL     1       1.632   4.397  19.532  0.00  0.00    +0.000 C 
ATOM     16  C   UNL     1       0.798   3.304  20.242  0.00  0.00    +0.000 C 
ATOM     17  C   UNL     1       1.940   5.536  20.528  0.00  0.00    +0.000 C 
ENDBRANCH  11  15
ENDBRANCH  10  11
ENDBRANCH   4  10
TORSDOF 6
ENDMDL
MODEL 6
REMARK VINA RESULT:      -6.0      1.508      2.448
REMARK  Name = 
REMARK  11 active torsions:
REMARK  status: ('A' for Active; 'I' for Inactive)
REMARK    1  A    between atoms: C_1  and  O_2
REMARK    2  A    between atoms: O_2  and  C_3
REMARK    3  A    between atoms: C_3  and  C_5
REMARK    4  A    between atoms: C_8  and  C_9
REMARK    5  A    between atoms: C_9  and  N_10
REMARK    6  A    between atoms: N_10  and  C_11
REMARK    7  A    between atoms: N_10  and  C_14
REMARK    8  A    between atoms: C_11  and  C_12
REMARK    9  A    between atoms: C_11  and  C_13
REMARK   10  A    between atoms: C_14  and  C_15
REMARK   11  A    between atoms: C_14  and  C_16
REMARK                            x       y       z     vdW  Elec       q    Type
REMARK                         _______ _______ _______ _____ _____    ______ ____
ROOT
ATOM      1  C   UNL     1       5.861   6.168  17.268  0.00  0.00    +0.000 A 
ATOM      2  C   UNL     1       4.636   6.749  17.007  0.00  0.00    +0.000 A 
ATOM      3  C   UNL     1       3.733   6.097  17.807  0.00  0.00    +0.000 A 
ATOM      4  C   UNL     1       4.464   5.169  18.525  0.00  0.00    +0.000 A 
ATOM      5  O   UNL     1       5.734   5.222  18.173  0.00  0.00    +0.000 OA
ENDROOT
BRANCH   1   6
ATOM      6  C   UNL     1       7.132   6.543  16.625  0.00  0.00    +0.000 C 
ATOM      7  O   UNL     1       7.684   7.588  16.941  0.00  0.00    +0.000 OA
BRANCH   6   9
ATOM      8  C   UNL     1       6.911   4.884  14.897  0.00  0.00    +0.000 C 
ATOM      9  O   UNL     1       7.666   5.745  15.667  0.00  0.00    +0.000 OA
ENDBRANCH   6   9
ENDBRANCH   1   6
BRANCH   4  10
ATOM     10  C   UNL     1       3.875   4.242  19.543  0.00  0.00    +0.000 C 
BRANCH  10  11
ATOM     11  N   UNL     1       2.434   3.886  19.348  0.00  0.00    +0.000 NA
BRANCH  11  12
ATOM     12  C   UNL     1       2.192   2.451  18.917  0.00  0.00    +0.000 C 
ATOM     13  C   UNL     1       0.703   2.174  18.583  0.00  0.00    +0.000 C 
ATOM     14  C   UNL     1       2.960   2.028  17.642  0.00  0.00    +0.000 C 
ENDBRANCH  11  12
BRANCH  11  15
ATOM     15  C   UNL     1       1.638   4.257  20.580  0.00  0.00    +0.000 C 
ATOM     16  C   UNL     1       2.060   3.477  21.849  0.00  0.00    +0.000 C 
ATOM     17  C   UNL     1       1.625   5.770  20.889  0.00  0.00    +0.000 C 
ENDBRANCH  11  15
ENDBRANCH  10  11
ENDBRANCH   4  10
TORSDOF 6
ENDMDL
MODEL 7
REMARK VINA RESULT:      -6.0      1.391      2.180
REMARK  Name = 
REMARK  11 active torsions:
REMARK  status: ('A' for Active; 'I' for Inactive)
REMARK    1  A    between atoms: C_1  and  O_2
REMARK    2  A    between atoms: O_2  and  C_3
REMARK    3  A    between atoms: C_3  and  C_5
REMARK    4  A    between atoms: C_8  and  C_9
REMARK    5  A    between atoms: C_9  and  N_10
REMARK    6  A    between atoms: N_10  and  C_11
REMARK    7  A    between atoms: N_10  and  C_14
REMARK    8  A    between atoms: C_11  and  C_12
REMARK    9  A    between atoms: C_11  and  C_13
REMARK   10  A    between atoms: C_14  and  C_15
REMARK   11  A    between atoms: C_14  and  C_16
REMARK                            x       y       z     vdW  Elec       q    Type
REMARK                         _______ _______ _______ _____ _____    ______ ____
ROOT
ATOM      1  C   UNL     1       5.792   5.427  15.991  0.00  0.00    +0.000 A 
ATOM      2  C   UNL     1       5.204   6.676  15.950  0.00  0.00    +0.000 A 
ATOM      3  C   UNL     1       4.427   6.763  17.076  0.00  0.00    +0.000 A 
ATOM      4  C   UNL     1       4.601   5.569  17.750  0.00  0.00    +0.000 A 
ATOM      5  O   UNL     1       5.412   4.780  17.071  0.00  0.00    +0.000 OA
ENDROOT
BRANCH   1   6
ATOM      6  C   UNL     1       6.708   4.886  14.971  0.00  0.00    +0.000 C 
ATOM      7  O   UNL     1       7.725   5.502  14.687  0.00  0.00    +0.000 OA
BRANCH   6   9
ATOM      8  C   UNL     1       6.152   3.655  12.981  0.00  0.00    +0.000 C 
ATOM      9  O   UNL     1       6.402   3.729  14.336  0.00  0.00    +0.000 OA
ENDBRANCH   6   9
ENDBRANCH   1   6
BRANCH   4  10
ATOM     10  C   UNL     1       3.946   5.237  19.055  0.00  0.00    +0.000 C 
BRANCH  10  11
ATOM     11  N   UNL     1       3.201   3.940  19.102  0.00  0.00    +0.000 NA
BRANCH  11  12
ATOM     12  C   UNL     1       4.085   2.707  19.166  0.00  0.00    +0.000 C 
ATOM     13  C   UNL     1       4.263   2.178  20.613  0.00  0.00    +0.000 C 
ATOM     14  C   UNL     1       3.546   1.492  18.374  0.00  0.00    +0.000 C 
ENDBRANCH  11  12
BRANCH  11  15
ATOM     15  C   UNL     1       2.178   3.971  20.217  0.00  0.00    +0.000 C 
ATOM     16  C   UNL     1       1.864   5.397  20.730  0.00  0.00    +0.000 C 
ATOM     17  C   UNL     1       0.857   3.245  19.878  0.00  0.00    +0.000 C 
ENDBRANCH  11  15
ENDBRANCH  10  11
ENDBRANCH   4  10
TORSDOF 6
ENDMDL
MODEL 8
REMARK VINA RESULT:      -6.0      1.527      2.514
REMARK  Name = 
REMARK  11 active torsions:
REMARK  status: ('A' for Active; 'I' for Inactive)
REMARK    1  A    between atoms: C_1  and  O_2
REMARK    2  A    between atoms: O_2  and  C_3
REMARK    3  A    between atoms: C_3  and  C_5
REMARK    4  A    between atoms: C_8  and  C_9
REMARK    5  A    between atoms: C_9  and  N_10
REMARK    6  A    between atoms: N_10  and  C_11
REMARK    7  A    between atoms: N_10  and  C_14
REMARK    8  A    between atoms: C_11  and  C_12
REMARK    9  A    between atoms: C_11  and  C_13
REMARK   10  A    between atoms: C_14  and  C_15
REMARK   11  A    between atoms: C_14  and  C_16
REMARK                            x       y       z     vdW  Elec       q    Type
REMARK                         _______ _______ _______ _____ _____    ______ ____
ROOT
ATOM      1  C   UNL     1       5.320   5.277  15.979  0.00  0.00    +0.000 A 
ATOM      2  C   UNL     1       5.272   6.538  16.538  0.00  0.00    +0.000 A 
ATOM      3  C   UNL     1       4.259   6.502  17.462  0.00  0.00    +0.000 A 
ATOM      4  C   UNL     1       3.760   5.213  17.427  0.00  0.00    +0.000 A 
ATOM      5  O   UNL     1       4.403   4.503  16.519  0.00  0.00    +0.000 OA
ENDROOT
BRANCH   1   6
ATOM      6  C   UNL     1       6.255   4.852  14.923  0.00  0.00    +0.000 C 
ATOM      7  O   UNL     1       7.457   4.853  15.145  0.00  0.00    +0.000 OA
BRANCH   6   9
ATOM      8  C   UNL     1       6.399   3.559  12.900  0.00  0.00    +0.000 C 
ATOM      9  O   UNL     1       5.779   4.491  13.705  0.00  0.00    +0.000 OA
ENDBRANCH   6   9
ENDBRANCH   1   6
BRANCH   4  10
ATOM     10  C   UNL     1       2.645   4.720  18.295  0.00  0.00    +0.000 C 
BRANCH  10  11
ATOM     11  N   UNL     1       3.047   3.846  19.442  0.00  0.00    +0.000 NA
BRANCH  11  12
ATOM     12  C   UNL     1       2.674   4.389  20.810  0.00  0.00    +0.000 C 
ATOM     13  C   UNL     1       1.581   5.486  20.736  0.00  0.00    +0.000 C 
ATOM     14  C   UNL     1       2.096   3.332  21.782  0.00  0.00    +0.000 C 
ENDBRANCH  11  12
BRANCH  11  15
ATOM     15  C   UNL     1       2.536   2.438  19.225  0.00  0.00    +0.000 C 
ATOM     16  C   UNL     1       1.129   2.382  18.583  0.00  0.00    +0.000 C 
ATOM     17  C   UNL     1       3.501   1.535  18.426  0.00  0.00    +0.000 C 
ENDBRANCH  11  15
ENDBRANCH  10  11
ENDBRANCH   4  10
TORSDOF 6
ENDMDL
MODEL 9
REMARK VINA RESULT:      -6.0      1.564      2.861
REMARK  Name = 
REMARK  11 active torsions:
REMARK  status: ('A' for Active; 'I' for Inactive)
REMARK    1  A    between atoms: C_1  and  O_2
REMARK    2  A    between atoms: O_2  and  C_3
REMARK    3  A    between atoms: C_3  and  C_5
REMARK    4  A    between atoms: C_8  and  C_9
REMARK    5  A    between atoms: C_9  and  N_10
REMARK    6  A    between atoms: N_10  and  C_11
REMARK    7  A    between atoms: N_10  and  C_14
REMARK    8  A    between atoms: C_11  and  C_12
REMARK    9  A    between atoms: C_11  and  C_13
REMARK   10  A    between atoms: C_14  and  C_15
REMARK   11  A    between atoms: C_14  and  C_16
REMARK                            x       y       z     vdW  Elec       q    Type
REMARK                         _______ _______ _______ _____ _____    ______ ____
ROOT
ATOM      1  C   UNL     1       5.619   5.498  16.407  0.00  0.00    +0.000 A 
ATOM      2  C   UNL     1       5.258   6.766  16.816  0.00  0.00    +0.000 A 
ATOM      3  C   UNL     1       4.031   6.634  17.412  0.00  0.00    +0.000 A 
ATOM      4  C   UNL     1       3.722   5.288  17.349  0.00  0.00    +0.000 A 
ATOM      5  O   UNL     1       4.684   4.631  16.729  0.00  0.00    +0.000 OA
ENDROOT
BRANCH   1   6
ATOM      6  C   UNL     1       6.867   5.157  15.702  0.00  0.00    +0.000 C 
ATOM      7  O   UNL     1       6.949   5.339  14.496  0.00  0.00    +0.000 OA
BRANCH   6   9
ATOM      8  C   UNL     1       7.904   4.467  17.760  0.00  0.00    +0.000 C 
ATOM      9  O   UNL     1       7.904   4.616  16.389  0.00  0.00    +0.000 OA
ENDBRANCH   6   9
ENDBRANCH   1   6
BRANCH   4  10
ATOM     10  C   UNL     1       2.468   4.687  17.904  0.00  0.00    +0.000 C 
BRANCH  10  11
ATOM     11  N   UNL     1       2.589   4.050  19.253  0.00  0.00    +0.000 NA
BRANCH  11  12
ATOM     12  C   UNL     1       1.425   4.325  20.188  0.00  0.00    +0.000 C 
ATOM     13  C   UNL     1       1.347   3.306  21.354  0.00  0.00    +0.000 C 
ATOM     14  C   UNL     1       1.476   5.706  20.883  0.00  0.00    +0.000 C 
ENDBRANCH  11  12
BRANCH  11  15
ATOM     15  C   UNL     1       2.868   2.569  19.104  0.00  0.00    +0.000 C 
ATOM     16  C   UNL     1       2.494   2.007  17.711  0.00  0.00    +0.000 C 
ATOM     17  C   UNL     1       4.317   2.164  19.449  0.00  0.00    +0.000 C 
ENDBRANCH  11  15
ENDBRANCH  10  11
ENDBRANCH   4  10
TORSDOF 6
ENDMDL
