MODEL 1
REMARK VINA RESULT:      -7.1      0.000      0.000
REMARK  Name = 
REMARK  1 active torsions:
REMARK  status: ('A' for Active; 'I' for Inactive)
REMARK    1  A    between atoms: N_9  and  C_10
REMARK                            x       y       z     vdW  Elec       q    Type
REMARK                         _______ _______ _______ _____ _____    ______ ____
ROOT
ATOM      1  O   UNL     1       5.117   2.621  19.854  0.00  0.00    +0.000 OA
ATOM      2  C   UNL     1       4.156   3.330  19.607  0.00  0.00    +0.000 C 
ATOM      3  C   UNL     1       2.911   3.293  20.390  0.00  0.00    +0.000 C 
ATOM      4 CL   UNL     1       2.695   2.289  21.736  0.00  0.00    +0.000 Cl
ATOM      5  C   UNL     1       2.073   4.179  19.876  0.00  0.00    +0.000 C 
ATOM      6 CL   UNL     1       0.510   4.580  20.386  0.00  0.00    +0.000 Cl
ATOM      7  C   UNL     1       2.737   4.825  18.734  0.00  0.00    +0.000 C 
ATOM      8  O   UNL     1       2.179   5.636  18.013  0.00  0.00    +0.000 OA
ATOM      9  N   UNL     1       4.005   4.305  18.650  0.00  0.00    +0.000 N 
ENDROOT
BRANCH   9  10
ATOM     10  C   UNL     1       5.015   4.731  17.735  0.00  0.00    +0.000 A 
ATOM     11  C   UNL     1       5.847   5.828  18.013  0.00  0.00    +0.000 A 
ATOM     12  C   UNL     1       6.802   6.264  17.087  0.00  0.00    +0.000 A 
ATOM     13 CL   UNL     1       7.811   7.605  17.471  0.00  0.00    +0.000 Cl
ATOM     14  C   UNL     1       6.944   5.631  15.860  0.00  0.00    +0.000 A 
ATOM     15  C   UNL     1       6.134   4.543  15.572  0.00  0.00    +0.000 A 
ATOM     16 CL   UNL     1       6.275   3.760  14.046  0.00  0.00    +0.000 Cl
ATOM     17  C   UNL     1       5.189   4.088  16.497  0.00  0.00    +0.000 A 
ENDBRANCH   9  10
TORSDOF 1
ENDMDL
MODEL 2
REMARK VINA RESULT:      -7.1      0.091      2.180
REMARK  Name = 
REMARK  1 active torsions:
REMARK  status: ('A' for Active; 'I' for Inactive)
REMARK    1  A    between atoms: N_9  and  C_10
REMARK                            x       y       z     vdW  Elec       q    Type
REMARK                         _______ _______ _______ _____ _____    ______ ____
ROOT
ATOM      1  O   UNL     1       5.133   2.680  19.788  0.00  0.00    +0.000 OA
ATOM      2  C   UNL     1       4.141   3.351  19.554  0.00  0.00    +0.000 C 
ATOM      3  C   UNL     1       2.915   3.275  20.362  0.00  0.00    +0.000 C 
ATOM      4 CL   UNL     1       2.763   2.278  21.721  0.00  0.00    +0.000 Cl
ATOM      5  C   UNL     1       2.035   4.124  19.857  0.00  0.00    +0.000 C 
ATOM      6 CL   UNL     1       0.468   4.472  20.394  0.00  0.00    +0.000 Cl
ATOM      7  C   UNL     1       2.651   4.783  18.696  0.00  0.00    +0.000 C 
ATOM      8  O   UNL     1       2.049   5.566  17.979  0.00  0.00    +0.000 OA
ATOM      9  N   UNL     1       3.935   4.310  18.591  0.00  0.00    +0.000 N 
ENDROOT
BRANCH   9  10
ATOM     10  C   UNL     1       4.911   4.763  17.652  0.00  0.00    +0.000 A 
ATOM     11  C   UNL     1       5.100   4.120  16.417  0.00  0.00    +0.000 A 
ATOM     12  C   UNL     1       6.092   4.545  15.526  0.00  0.00    +0.000 A 
ATOM     13 CL   UNL     1       6.284   3.737  14.017  0.00  0.00    +0.000 Cl
ATOM     14  C   UNL     1       6.925   5.609  15.842  0.00  0.00    +0.000 A 
ATOM     15  C   UNL     1       6.747   6.258  17.055  0.00  0.00    +0.000 A 
ATOM     16 CL   UNL     1       7.788   7.562  17.480  0.00  0.00    +0.000 Cl
ATOM     17  C   UNL     1       5.748   5.852  17.946  0.00  0.00    +0.000 A 
ENDBRANCH   9  10
TORSDOF 1
ENDMDL
MODEL 3
REMARK VINA RESULT:      -7.0      1.043      1.043
REMARK  Name = 
REMARK  1 active torsions:
REMARK  status: ('A' for Active; 'I' for Inactive)
REMARK    1  A    between atoms: N_9  and  C_10
REMARK                            x       y       z     vdW  Elec       q    Type
REMARK                         _______ _______ _______ _____ _____    ______ ____
ROOT
ATOM      1  O   UNL     1       5.284   3.196  20.101  0.00  0.00    +0.000 OA
ATOM      2  C   UNL     1       4.245   3.228  19.463  0.00  0.00    +0.000 C 
ATOM      3  C   UNL     1       2.948   2.816  20.023  0.00  0.00    +0.000 C 
ATOM      4 CL   UNL     1       2.757   2.288  21.620  0.00  0.00    +0.000 Cl
ATOM      5  C   UNL     1       2.026   2.974  19.088  0.00  0.00    +0.000 C 
ATOM      6 CL   UNL     1       0.361   2.681  19.180  0.00  0.00    +0.000 Cl
ATOM      7  C   UNL     1       2.685   3.491  17.879  0.00  0.00    +0.000 C 
ATOM      8  O   UNL     1       2.097   3.665  16.824  0.00  0.00    +0.000 OA
ATOM      9  N   UNL     1       4.012   3.667  18.182  0.00  0.00    +0.000 N 
ENDROOT
BRANCH   9  10
ATOM     10  C   UNL     1       4.990   4.242  17.314  0.00  0.00    +0.000 A 
ATOM     11  C   UNL     1       5.752   5.358  17.698  0.00  0.00    +0.000 A 
ATOM     12  C   UNL     1       6.673   5.941  16.820  0.00  0.00    +0.000 A 
ATOM     13 CL   UNL     1       7.597   7.301  17.333  0.00  0.00    +0.000 Cl
ATOM     14  C   UNL     1       6.850   5.440  15.538  0.00  0.00    +0.000 A 
ATOM     15  C   UNL     1       6.109   4.335  15.145  0.00  0.00    +0.000 A 
ATOM     16 CL   UNL     1       6.293   3.714  13.550  0.00  0.00    +0.000 Cl
ATOM     17  C   UNL     1       5.199   3.734  16.020  0.00  0.00    +0.000 A 
ENDBRANCH   9  10
TORSDOF 1
ENDMDL
MODEL 4
REMARK VINA RESULT:      -6.9      0.183      2.167
REMARK  Name = 
REMARK  1 active torsions:
REMARK  status: ('A' for Active; 'I' for Inactive)
REMARK    1  A    between atoms: N_9  and  C_10
REMARK                            x       y       z     vdW  Elec       q    Type
REMARK                         _______ _______ _______ _____ _____    ______ ____
ROOT
ATOM      1  O   UNL     1       2.324   5.933  18.330  0.00  0.00    +0.000 OA
ATOM      2  C   UNL     1       2.835   5.003  18.932  0.00  0.00    +0.000 C 
ATOM      3  C   UNL     1       2.124   4.230  19.962  0.00  0.00    +0.000 C 
ATOM      4 CL   UNL     1       0.514   4.524  20.393  0.00  0.00    +0.000 Cl
ATOM      5  C   UNL     1       2.945   3.296  20.416  0.00  0.00    +0.000 C 
ATOM      6 CL   UNL     1       2.655   2.109  21.587  0.00  0.00    +0.000 Cl
ATOM      7  C   UNL     1       4.224   3.428  19.704  0.00  0.00    +0.000 C 
ATOM      8  O   UNL     1       5.203   2.748  19.965  0.00  0.00    +0.000 OA
ATOM      9  N   UNL     1       4.081   4.443  18.791  0.00  0.00    +0.000 N 
ENDROOT
BRANCH   9  10
ATOM     10  C   UNL     1       5.061   4.834  17.828  0.00  0.00    +0.000 A 
ATOM     11  C   UNL     1       5.906   5.936  18.042  0.00  0.00    +0.000 A 
ATOM     12  C   UNL     1       6.830   6.338  17.070  0.00  0.00    +0.000 A 
ATOM     13 CL   UNL     1       7.855   7.687  17.375  0.00  0.00    +0.000 Cl
ATOM     14  C   UNL     1       6.928   5.665  15.861  0.00  0.00    +0.000 A 
ATOM     15  C   UNL     1       6.105   4.571  15.636  0.00  0.00    +0.000 A 
ATOM     16 CL   UNL     1       6.192   3.739  14.132  0.00  0.00    +0.000 Cl
ATOM     17  C   UNL     1       5.191   4.151  16.607  0.00  0.00    +0.000 A 
ENDBRANCH   9  10
TORSDOF 1
ENDMDL
MODEL 5
REMARK VINA RESULT:      -6.8      0.253      3.072
REMARK  Name = 
REMARK  1 active torsions:
REMARK  status: ('A' for Active; 'I' for Inactive)
REMARK    1  A    between atoms: N_9  and  C_10
REMARK                            x       y       z     vdW  Elec       q    Type
REMARK                         _______ _______ _______ _____ _____    ______ ____
ROOT
ATOM      1  O   UNL     1       1.991   5.483  17.957  0.00  0.00    +0.000 OA
ATOM      2  C   UNL     1       2.616   4.708  18.662  0.00  0.00    +0.000 C 
ATOM      3  C   UNL     1       1.994   3.936  19.749  0.00  0.00    +0.000 C 
ATOM      4 CL   UNL     1       0.343   4.016  20.112  0.00  0.00    +0.000 Cl
ATOM      5  C   UNL     1       2.931   3.191  20.313  0.00  0.00    +0.000 C 
ATOM      6 CL   UNL     1       2.783   2.092  21.592  0.00  0.00    +0.000 Cl
ATOM      7  C   UNL     1       4.201   3.451  19.620  0.00  0.00    +0.000 C 
ATOM      8  O   UNL     1       5.262   2.961  19.970  0.00  0.00    +0.000 OA
ATOM      9  N   UNL     1       3.938   4.338  18.605  0.00  0.00    +0.000 N 
ENDROOT
BRANCH   9  10
ATOM     10  C   UNL     1       4.882   4.783  17.630  0.00  0.00    +0.000 A 
ATOM     11  C   UNL     1       5.031   4.127  16.396  0.00  0.00    +0.000 A 
ATOM     12  C   UNL     1       5.992   4.544  15.468  0.00  0.00    +0.000 A 
ATOM     13 CL   UNL     1       6.135   3.721  13.962  0.00  0.00    +0.000 Cl
ATOM     14  C   UNL     1       6.835   5.611  15.746  0.00  0.00    +0.000 A 
ATOM     15  C   UNL     1       6.697   6.272  16.958  0.00  0.00    +0.000 A 
ATOM     16 CL   UNL     1       7.750   7.580  17.335  0.00  0.00    +0.000 Cl
ATOM     17  C   UNL     1       5.728   5.875  17.885  0.00  0.00    +0.000 A 
ENDBRANCH   9  10
TORSDOF 1
ENDMDL
MODEL 6
REMARK VINA RESULT:      -6.6      1.189      2.201
REMARK  Name = 
REMARK  1 active torsions:
REMARK  status: ('A' for Active; 'I' for Inactive)
REMARK    1  A    between atoms: N_9  and  C_10
REMARK                            x       y       z     vdW  Elec       q    Type
REMARK                         _______ _______ _______ _____ _____    ______ ____
ROOT
ATOM      1  O   UNL     1       2.140   3.621  16.703  0.00  0.00    +0.000 OA
ATOM      2  C   UNL     1       2.723   3.450  17.761  0.00  0.00    +0.000 C 
ATOM      3  C   UNL     1       2.094   2.812  18.928  0.00  0.00    +0.000 C 
ATOM      4 CL   UNL     1       0.510   2.218  18.915  0.00  0.00    +0.000 Cl
ATOM      5  C   UNL     1       2.985   2.771  19.905  0.00  0.00    +0.000 C 
ATOM      6 CL   UNL     1       2.821   2.129  21.463  0.00  0.00    +0.000 Cl
ATOM      7  C   UNL     1       4.228   3.385  19.416  0.00  0.00    +0.000 C 
ATOM      8  O   UNL     1       5.208   3.558  20.123  0.00  0.00    +0.000 OA
ATOM      9  N   UNL     1       4.024   3.732  18.104  0.00  0.00    +0.000 N 
ENDROOT
BRANCH   9  10
ATOM     10  C   UNL     1       5.013   4.272  17.226  0.00  0.00    +0.000 A 
ATOM     11  C   UNL     1       5.787   5.388  17.586  0.00  0.00    +0.000 A 
ATOM     12  C   UNL     1       6.719   5.937  16.699  0.00  0.00    +0.000 A 
ATOM     13 CL   UNL     1       7.657   7.298  17.182  0.00  0.00    +0.000 Cl
ATOM     14  C   UNL     1       6.897   5.401  15.432  0.00  0.00    +0.000 A 
ATOM     15  C   UNL     1       6.145   4.295  15.062  0.00  0.00    +0.000 A 
ATOM     16 CL   UNL     1       6.330   3.631  13.485  0.00  0.00    +0.000 Cl
ATOM     17  C   UNL     1       5.222   3.728  15.948  0.00  0.00    +0.000 A 
ENDBRANCH   9  10
TORSDOF 1
ENDMDL
MODEL 7
REMARK VINA RESULT:      -6.2      3.432      4.620
REMARK  Name = 
REMARK  1 active torsions:
REMARK  status: ('A' for Active; 'I' for Inactive)
REMARK    1  A    between atoms: N_9  and  C_10
REMARK                            x       y       z     vdW  Elec       q    Type
REMARK                         _______ _______ _______ _____ _____    ______ ____
ROOT
ATOM      1  O   UNL     1       1.844   6.362  20.978  0.00  0.00    +0.000 OA
ATOM      2  C   UNL     1       1.798   7.285  20.181  0.00  0.00    +0.000 C 
ATOM      3  C   UNL     1       1.241   8.604  20.518  0.00  0.00    +0.000 C 
ATOM      4 CL   UNL     1       0.640   8.991  22.052  0.00  0.00    +0.000 Cl
ATOM      5  C   UNL     1       1.341   9.379  19.449  0.00  0.00    +0.000 C 
ATOM      6 CL   UNL     1       0.883  10.998  19.267  0.00  0.00    +0.000 Cl
ATOM      7  C   UNL     1       1.962   8.593  18.373  0.00  0.00    +0.000 C 
ATOM      8  O   UNL     1       2.115   9.022  17.241  0.00  0.00    +0.000 OA
ATOM      9  N   UNL     1       2.257   7.355  18.888  0.00  0.00    +0.000 N 
ENDROOT
BRANCH   9  10
ATOM     10  C   UNL     1       2.955   6.317  18.200  0.00  0.00    +0.000 A 
ATOM     11  C   UNL     1       2.435   5.015  18.106  0.00  0.00    +0.000 A 
ATOM     12  C   UNL     1       3.152   3.995  17.469  0.00  0.00    +0.000 A 
ATOM     13 CL   UNL     1       2.474   2.415  17.365  0.00  0.00    +0.000 Cl
ATOM     14  C   UNL     1       4.403   4.239  16.922  0.00  0.00    +0.000 A 
ATOM     15  C   UNL     1       4.929   5.521  17.002  0.00  0.00    +0.000 A 
ATOM     16 CL   UNL     1       6.491   5.838  16.355  0.00  0.00    +0.000 Cl
ATOM     17  C   UNL     1       4.214   6.551  17.621  0.00  0.00    +0.000 A 
ENDBRANCH   9  10
TORSDOF 1
ENDMDL
MODEL 8
REMARK VINA RESULT:      -6.1      3.434      4.956
REMARK  Name = 
REMARK  1 active torsions:
REMARK  status: ('A' for Active; 'I' for Inactive)
REMARK    1  A    between atoms: N_9  and  C_10
REMARK                            x       y       z     vdW  Elec       q    Type
REMARK                         _______ _______ _______ _____ _____    ______ ____
ROOT
ATOM      1  O   UNL     1       2.272   9.081  17.195  0.00  0.00    +0.000 OA
ATOM      2  C   UNL     1       2.017   8.633  18.300  0.00  0.00    +0.000 C 
ATOM      3  C   UNL     1       1.249   9.380  19.309  0.00  0.00    +0.000 C 
ATOM      4 CL   UNL     1       0.612  10.923  19.029  0.00  0.00    +0.000 Cl
ATOM      5  C   UNL     1       1.140   8.623  20.388  0.00  0.00    +0.000 C 
ATOM      6 CL   UNL     1       0.345   8.961  21.844  0.00  0.00    +0.000 Cl
ATOM      7  C   UNL     1       1.836   7.354  20.128  0.00  0.00    +0.000 C 
ATOM      8  O   UNL     1       1.969   6.484  20.973  0.00  0.00    +0.000 OA
ATOM      9  N   UNL     1       2.303   7.402  18.838  0.00  0.00    +0.000 N 
ENDROOT
BRANCH   9  10
ATOM     10  C   UNL     1       2.957   6.331  18.155  0.00  0.00    +0.000 A 
ATOM     11  C   UNL     1       2.416   5.034  18.130  0.00  0.00    +0.000 A 
ATOM     12  C   UNL     1       3.090   3.983  17.497  0.00  0.00    +0.000 A 
ATOM     13 CL   UNL     1       2.389   2.411  17.478  0.00  0.00    +0.000 Cl
ATOM     14  C   UNL     1       4.319   4.191  16.886  0.00  0.00    +0.000 A 
ATOM     15  C   UNL     1       4.864   5.467  16.898  0.00  0.00    +0.000 A 
ATOM     16 CL   UNL     1       6.399   5.740  16.171  0.00  0.00    +0.000 Cl
ATOM     17  C   UNL     1       4.190   6.528  17.513  0.00  0.00    +0.000 A 
ENDBRANCH   9  10
TORSDOF 1
ENDMDL
MODEL 9
REMARK VINA RESULT:      -6.1      1.195      2.017
REMARK  Name = 
REMARK  1 active torsions:
REMARK  status: ('A' for Active; 'I' for Inactive)
REMARK    1  A    between atoms: N_9  and  C_10
REMARK                            x       y       z     vdW  Elec       q    Type
REMARK                         _______ _______ _______ _____ _____    ______ ____
ROOT
ATOM      1  O   UNL     1       3.182   6.298  19.224  0.00  0.00    +0.000 OA
ATOM      2  C   UNL     1       3.064   5.106  18.992  0.00  0.00    +0.000 C 
ATOM      3  C   UNL     1       1.989   4.283  19.566  0.00  0.00    +0.000 C 
ATOM      4 CL   UNL     1       0.784   4.908  20.576  0.00  0.00    +0.000 Cl
ATOM      5  C   UNL     1       2.135   3.045  19.120  0.00  0.00    +0.000 C 
ATOM      6 CL   UNL     1       1.175   1.686  19.432  0.00  0.00    +0.000 Cl
ATOM      7  C   UNL     1       3.314   3.012  18.243  0.00  0.00    +0.000 C 
ATOM      8  O   UNL     1       3.742   1.985  17.743  0.00  0.00    +0.000 OA
ATOM      9  N   UNL     1       3.804   4.293  18.168  0.00  0.00    +0.000 N 
ENDROOT
BRANCH   9  10
ATOM     10  C   UNL     1       4.890   4.717  17.343  0.00  0.00    +0.000 A 
ATOM     11  C   UNL     1       5.758   5.747  17.740  0.00  0.00    +0.000 A 
ATOM     12  C   UNL     1       6.790   6.185  16.902  0.00  0.00    +0.000 A 
ATOM     13 CL   UNL     1       7.840   7.444  17.430  0.00  0.00    +0.000 Cl
ATOM     14  C   UNL     1       6.977   5.621  15.648  0.00  0.00    +0.000 A 
ATOM     15  C   UNL     1       6.131   4.599  15.243  0.00  0.00    +0.000 A 
ATOM     16 CL   UNL     1       6.327   3.904  13.681  0.00  0.00    +0.000 Cl
ATOM     17  C   UNL     1       5.108   4.141  16.080  0.00  0.00    +0.000 A 
ENDBRANCH   9  10
TORSDOF 1
ENDMDL
