MODEL 1
REMARK VINA RESULT:      -6.6      0.000      0.000
REMARK  Name = 
REMARK  15 active torsions:
REMARK  status: ('A' for Active; 'I' for Inactive)
REMARK    1  A    between atoms: N_1  and  C_2
REMARK    2  A    between atoms: C_2  and  C_3
REMARK    3  A    between atoms: C_3  and  C_4
REMARK    4  A    between atoms: C_4  and  C_5
REMARK    5  A    between atoms: C_5  and  C_6
REMARK    6  A    between atoms: C_6  and  N_7
REMARK    7  A    between atoms: C_6  and  C_26
REMARK    8  A    between atoms: C_8  and  C_10
REMARK    9  A    between atoms: C_10  and  N_11
REMARK   10  A    between atoms: N_11  and  C_23
REMARK   11  A    between atoms: C_12  and  C_14
REMARK   12  A    between atoms: C_14  and  N_15
REMARK   13  A    between atoms: C_14  and  C_16
REMARK   14  A    between atoms: C_16  and  C_17
REMARK   15  A    between atoms: C_26  and  C_28
REMARK                            x       y       z     vdW  Elec       q    Type
REMARK                         _______ _______ _______ _____ _____    ______ ____
ROOT
ATOM      1  N   UNL     1       2.736   6.406  18.829  0.00  0.00    +0.000 N 
ATOM      2  C   UNL     1       2.123   6.998  19.912  0.00  0.00    +0.000 C 
ATOM      3  O   UNL     1       1.599   6.317  20.798  0.00  0.00    +0.000 OA
ATOM      4  H   UNL     1       3.406   6.987  18.334  0.00  0.00    +0.000 HD
ENDROOT
BRANCH   1   5
ATOM      5  C   UNL     1       2.983   4.952  18.898  0.00  0.00    +0.000 C 
BRANCH   5   6
ATOM      6  C   UNL     1       4.456   4.625  18.574  0.00  0.00    +0.000 C 
ATOM      7  O   UNL     1       5.143   3.965  19.358  0.00  0.00    +0.000 OA
BRANCH   6   8
ATOM      8  C   UNL     1       4.921   5.079  17.266  0.00  0.00    +0.000 A 
ATOM      9  N   UNL     1       4.883   6.339  16.876  0.00  0.00    +0.000 NA
ATOM     10  C   UNL     1       5.324   6.441  15.575  0.00  0.00    +0.000 A 
ATOM     11  C   UNL     1       5.732   5.261  14.993  0.00  0.00    +0.000 A 
ATOM     12  S   UNL     1       5.542   3.972  16.110  0.00  0.00    +0.000 S 
ENDBRANCH   6   8
ENDBRANCH   5   6
BRANCH   5  13
ATOM     13  C   UNL     1       2.014   4.184  17.966  0.00  0.00    +0.000 C 
BRANCH  13  14
ATOM     14  C   UNL     1       1.469   2.910  18.627  0.00  0.00    +0.000 C 
BRANCH  14  15
ATOM     15  C   UNL     1       0.811   3.184  19.986  0.00  0.00    +0.000 C 
BRANCH  15  16
ATOM     16  C   UNL     1       1.573   2.470  21.106  0.00  0.00    +0.000 C 
BRANCH  16  17
ATOM     17  N   UNL     1       2.227   3.424  21.994  0.00  0.00    +0.000 NA
ATOM     18  H   UNL     1       1.945   3.242  22.954  0.00  0.00    +0.000 HD
ATOM     19  H   UNL     1       1.911   4.371  21.773  0.00  0.00    +0.000 HD
ENDBRANCH  16  17
ENDBRANCH  15  16
ENDBRANCH  14  15
ENDBRANCH  13  14
ENDBRANCH   5  13
ENDBRANCH   1   5
BRANCH   2  20
ATOM     20  C   UNL     1       1.939   8.522  19.945  0.00  0.00    +0.000 C 
BRANCH  20  21
ATOM     21  N   UNL     1       0.694   9.301  19.995  0.00  0.00    +0.000 N 
ATOM     22  C   UNL     1       0.168   9.871  18.836  0.00  0.00    +0.000 C 
ATOM     23  O   UNL     1       0.570   9.552  17.709  0.00  0.00    +0.000 OA
BRANCH  21  24
ATOM     24  C   UNL     1       0.326   9.794  21.319  0.00  0.00    +0.000 C 
ATOM     25  C   UNL     1      -0.467   8.971  22.315  0.00  0.00    +0.000 C 
ATOM     26  C   UNL     1       0.970   9.255  22.581  0.00  0.00    +0.000 C 
ENDBRANCH  21  24
BRANCH  22  27
ATOM     27  C   UNL     1      -1.072  10.815  19.003  0.00  0.00    +0.000 C 
BRANCH  27  28
ATOM     28  N   UNL     1      -2.181  10.273  18.192  0.00  0.00    +0.000 NA
ATOM     29  H   UNL     1      -1.792   9.751  17.402  0.00  0.00    +0.000 HD
ATOM     30  H   UNL     1      -2.713  11.034  17.774  0.00  0.00    +0.000 HD
ENDBRANCH  27  28
BRANCH  27  31
ATOM     31  C   UNL     1      -0.745  12.285  18.670  0.00  0.00    +0.000 C 
BRANCH  31  32
ATOM     32  C   UNL     1      -0.210  13.132  19.863  0.00  0.00    +0.000 C 
ATOM     33  C   UNL     1       1.325  13.171  19.985  0.00  0.00    +0.000 C 
ATOM     34  C   UNL     1       1.986  13.967  18.862  0.00  0.00    +0.000 C 
ATOM     35  C   UNL     1       1.441  15.390  18.800  0.00  0.00    +0.000 C 
ATOM     36  C   UNL     1      -0.082  15.418  18.708  0.00  0.00    +0.000 C 
ATOM     37  C   UNL     1      -0.739  14.578  19.805  0.00  0.00    +0.000 C 
ENDBRANCH  31  32
ENDBRANCH  27  31
ENDBRANCH  22  27
ENDBRANCH  20  21
ENDBRANCH   2  20
TORSDOF 15
ENDMDL
MODEL 2
REMARK VINA RESULT:      -6.1      3.699      9.752
REMARK  Name = 
REMARK  15 active torsions:
REMARK  status: ('A' for Active; 'I' for Inactive)
REMARK    1  A    between atoms: N_1  and  C_2
REMARK    2  A    between atoms: C_2  and  C_3
REMARK    3  A    between atoms: C_3  and  C_4
REMARK    4  A    between atoms: C_4  and  C_5
REMARK    5  A    between atoms: C_5  and  C_6
REMARK    6  A    between atoms: C_6  and  N_7
REMARK    7  A    between atoms: C_6  and  C_26
REMARK    8  A    between atoms: C_8  and  C_10
REMARK    9  A    between atoms: C_10  and  N_11
REMARK   10  A    between atoms: N_11  and  C_23
REMARK   11  A    between atoms: C_12  and  C_14
REMARK   12  A    between atoms: C_14  and  N_15
REMARK   13  A    between atoms: C_14  and  C_16
REMARK   14  A    between atoms: C_16  and  C_17
REMARK   15  A    between atoms: C_26  and  C_28
REMARK                            x       y       z     vdW  Elec       q    Type
REMARK                         _______ _______ _______ _____ _____    ______ ____
ROOT
ATOM      1  N   UNL     1       0.147  12.260  20.013  0.00  0.00    +0.000 N 
ATOM      2  C   UNL     1       1.052  11.500  19.305  0.00  0.00    +0.000 C 
ATOM      3  O   UNL     1       2.046  12.014  18.785  0.00  0.00    +0.000 OA
ATOM      4  H   UNL     1      -0.441  11.749  20.665  0.00  0.00    +0.000 HD
ENDROOT
BRANCH   1   5
ATOM      5  C   UNL     1       0.539  13.642  20.356  0.00  0.00    +0.000 C 
BRANCH   5   6
ATOM      6  C   UNL     1       0.236  13.950  21.838  0.00  0.00    +0.000 C 
ATOM      7  O   UNL     1       0.796  14.887  22.415  0.00  0.00    +0.000 OA
BRANCH   6   8
ATOM      8  C   UNL     1      -0.799  13.120  22.447  0.00  0.00    +0.000 A 
ATOM      9  N   UNL     1      -0.583  11.896  22.891  0.00  0.00    +0.000 NA
ATOM     10  C   UNL     1      -1.762  11.347  23.345  0.00  0.00    +0.000 A 
ATOM     11  C   UNL     1      -2.864  12.171  23.279  0.00  0.00    +0.000 A 
ATOM     12  S   UNL     1      -2.412  13.685  22.609  0.00  0.00    +0.000 S 
ENDBRANCH   6   8
ENDBRANCH   5   6
BRANCH   5  13
ATOM     13  C   UNL     1      -0.145  14.660  19.413  0.00  0.00    +0.000 C 
BRANCH  13  14
ATOM     14  C   UNL     1       0.803  15.800  19.012  0.00  0.00    +0.000 C 
BRANCH  14  15
ATOM     15  C   UNL     1       0.064  16.995  18.394  0.00  0.00    +0.000 C 
BRANCH  15  16
ATOM     16  C   UNL     1       1.048  18.113  18.041  0.00  0.00    +0.000 C 
BRANCH  16  17
ATOM     17  N   UNL     1       2.215  17.591  17.341  0.00  0.00    +0.000 NA
ATOM     18  H   UNL     1       2.512  16.722  17.780  0.00  0.00    +0.000 HD
ATOM     19  H   UNL     1       2.995  18.245  17.437  0.00  0.00    +0.000 HD
ENDBRANCH  16  17
ENDBRANCH  15  16
ENDBRANCH  14  15
ENDBRANCH  13  14
ENDBRANCH   5  13
ENDBRANCH   1   5
BRANCH   2  20
ATOM     20  C   UNL     1       0.744  10.024  19.014  0.00  0.00    +0.000 C 
BRANCH  20  21
ATOM     21  N   UNL     1       1.572   8.839  19.275  0.00  0.00    +0.000 N 
ATOM     22  C   UNL     1       2.230   8.190  18.230  0.00  0.00    +0.000 C 
ATOM     23  O   UNL     1       2.350   8.707  17.112  0.00  0.00    +0.000 OA
BRANCH  21  24
ATOM     24  C   UNL     1       1.300   8.161  20.539  0.00  0.00    +0.000 C 
ATOM     25  C   UNL     1       1.479   8.828  21.889  0.00  0.00    +0.000 C 
ATOM     26  C   UNL     1       0.106   8.523  21.401  0.00  0.00    +0.000 C 
ENDBRANCH  21  24
BRANCH  22  27
ATOM     27  C   UNL     1       2.962   6.847  18.572  0.00  0.00    +0.000 C 
BRANCH  27  28
ATOM     28  N   UNL     1       4.276   6.849  17.898  0.00  0.00    +0.000 NA
ATOM     29  H   UNL     1       4.139   7.038  16.901  0.00  0.00    +0.000 HD
ATOM     30  H   UNL     1       4.692   5.921  17.939  0.00  0.00    +0.000 HD
ENDBRANCH  27  28
BRANCH  27  31
ATOM     31  C   UNL     1       2.111   5.607  18.228  0.00  0.00    +0.000 C 
BRANCH  31  32
ATOM     32  C   UNL     1       2.751   4.239  18.609  0.00  0.00    +0.000 C 
ATOM     33  C   UNL     1       3.274   4.155  20.056  0.00  0.00    +0.000 C 
ATOM     34  C   UNL     1       2.150   4.146  21.090  0.00  0.00    +0.000 C 
ATOM     35  C   UNL     1       1.173   3.004  20.832  0.00  0.00    +0.000 C 
ATOM     36  C   UNL     1       0.641   3.016  19.403  0.00  0.00    +0.000 C 
ATOM     37  C   UNL     1       1.769   3.076  18.370  0.00  0.00    +0.000 C 
ENDBRANCH  31  32
ENDBRANCH  27  31
ENDBRANCH  22  27
ENDBRANCH  20  21
ENDBRANCH   2  20
TORSDOF 15
ENDMDL
MODEL 3
REMARK VINA RESULT:      -6.0      2.412      4.773
REMARK  Name = 
REMARK  15 active torsions:
REMARK  status: ('A' for Active; 'I' for Inactive)
REMARK    1  A    between atoms: N_1  and  C_2
REMARK    2  A    between atoms: C_2  and  C_3
REMARK    3  A    between atoms: C_3  and  C_4
REMARK    4  A    between atoms: C_4  and  C_5
REMARK    5  A    between atoms: C_5  and  C_6
REMARK    6  A    between atoms: C_6  and  N_7
REMARK    7  A    between atoms: C_6  and  C_26
REMARK    8  A    between atoms: C_8  and  C_10
REMARK    9  A    between atoms: C_10  and  N_11
REMARK   10  A    between atoms: N_11  and  C_23
REMARK   11  A    between atoms: C_12  and  C_14
REMARK   12  A    between atoms: C_14  and  N_15
REMARK   13  A    between atoms: C_14  and  C_16
REMARK   14  A    between atoms: C_16  and  C_17
REMARK   15  A    between atoms: C_26  and  C_28
REMARK                            x       y       z     vdW  Elec       q    Type
REMARK                         _______ _______ _______ _____ _____    ______ ____
ROOT
ATOM      1  N   UNL     1       1.926   7.202  18.739  0.00  0.00    +0.000 N 
ATOM      2  C   UNL     1       1.894   8.388  18.038  0.00  0.00    +0.000 C 
ATOM      3  O   UNL     1       2.674   8.598  17.105  0.00  0.00    +0.000 OA
ATOM      4  H   UNL     1       1.078   6.972  19.249  0.00  0.00    +0.000 HD
ENDROOT
BRANCH   1   5
ATOM      5  C   UNL     1       2.727   6.098  18.172  0.00  0.00    +0.000 C 
BRANCH   5   6
ATOM      6  C   UNL     1       1.964   4.760  18.263  0.00  0.00    +0.000 C 
ATOM      7  O   UNL     1       1.319   4.334  17.301  0.00  0.00    +0.000 OA
BRANCH   6   8
ATOM      8  C   UNL     1       2.138   4.028  19.515  0.00  0.00    +0.000 A 
ATOM      9  N   UNL     1       1.633   4.424  20.667  0.00  0.00    +0.000 NA
ATOM     10  C   UNL     1       2.024   3.567  21.672  0.00  0.00    +0.000 A 
ATOM     11  C   UNL     1       2.796   2.498  21.271  0.00  0.00    +0.000 A 
ATOM     12  S   UNL     1       3.055   2.578  19.577  0.00  0.00    +0.000 S 
ENDBRANCH   6   8
ENDBRANCH   5   6
BRANCH   5  13
ATOM     13  C   UNL     1       4.110   6.011  18.862  0.00  0.00    +0.000 C 
BRANCH  13  14
ATOM     14  C   UNL     1       5.263   6.092  17.851  0.00  0.00    +0.000 C 
BRANCH  14  15
ATOM     15  C   UNL     1       5.352   4.848  16.955  0.00  0.00    +0.000 C 
BRANCH  15  16
ATOM     16  C   UNL     1       5.447   5.252  15.481  0.00  0.00    +0.000 C 
BRANCH  16  17
ATOM     17  N   UNL     1       5.272   6.689  15.312  0.00  0.00    +0.000 NA
ATOM     18  H   UNL     1       4.305   6.885  15.065  0.00  0.00    +0.000 HD
ATOM     19  H   UNL     1       5.843   7.015  14.529  0.00  0.00    +0.000 HD
ENDBRANCH  16  17
ENDBRANCH  15  16
ENDBRANCH  14  15
ENDBRANCH  13  14
ENDBRANCH   5  13
ENDBRANCH   1   5
BRANCH   2  20
ATOM     20  C   UNL     1       0.993   9.534  18.520  0.00  0.00    +0.000 C 
BRANCH  20  21
ATOM     21  N   UNL     1       0.987  10.220  19.820  0.00  0.00    +0.000 N 
ATOM     22  C   UNL     1       0.347   9.649  20.919  0.00  0.00    +0.000 C 
ATOM     23  O   UNL     1      -0.017   8.466  20.922  0.00  0.00    +0.000 OA
BRANCH  21  24
ATOM     24  C   UNL     1       1.272  11.651  19.764  0.00  0.00    +0.000 C 
ATOM     25  C   UNL     1       2.066  12.292  18.643  0.00  0.00    +0.000 C 
ATOM     26  C   UNL     1       0.606  12.561  18.752  0.00  0.00    +0.000 C 
ENDBRANCH  21  24
BRANCH  22  27
ATOM     27  C   UNL     1       0.253  10.516  22.221  0.00  0.00    +0.000 C 
BRANCH  27  28
ATOM     28  N   UNL     1       0.729   9.702  23.358  0.00  0.00    +0.000 NA
ATOM     29  H   UNL     1      -0.020   9.627  24.051  0.00  0.00    +0.000 HD
ATOM     30  H   UNL     1       1.489  10.182  23.837  0.00  0.00    +0.000 HD
ENDBRANCH  27  28
BRANCH  27  31
ATOM     31  C   UNL     1      -1.160  11.094  22.445  0.00  0.00    +0.000 C 
BRANCH  31  32
ATOM     32  C   UNL     1      -1.297  12.626  22.195  0.00  0.00    +0.000 C 
ATOM     33  C   UNL     1      -2.228  13.005  21.028  0.00  0.00    +0.000 C 
ATOM     34  C   UNL     1      -3.698  12.718  21.329  0.00  0.00    +0.000 C 
ATOM     35  C   UNL     1      -4.151  13.433  22.598  0.00  0.00    +0.000 C 
ATOM     36  C   UNL     1      -3.247  13.119  23.786  0.00  0.00    +0.000 C 
ATOM     37  C   UNL     1      -1.770  13.360  23.464  0.00  0.00    +0.000 C 
ENDBRANCH  31  32
ENDBRANCH  27  31
ENDBRANCH  22  27
ENDBRANCH  20  21
ENDBRANCH   2  20
TORSDOF 15
ENDMDL
MODEL 4
REMARK VINA RESULT:      -5.9      1.529      1.891
REMARK  Name = 
REMARK  15 active torsions:
REMARK  status: ('A' for Active; 'I' for Inactive)
REMARK    1  A    between atoms: N_1  and  C_2
REMARK    2  A    between atoms: C_2  and  C_3
REMARK    3  A    between atoms: C_3  and  C_4
REMARK    4  A    between atoms: C_4  and  C_5
REMARK    5  A    between atoms: C_5  and  C_6
REMARK    6  A    between atoms: C_6  and  N_7
REMARK    7  A    between atoms: C_6  and  C_26
REMARK    8  A    between atoms: C_8  and  C_10
REMARK    9  A    between atoms: C_10  and  N_11
REMARK   10  A    between atoms: N_11  and  C_23
REMARK   11  A    between atoms: C_12  and  C_14
REMARK   12  A    between atoms: C_14  and  N_15
REMARK   13  A    between atoms: C_14  and  C_16
REMARK   14  A    between atoms: C_16  and  C_17
REMARK   15  A    between atoms: C_26  and  C_28
REMARK                            x       y       z     vdW  Elec       q    Type
REMARK                         _______ _______ _______ _____ _____    ______ ____
ROOT
ATOM      1  N   UNL     1       2.912   6.712  19.686  0.00  0.00    +0.000 N 
ATOM      2  C   UNL     1       1.909   6.775  20.628  0.00  0.00    +0.000 C 
ATOM      3  O   UNL     1       1.159   5.815  20.825  0.00  0.00    +0.000 OA
ATOM      4  H   UNL     1       3.667   7.382  19.803  0.00  0.00    +0.000 HD
ENDROOT
BRANCH   1   5
ATOM      5  C   UNL     1       3.233   5.386  19.120  0.00  0.00    +0.000 C 
BRANCH   5   6
ATOM      6  C   UNL     1       4.740   5.267  18.810  0.00  0.00    +0.000 C 
ATOM      7  O   UNL     1       5.571   5.229  19.723  0.00  0.00    +0.000 OA
BRANCH   6   8
ATOM      8  C   UNL     1       5.075   5.121  17.397  0.00  0.00    +0.000 A 
ATOM      9  N   UNL     1       5.304   3.957  16.818  0.00  0.00    +0.000 NA
ATOM     10  C   UNL     1       5.661   4.149  15.502  0.00  0.00    +0.000 A 
ATOM     11  C   UNL     1       5.665   5.459  15.074  0.00  0.00    +0.000 A 
ATOM     12  S   UNL     1       5.221   6.491  16.372  0.00  0.00    +0.000 S 
ENDBRANCH   6   8
ENDBRANCH   5   6
BRANCH   5  13
ATOM     13  C   UNL     1       2.372   5.099  17.866  0.00  0.00    +0.000 C 
BRANCH  13  14
ATOM     14  C   UNL     1       1.597   3.779  17.990  0.00  0.00    +0.000 C 
BRANCH  14  15
ATOM     15  C   UNL     1       2.037   2.946  19.201  0.00  0.00    +0.000 C 
BRANCH  15  16
ATOM     16  C   UNL     1       2.607   1.598  18.750  0.00  0.00    +0.000 C 
BRANCH  16  17
ATOM     17  N   UNL     1       3.908   1.759  18.114  0.00  0.00    +0.000 NA
ATOM     18  H   UNL     1       3.785   2.150  17.184  0.00  0.00    +0.000 HD
ATOM     19  H   UNL     1       4.345   0.843  17.987  0.00  0.00    +0.000 HD
ENDBRANCH  16  17
ENDBRANCH  15  16
ENDBRANCH  14  15
ENDBRANCH  13  14
ENDBRANCH   5  13
ENDBRANCH   1   5
BRANCH   2  20
ATOM     20  C   UNL     1       1.606   8.107  21.330  0.00  0.00    +0.000 C 
BRANCH  20  21
ATOM     21  N   UNL     1       0.892   9.282  20.811  0.00  0.00    +0.000 N 
ATOM     22  C   UNL     1       1.024   9.658  19.475  0.00  0.00    +0.000 C 
ATOM     23  O   UNL     1       1.528   8.906  18.630  0.00  0.00    +0.000 OA
BRANCH  21  24
ATOM     24  C   UNL     1       0.443  10.230  21.827  0.00  0.00    +0.000 C 
ATOM     25  C   UNL     1      -1.017  10.423  22.188  0.00  0.00    +0.000 C 
ATOM     26  C   UNL     1      -0.101   9.771  23.165  0.00  0.00    +0.000 C 
ENDBRANCH  21  24
BRANCH  22  27
ATOM     27  C   UNL     1       0.358  11.010  19.044  0.00  0.00    +0.000 C 
BRANCH  27  28
ATOM     28  N   UNL     1      -0.539  10.742  17.902  0.00  0.00    +0.000 NA
ATOM     29  H   UNL     1      -1.499  10.654  18.246  0.00  0.00    +0.000 HD
ATOM     30  H   UNL     1      -0.319   9.838  17.488  0.00  0.00    +0.000 HD
ENDBRANCH  27  28
BRANCH  27  31
ATOM     31  C   UNL     1       1.395  12.112  18.748  0.00  0.00    +0.000 C 
BRANCH  31  32
ATOM     32  C   UNL     1       0.859  13.571  18.854  0.00  0.00    +0.000 C 
ATOM     33  C   UNL     1       0.002  13.852  20.103  0.00  0.00    +0.000 C 
ATOM     34  C   UNL     1       0.819  13.844  21.393  0.00  0.00    +0.000 C 
ATOM     35  C   UNL     1       1.967  14.846  21.325  0.00  0.00    +0.000 C 
ATOM     36  C   UNL     1       2.838  14.638  20.090  0.00  0.00    +0.000 C 
ATOM     37  C   UNL     1       2.009  14.595  18.804  0.00  0.00    +0.000 C 
ENDBRANCH  31  32
ENDBRANCH  27  31
ENDBRANCH  22  27
ENDBRANCH  20  21
ENDBRANCH   2  20
TORSDOF 15
ENDMDL
MODEL 5
REMARK VINA RESULT:      -5.9      2.381      4.577
REMARK  Name = 
REMARK  15 active torsions:
REMARK  status: ('A' for Active; 'I' for Inactive)
REMARK    1  A    between atoms: N_1  and  C_2
REMARK    2  A    between atoms: C_2  and  C_3
REMARK    3  A    between atoms: C_3  and  C_4
REMARK    4  A    between atoms: C_4  and  C_5
REMARK    5  A    between atoms: C_5  and  C_6
REMARK    6  A    between atoms: C_6  and  N_7
REMARK    7  A    between atoms: C_6  and  C_26
REMARK    8  A    between atoms: C_8  and  C_10
REMARK    9  A    between atoms: C_10  and  N_11
REMARK   10  A    between atoms: N_11  and  C_23
REMARK   11  A    between atoms: C_12  and  C_14
REMARK   12  A    between atoms: C_14  and  N_15
REMARK   13  A    between atoms: C_14  and  C_16
REMARK   14  A    between atoms: C_16  and  C_17
REMARK   15  A    between atoms: C_26  and  C_28
REMARK                            x       y       z     vdW  Elec       q    Type
REMARK                         _______ _______ _______ _____ _____    ______ ____
ROOT
ATOM      1  N   UNL     1       2.392   6.712  18.570  0.00  0.00    +0.000 N 
ATOM      2  C   UNL     1       2.348   7.955  17.977  0.00  0.00    +0.000 C 
ATOM      3  O   UNL     1       3.259   8.340  17.240  0.00  0.00    +0.000 OA
ATOM      4  H   UNL     1       1.498   6.343  18.881  0.00  0.00    +0.000 HD
ENDROOT
BRANCH   1   5
ATOM      5  C   UNL     1       3.414   5.762  18.087  0.00  0.00    +0.000 C 
BRANCH   5   6
ATOM      6  C   UNL     1       2.872   4.317  18.090  0.00  0.00    +0.000 C 
ATOM      7  O   UNL     1       2.753   3.685  17.037  0.00  0.00    +0.000 OA
BRANCH   6   8
ATOM      8  C   UNL     1       2.602   3.757  19.411  0.00  0.00    +0.000 A 
ATOM      9  N   UNL     1       3.483   3.055  20.099  0.00  0.00    +0.000 NA
ATOM     10  C   UNL     1       2.916   2.607  21.271  0.00  0.00    +0.000 A 
ATOM     11  C   UNL     1       1.614   3.003  21.488  0.00  0.00    +0.000 A 
ATOM     12  S   UNL     1       1.075   3.959  20.168  0.00  0.00    +0.000 S 
ENDBRANCH   6   8
ENDBRANCH   5   6
BRANCH   5  13
ATOM     13  C   UNL     1       4.714   5.882  18.918  0.00  0.00    +0.000 C 
BRANCH  13  14
ATOM     14  C   UNL     1       5.946   6.112  18.030  0.00  0.00    +0.000 C 
BRANCH  14  15
ATOM     15  C   UNL     1       6.870   4.888  17.972  0.00  0.00    +0.000 C 
BRANCH  15  16
ATOM     16  C   UNL     1       7.000   4.379  16.534  0.00  0.00    +0.000 C 
BRANCH  16  17
ATOM     17  N   UNL     1       5.844   3.579  16.148  0.00  0.00    +0.000 NA
ATOM     18  H   UNL     1       5.868   3.410  15.146  0.00  0.00    +0.000 HD
ATOM     19  H   UNL     1       4.986   4.104  16.333  0.00  0.00    +0.000 HD
ENDBRANCH  16  17
ENDBRANCH  15  16
ENDBRANCH  14  15
ENDBRANCH  13  14
ENDBRANCH   5  13
ENDBRANCH   1   5
BRANCH   2  20
ATOM     20  C   UNL     1       1.239   8.944  18.362  0.00  0.00    +0.000 C 
BRANCH  20  21
ATOM     21  N   UNL     1       1.130   9.790  19.559  0.00  0.00    +0.000 N 
ATOM     22  C   UNL     1       0.817   9.228  20.796  0.00  0.00    +0.000 C 
ATOM     23  O   UNL     1       0.862   8.006  20.990  0.00  0.00    +0.000 OA
BRANCH  21  24
ATOM     24  C   UNL     1       0.925  11.210  19.295  0.00  0.00    +0.000 C 
ATOM     25  C   UNL     1       1.921  12.278  19.702  0.00  0.00    +0.000 C 
ATOM     26  C   UNL     1       1.740  11.958  18.259  0.00  0.00    +0.000 C 
ENDBRANCH  21  24
BRANCH  22  27
ATOM     27  C   UNL     1       0.566  10.216  21.986  0.00  0.00    +0.000 C 
BRANCH  27  28
ATOM     28  N   UNL     1       1.064   9.588  23.226  0.00  0.00    +0.000 NA
ATOM     29  H   UNL     1       0.335   9.642  23.943  0.00  0.00    +0.000 HD
ATOM     30  H   UNL     1       1.846  10.122  23.600  0.00  0.00    +0.000 HD
ENDBRANCH  27  28
BRANCH  27  31
ATOM     31  C   UNL     1      -0.909  10.658  22.086  0.00  0.00    +0.000 C 
BRANCH  31  32
ATOM     32  C   UNL     1      -1.158  11.948  22.924  0.00  0.00    +0.000 C 
ATOM     33  C   UNL     1      -0.588  13.237  22.302  0.00  0.00    +0.000 C 
ATOM     34  C   UNL     1      -1.337  13.668  21.043  0.00  0.00    +0.000 C 
ATOM     35  C   UNL     1      -2.825  13.849  21.322  0.00  0.00    +0.000 C 
ATOM     36  C   UNL     1      -3.444  12.612  21.966  0.00  0.00    +0.000 C 
ATOM     37  C   UNL     1      -2.660  12.155  23.199  0.00  0.00    +0.000 C 
ENDBRANCH  31  32
ENDBRANCH  27  31
ENDBRANCH  22  27
ENDBRANCH  20  21
ENDBRANCH   2  20
TORSDOF 15
ENDMDL
MODEL 6
REMARK VINA RESULT:      -5.9      1.787      3.799
REMARK  Name = 
REMARK  15 active torsions:
REMARK  status: ('A' for Active; 'I' for Inactive)
REMARK    1  A    between atoms: N_1  and  C_2
REMARK    2  A    between atoms: C_2  and  C_3
REMARK    3  A    between atoms: C_3  and  C_4
REMARK    4  A    between atoms: C_4  and  C_5
REMARK    5  A    between atoms: C_5  and  C_6
REMARK    6  A    between atoms: C_6  and  N_7
REMARK    7  A    between atoms: C_6  and  C_26
REMARK    8  A    between atoms: C_8  and  C_10
REMARK    9  A    between atoms: C_10  and  N_11
REMARK   10  A    between atoms: N_11  and  C_23
REMARK   11  A    between atoms: C_12  and  C_14
REMARK   12  A    between atoms: C_14  and  N_15
REMARK   13  A    between atoms: C_14  and  C_16
REMARK   14  A    between atoms: C_16  and  C_17
REMARK   15  A    between atoms: C_26  and  C_28
REMARK                            x       y       z     vdW  Elec       q    Type
REMARK                         _______ _______ _______ _____ _____    ______ ____
ROOT
ATOM      1  N   UNL     1       2.496   6.845  18.917  0.00  0.00    +0.000 N 
ATOM      2  C   UNL     1       2.214   8.106  18.438  0.00  0.00    +0.000 C 
ATOM      3  O   UNL     1       2.396   8.390  17.251  0.00  0.00    +0.000 OA
ATOM      4  H   UNL     1       2.031   6.592  19.785  0.00  0.00    +0.000 HD
ENDROOT
BRANCH   1   5
ATOM      5  C   UNL     1       2.759   5.783  17.926  0.00  0.00    +0.000 C 
BRANCH   5   6
ATOM      6  C   UNL     1       1.856   4.557  18.177  0.00  0.00    +0.000 C 
ATOM      7  O   UNL     1       1.112   4.129  17.289  0.00  0.00    +0.000 OA
BRANCH   6   8
ATOM      8  C   UNL     1       2.016   3.921  19.481  0.00  0.00    +0.000 A 
ATOM      9  N   UNL     1       1.794   4.539  20.625  0.00  0.00    +0.000 NA
ATOM     10  C   UNL     1       2.096   3.703  21.677  0.00  0.00    +0.000 A 
ATOM     11  C   UNL     1       2.512   2.437  21.327  0.00  0.00    +0.000 A 
ATOM     12  S   UNL     1       2.541   2.292  19.618  0.00  0.00    +0.000 S 
ENDBRANCH   6   8
ENDBRANCH   5   6
BRANCH   5  13
ATOM     13  C   UNL     1       4.257   5.391  17.924  0.00  0.00    +0.000 C 
BRANCH  13  14
ATOM     14  C   UNL     1       4.599   4.433  16.773  0.00  0.00    +0.000 C 
BRANCH  14  15
ATOM     15  C   UNL     1       5.319   5.135  15.613  0.00  0.00    +0.000 C 
BRANCH  15  16
ATOM     16  C   UNL     1       6.827   4.874  15.679  0.00  0.00    +0.000 C 
BRANCH  16  17
ATOM     17  N   UNL     1       7.560   6.086  16.020  0.00  0.00    +0.000 NA
ATOM     18  H   UNL     1       6.964   6.699  16.571  0.00  0.00    +0.000 HD
ATOM     19  H   UNL     1       7.793   6.600  15.167  0.00  0.00    +0.000 HD
ENDBRANCH  16  17
ENDBRANCH  15  16
ENDBRANCH  14  15
ENDBRANCH  13  14
ENDBRANCH   5  13
ENDBRANCH   1   5
BRANCH   2  20
ATOM     20  C   UNL     1       1.825   9.224  19.415  0.00  0.00    +0.000 C 
BRANCH  20  21
ATOM     21  N   UNL     1       0.489   9.744  19.739  0.00  0.00    +0.000 N 
ATOM     22  C   UNL     1      -0.228  10.486  18.801  0.00  0.00    +0.000 C 
ATOM     23  O   UNL     1       0.103  10.529  17.609  0.00  0.00    +0.000 OA
BRANCH  21  24
ATOM     24  C   UNL     1       0.187   9.824  21.165  0.00  0.00    +0.000 C 
ATOM     25  C   UNL     1      -0.418   8.674  21.946  0.00  0.00    +0.000 C 
ATOM     26  C   UNL     1       0.996   9.067  22.199  0.00  0.00    +0.000 C 
ENDBRANCH  21  24
BRANCH  22  27
ATOM     27  C   UNL     1      -1.571  11.135  19.281  0.00  0.00    +0.000 C 
BRANCH  27  28
ATOM     28  N   UNL     1      -2.656  10.667  18.395  0.00  0.00    +0.000 NA
ATOM     29  H   UNL     1      -2.244  10.226  17.568  0.00  0.00    +0.000 HD
ATOM     30  H   UNL     1      -3.185  11.461  18.038  0.00  0.00    +0.000 HD
ENDBRANCH  27  28
BRANCH  27  31
ATOM     31  C   UNL     1      -1.487  12.673  19.367  0.00  0.00    +0.000 C 
BRANCH  31  32
ATOM     32  C   UNL     1      -0.116  13.236  19.848  0.00  0.00    +0.000 C 
ATOM     33  C   UNL     1       0.508  14.290  18.913  0.00  0.00    +0.000 C 
ATOM     34  C   UNL     1      -0.261  15.608  18.913  0.00  0.00    +0.000 C 
ATOM     35  C   UNL     1      -0.377  16.179  20.322  0.00  0.00    +0.000 C 
ATOM     36  C   UNL     1      -0.964  15.169  21.304  0.00  0.00    +0.000 C 
ATOM     37  C   UNL     1      -0.221  13.832  21.264  0.00  0.00    +0.000 C 
ENDBRANCH  31  32
ENDBRANCH  27  31
ENDBRANCH  22  27
ENDBRANCH  20  21
ENDBRANCH   2  20
TORSDOF 15
ENDMDL
MODEL 7
REMARK VINA RESULT:      -5.9      2.186      3.043
REMARK  Name = 
REMARK  15 active torsions:
REMARK  status: ('A' for Active; 'I' for Inactive)
REMARK    1  A    between atoms: N_1  and  C_2
REMARK    2  A    between atoms: C_2  and  C_3
REMARK    3  A    between atoms: C_3  and  C_4
REMARK    4  A    between atoms: C_4  and  C_5
REMARK    5  A    between atoms: C_5  and  C_6
REMARK    6  A    between atoms: C_6  and  N_7
REMARK    7  A    between atoms: C_6  and  C_26
REMARK    8  A    between atoms: C_8  and  C_10
REMARK    9  A    between atoms: C_10  and  N_11
REMARK   10  A    between atoms: N_11  and  C_23
REMARK   11  A    between atoms: C_12  and  C_14
REMARK   12  A    between atoms: C_14  and  N_15
REMARK   13  A    between atoms: C_14  and  C_16
REMARK   14  A    between atoms: C_16  and  C_17
REMARK   15  A    between atoms: C_26  and  C_28
REMARK                            x       y       z     vdW  Elec       q    Type
REMARK                         _______ _______ _______ _____ _____    ______ ____
ROOT
ATOM      1  N   UNL     1       2.220   7.093  18.001  0.00  0.00    +0.000 N 
ATOM      2  C   UNL     1       1.921   8.243  18.698  0.00  0.00    +0.000 C 
ATOM      3  O   UNL     1       1.763   8.222  19.922  0.00  0.00    +0.000 OA
ATOM      4  H   UNL     1       2.646   7.232  17.089  0.00  0.00    +0.000 HD
ENDROOT
BRANCH   1   5
ATOM      5  C   UNL     1       2.609   5.903  18.784  0.00  0.00    +0.000 C 
BRANCH   5   6
ATOM      6  C   UNL     1       4.135   5.678  18.724  0.00  0.00    +0.000 C 
ATOM      7  O   UNL     1       4.778   5.439  19.751  0.00  0.00    +0.000 OA
BRANCH   6   8
ATOM      8  C   UNL     1       4.714   5.686  17.384  0.00  0.00    +0.000 A 
ATOM      9  N   UNL     1       4.770   6.762  16.622  0.00  0.00    +0.000 NA
ATOM     10  C   UNL     1       5.305   6.440  15.394  0.00  0.00    +0.000 A 
ATOM     11  C   UNL     1       5.691   5.126  15.242  0.00  0.00    +0.000 A 
ATOM     12  S   UNL     1       5.355   4.257  16.683  0.00  0.00    +0.000 S 
ENDBRANCH   6   8
ENDBRANCH   5   6
BRANCH   5  13
ATOM     13  C   UNL     1       1.832   4.652  18.308  0.00  0.00    +0.000 C 
BRANCH  13  14
ATOM     14  C   UNL     1       1.426   3.747  19.480  0.00  0.00    +0.000 C 
BRANCH  14  15
ATOM     15  C   UNL     1       2.342   2.524  19.628  0.00  0.00    +0.000 C 
BRANCH  15  16
ATOM     16  C   UNL     1       2.812   2.034  18.255  0.00  0.00    +0.000 C 
BRANCH  16  17
ATOM     17  N   UNL     1       3.801   0.971  18.382  0.00  0.00    +0.000 NA
ATOM     18  H   UNL     1       4.510   1.247  19.058  0.00  0.00    +0.000 HD
ATOM     19  H   UNL     1       4.285   0.843  17.490  0.00  0.00    +0.000 HD
ENDBRANCH  16  17
ENDBRANCH  15  16
ENDBRANCH  14  15
ENDBRANCH  13  14
ENDBRANCH   5  13
ENDBRANCH   1   5
BRANCH   2  20
ATOM     20  C   UNL     1       1.616   9.540  17.935  0.00  0.00    +0.000 C 
BRANCH  20  21
ATOM     21  N   UNL     1       0.719  10.642  18.309  0.00  0.00    +0.000 N 
ATOM     22  C   UNL     1       1.228  11.803  18.891  0.00  0.00    +0.000 C 
ATOM     23  O   UNL     1       2.439  12.058  18.891  0.00  0.00    +0.000 OA
BRANCH  21  24
ATOM     24  C   UNL     1      -0.687  10.274  18.450  0.00  0.00    +0.000 C 
ATOM     25  C   UNL     1      -1.807  11.004  17.735  0.00  0.00    +0.000 C 
ATOM     26  C   UNL     1      -1.459   9.616  17.325  0.00  0.00    +0.000 C 
ENDBRANCH  21  24
BRANCH  22  27
ATOM     27  C   UNL     1       0.190  12.860  19.403  0.00  0.00    +0.000 C 
BRANCH  27  28
ATOM     28  N   UNL     1       0.535  14.171  18.818  0.00  0.00    +0.000 NA
ATOM     29  H   UNL     1       0.044  14.277  17.926  0.00  0.00    +0.000 HD
ATOM     30  H   UNL     1       1.525  14.200  18.582  0.00  0.00    +0.000 HD
ENDBRANCH  27  28
BRANCH  27  31
ATOM     31  C   UNL     1       0.092  12.895  20.942  0.00  0.00    +0.000 C 
BRANCH  31  32
ATOM     32  C   UNL     1      -1.199  12.257  21.538  0.00  0.00    +0.000 C 
ATOM     33  C   UNL     1      -1.333  12.391  23.067  0.00  0.00    +0.000 C 
ATOM     34  C   UNL     1      -1.594  13.827  23.514  0.00  0.00    +0.000 C 
ATOM     35  C   UNL     1      -2.838  14.397  22.839  0.00  0.00    +0.000 C 
ATOM     36  C   UNL     1      -2.777  14.267  21.320  0.00  0.00    +0.000 C 
ATOM     37  C   UNL     1      -2.465  12.836  20.878  0.00  0.00    +0.000 C 
ENDBRANCH  31  32
ENDBRANCH  27  31
ENDBRANCH  22  27
ENDBRANCH  20  21
ENDBRANCH   2  20
TORSDOF 15
ENDMDL
MODEL 8
REMARK VINA RESULT:      -5.9      2.182      4.178
REMARK  Name = 
REMARK  15 active torsions:
REMARK  status: ('A' for Active; 'I' for Inactive)
REMARK    1  A    between atoms: N_1  and  C_2
REMARK    2  A    between atoms: C_2  and  C_3
REMARK    3  A    between atoms: C_3  and  C_4
REMARK    4  A    between atoms: C_4  and  C_5
REMARK    5  A    between atoms: C_5  and  C_6
REMARK    6  A    between atoms: C_6  and  N_7
REMARK    7  A    between atoms: C_6  and  C_26
REMARK    8  A    between atoms: C_8  and  C_10
REMARK    9  A    between atoms: C_10  and  N_11
REMARK   10  A    between atoms: N_11  and  C_23
REMARK   11  A    between atoms: C_12  and  C_14
REMARK   12  A    between atoms: C_14  and  N_15
REMARK   13  A    between atoms: C_14  and  C_16
REMARK   14  A    between atoms: C_16  and  C_17
REMARK   15  A    between atoms: C_26  and  C_28
REMARK                            x       y       z     vdW  Elec       q    Type
REMARK                         _______ _______ _______ _____ _____    ______ ____
ROOT
ATOM      1  N   UNL     1       2.499   6.808  18.878  0.00  0.00    +0.000 N 
ATOM      2  C   UNL     1       2.167   8.079  18.461  0.00  0.00    +0.000 C 
ATOM      3  O   UNL     1       2.271   8.408  17.276  0.00  0.00    +0.000 OA
ATOM      4  H   UNL     1       2.093   6.517  19.762  0.00  0.00    +0.000 HD
ENDROOT
BRANCH   1   5
ATOM      5  C   UNL     1       2.719   5.785  17.835  0.00  0.00    +0.000 C 
BRANCH   5   6
ATOM      6  C   UNL     1       1.872   4.525  18.111  0.00  0.00    +0.000 C 
ATOM      7  O   UNL     1       1.138   4.054  17.237  0.00  0.00    +0.000 OA
BRANCH   6   8
ATOM      8  C   UNL     1       2.074   3.913  19.421  0.00  0.00    +0.000 A 
ATOM      9  N   UNL     1       1.647   4.448  20.549  0.00  0.00    +0.000 NA
ATOM     10  C   UNL     1       2.048   3.676  21.617  0.00  0.00    +0.000 A 
ATOM     11  C   UNL     1       2.747   2.534  21.292  0.00  0.00    +0.000 A 
ATOM     12  S   UNL     1       2.924   2.431  19.588  0.00  0.00    +0.000 S 
ENDBRANCH   6   8
ENDBRANCH   5   6
BRANCH   5  13
ATOM     13  C   UNL     1       4.223   5.441  17.710  0.00  0.00    +0.000 C 
BRANCH  13  14
ATOM     14  C   UNL     1       4.994   5.754  19.000  0.00  0.00    +0.000 C 
BRANCH  14  15
ATOM     15  C   UNL     1       6.507   5.545  18.851  0.00  0.00    +0.000 C 
BRANCH  15  16
ATOM     16  C   UNL     1       6.881   5.347  17.379  0.00  0.00    +0.000 C 
BRANCH  16  17
ATOM     17  N   UNL     1       7.505   6.542  16.825  0.00  0.00    +0.000 NA
ATOM     18  H   UNL     1       7.886   6.330  15.906  0.00  0.00    +0.000 HD
ATOM     19  H   UNL     1       8.296   6.820  17.410  0.00  0.00    +0.000 HD
ENDBRANCH  16  17
ENDBRANCH  15  16
ENDBRANCH  14  15
ENDBRANCH  13  14
ENDBRANCH   5  13
ENDBRANCH   1   5
BRANCH   2  20
ATOM     20  C   UNL     1       1.821   9.156  19.499  0.00  0.00    +0.000 C 
BRANCH  20  21
ATOM     21  N   UNL     1       0.668  10.065  19.536  0.00  0.00    +0.000 N 
ATOM     22  C   UNL     1       0.745  11.331  18.955  0.00  0.00    +0.000 C 
ATOM     23  O   UNL     1       1.665  11.643  18.189  0.00  0.00    +0.000 OA
BRANCH  21  24
ATOM     24  C   UNL     1      -0.330   9.757  20.557  0.00  0.00    +0.000 C 
ATOM     25  C   UNL     1      -0.194   8.593  21.519  0.00  0.00    +0.000 C 
ATOM     26  C   UNL     1      -0.064   9.985  22.031  0.00  0.00    +0.000 C 
ENDBRANCH  21  24
BRANCH  22  27
ATOM     27  C   UNL     1      -0.471  12.294  19.177  0.00  0.00    +0.000 C 
BRANCH  27  28
ATOM     28  N   UNL     1      -0.823  12.905  17.879  0.00  0.00    +0.000 NA
ATOM     29  H   UNL     1      -0.682  13.918  17.939  0.00  0.00    +0.000 HD
ATOM     30  H   UNL     1      -1.816  12.784  17.693  0.00  0.00    +0.000 HD
ENDBRANCH  27  28
BRANCH  27  31
ATOM     31  C   UNL     1      -0.205  13.338  20.281  0.00  0.00    +0.000 C 
BRANCH  31  32
ATOM     32  C   UNL     1      -1.449  14.162  20.728  0.00  0.00    +0.000 C 
ATOM     33  C   UNL     1      -2.728  13.329  20.940  0.00  0.00    +0.000 C 
ATOM     34  C   UNL     1      -2.643  12.416  22.161  0.00  0.00    +0.000 C 
ATOM     35  C   UNL     1      -2.336  13.213  23.425  0.00  0.00    +0.000 C 
ATOM     36  C   UNL     1      -1.093  14.083  23.266  0.00  0.00    +0.000 C 
ATOM     37  C   UNL     1      -1.160  14.959  22.014  0.00  0.00    +0.000 C 
ENDBRANCH  31  32
ENDBRANCH  27  31
ENDBRANCH  22  27
ENDBRANCH  20  21
ENDBRANCH   2  20
TORSDOF 15
ENDMDL
MODEL 9
REMARK VINA RESULT:      -5.9      2.399      3.502
REMARK  Name = 
REMARK  15 active torsions:
REMARK  status: ('A' for Active; 'I' for Inactive)
REMARK    1  A    between atoms: N_1  and  C_2
REMARK    2  A    between atoms: C_2  and  C_3
REMARK    3  A    between atoms: C_3  and  C_4
REMARK    4  A    between atoms: C_4  and  C_5
REMARK    5  A    between atoms: C_5  and  C_6
REMARK    6  A    between atoms: C_6  and  N_7
REMARK    7  A    between atoms: C_6  and  C_26
REMARK    8  A    between atoms: C_8  and  C_10
REMARK    9  A    between atoms: C_10  and  N_11
REMARK   10  A    between atoms: N_11  and  C_23
REMARK   11  A    between atoms: C_12  and  C_14
REMARK   12  A    between atoms: C_14  and  N_15
REMARK   13  A    between atoms: C_14  and  C_16
REMARK   14  A    between atoms: C_16  and  C_17
REMARK   15  A    between atoms: C_26  and  C_28
REMARK                            x       y       z     vdW  Elec       q    Type
REMARK                         _______ _______ _______ _____ _____    ______ ____
ROOT
ATOM      1  N   UNL     1       2.175   6.999  19.473  0.00  0.00    +0.000 N 
ATOM      2  C   UNL     1       2.244   8.138  18.701  0.00  0.00    +0.000 C 
ATOM      3  O   UNL     1       3.224   8.363  17.986  0.00  0.00    +0.000 OA
ATOM      4  H   UNL     1       1.241   6.725  19.766  0.00  0.00    +0.000 HD
ENDROOT
BRANCH   1   5
ATOM      5  C   UNL     1       3.169   5.939  19.215  0.00  0.00    +0.000 C 
BRANCH   5   6
ATOM      6  C   UNL     1       2.916   5.264  17.850  0.00  0.00    +0.000 C 
ATOM      7  O   UNL     1       1.768   5.007  17.477  0.00  0.00    +0.000 OA
BRANCH   6   8
ATOM      8  C   UNL     1       4.106   5.044  17.034  0.00  0.00    +0.000 A 
ATOM      9  N   UNL     1       4.736   6.008  16.389  0.00  0.00    +0.000 NA
ATOM     10  C   UNL     1       5.775   5.480  15.654  0.00  0.00    +0.000 A 
ATOM     11  C   UNL     1       5.956   4.120  15.776  0.00  0.00    +0.000 A 
ATOM     12  S   UNL     1       4.771   3.473  16.836  0.00  0.00    +0.000 S 
ENDBRANCH   6   8
ENDBRANCH   5   6
BRANCH   5  13
ATOM     13  C   UNL     1       3.183   4.904  20.366  0.00  0.00    +0.000 C 
BRANCH  13  14
ATOM     14  C   UNL     1       1.800   4.745  21.013  0.00  0.00    +0.000 C 
BRANCH  14  15
ATOM     15  C   UNL     1       1.065   3.485  20.536  0.00  0.00    +0.000 C 
BRANCH  15  16
ATOM     16  C   UNL     1       2.060   2.448  20.007  0.00  0.00    +0.000 C 
BRANCH  16  17
ATOM     17  N   UNL     1       1.673   1.967  18.687  0.00  0.00    +0.000 NA
ATOM     18  H   UNL     1       2.508   1.765  18.142  0.00  0.00    +0.000 HD
ATOM     19  H   UNL     1       1.171   2.704  18.186  0.00  0.00    +0.000 HD
ENDBRANCH  16  17
ENDBRANCH  15  16
ENDBRANCH  14  15
ENDBRANCH  13  14
ENDBRANCH   5  13
ENDBRANCH   1   5
BRANCH   2  20
ATOM     20  C   UNL     1       1.172   9.227  18.850  0.00  0.00    +0.000 C 
BRANCH  20  21
ATOM     21  N   UNL     1       0.886  10.090  20.004  0.00  0.00    +0.000 N 
ATOM     22  C   UNL     1       0.335   9.556  21.169  0.00  0.00    +0.000 C 
ATOM     23  O   UNL     1       0.295   8.336  21.374  0.00  0.00    +0.000 OA
BRANCH  21  24
ATOM     24  C   UNL     1       0.789  11.515  19.701  0.00  0.00    +0.000 C 
ATOM     25  C   UNL     1       1.874  12.511  20.060  0.00  0.00    +0.000 C 
ATOM     26  C   UNL     1       1.643  12.165  18.631  0.00  0.00    +0.000 C 
ENDBRANCH  21  24
BRANCH  22  27
ATOM     27  C   UNL     1      -0.084  10.568  22.290  0.00  0.00    +0.000 C 
BRANCH  27  28
ATOM     28  N   UNL     1       0.164   9.936  23.602  0.00  0.00    +0.000 NA
ATOM     29  H   UNL     1      -0.664  10.058  24.192  0.00  0.00    +0.000 HD
ATOM     30  H   UNL     1       0.913  10.424  24.089  0.00  0.00    +0.000 HD
ENDBRANCH  27  28
BRANCH  27  31
ATOM     31  C   UNL     1      -1.535  11.065  22.126  0.00  0.00    +0.000 C 
BRANCH  31  32
ATOM     32  C   UNL     1      -1.710  12.613  22.135  0.00  0.00    +0.000 C 
ATOM     33  C   UNL     1      -2.452  13.182  20.910  0.00  0.00    +0.000 C 
ATOM     34  C   UNL     1      -3.933  12.812  20.893  0.00  0.00    +0.000 C 
ATOM     35  C   UNL     1      -4.630  13.268  22.171  0.00  0.00    +0.000 C 
ATOM     36  C   UNL     1      -3.923  12.759  23.423  0.00  0.00    +0.000 C 
ATOM     37  C   UNL     1      -2.428  13.087  23.413  0.00  0.00    +0.000 C 
ENDBRANCH  31  32
ENDBRANCH  27  31
ENDBRANCH  22  27
ENDBRANCH  20  21
ENDBRANCH   2  20
TORSDOF 15
ENDMDL
