MODEL 1
REMARK VINA RESULT:      -6.8      0.000      0.000
REMARK  Name = 
REMARK  4 active torsions:
REMARK  status: ('A' for Active; 'I' for Inactive)
REMARK    1  A    between atoms: C_1  and  N_2
REMARK    2  A    between atoms: N_2  and  C_3
REMARK    3  A    between atoms: C_4  and  C_6
REMARK    4  A    between atoms: C_6  and  N_7
REMARK                            x       y       z     vdW  Elec       q    Type
REMARK                         _______ _______ _______ _____ _____    ______ ____
ROOT
ATOM      1  N   UNL     1       5.709   4.638  15.383  0.00  0.00    +0.000 NA
ATOM      2  C   UNL     1       7.095   4.275  15.757  0.00  0.00    +0.000 C 
ATOM      3  C   UNL     1       7.814   4.959  16.974  0.00  0.00    +0.000 C 
ATOM      4  O   UNL     1       7.697   6.379  16.982  0.00  0.00    +0.000 OA
ATOM      5  C   UNL     1       6.514   6.931  17.589  0.00  0.00    +0.000 C 
ATOM      6  C   UNL     1       5.180   6.241  17.196  0.00  0.00    +0.000 C 
ATOM      7  C   UNL     1       5.117   4.917  17.990  0.00  0.00    +0.000 C 
ATOM      8  C   UNL     1       3.702   4.419  18.030  0.00  0.00    +0.000 C 
ATOM      9  N   UNL     1       2.402   5.047  18.280  0.00  0.00    +0.000 N 
ATOM     10  C   UNL     1       2.086   4.547  19.592  0.00  0.00    +0.000 A 
ATOM     11  N   UNL     1       3.145   4.002  20.282  0.00  0.00    +0.000 NA
ATOM     12  C   UNL     1       2.969   2.991  21.141  0.00  0.00    +0.000 A 
ATOM     13  C   UNL     1       1.739   2.549  21.451  0.00  0.00    +0.000 A 
ATOM     14  F   UNL     1       1.552   1.515  22.271  0.00  0.00    +0.000 F 
ATOM     15  C   UNL     1       0.693   3.244  20.859  0.00  0.00    +0.000 A 
ATOM     16  N   UNL     1       0.837   4.222  19.915  0.00  0.00    +0.000 NA
ATOM     17  C   UNL     1       2.424   6.467  17.838  0.00  0.00    +0.000 C 
ATOM     18  C   UNL     1       3.877   7.131  17.585  0.00  0.00    +0.000 C 
ATOM     19  C   UNL     1       5.272   6.001  15.670  0.00  0.00    +0.000 C 
ENDROOT
BRANCH   1  20
ATOM     20  C   UNL     1       5.282   4.197  14.047  0.00  0.00    +0.000 C 
BRANCH  20  24
ATOM     21  C   UNL     1       7.504   2.897  11.226  0.00  0.00    +0.000 C 
ATOM     22  N   UNL     1       6.321   3.165  12.022  0.00  0.00    +0.000 N 
ATOM     23  C   UNL     1       5.128   2.365  11.798  0.00  0.00    +0.000 C 
ATOM     24  C   UNL     1       6.433   4.112  13.039  0.00  0.00    +0.000 C 
ATOM     25  O   UNL     1       7.450   4.809  13.165  0.00  0.00    +0.000 OA
ENDBRANCH  20  24
ENDBRANCH   1  20
TORSDOF 2
ENDMDL
MODEL 2
REMARK VINA RESULT:      -6.5     10.173     12.279
REMARK  Name = 
REMARK  4 active torsions:
REMARK  status: ('A' for Active; 'I' for Inactive)
REMARK    1  A    between atoms: C_1  and  N_2
REMARK    2  A    between atoms: N_2  and  C_3
REMARK    3  A    between atoms: C_4  and  C_6
REMARK    4  A    between atoms: C_6  and  N_7
REMARK                            x       y       z     vdW  Elec       q    Type
REMARK                         _______ _______ _______ _____ _____    ______ ____
ROOT
ATOM      1  N   UNL     1      11.197  14.073  18.867  0.00  0.00    +0.000 NA
ATOM      2  C   UNL     1      11.383  13.054  17.808  0.00  0.00    +0.000 C 
ATOM      3  C   UNL     1      10.570  11.711  17.819  0.00  0.00    +0.000 C 
ATOM      4  O   UNL     1      10.567  11.057  19.085  0.00  0.00    +0.000 OA
ATOM      5  C   UNL     1       9.566  11.474  20.031  0.00  0.00    +0.000 C 
ATOM      6  C   UNL     1       9.380  13.009  20.172  0.00  0.00    +0.000 C 
ATOM      7  C   UNL     1       8.579  13.472  18.935  0.00  0.00    +0.000 C 
ATOM      8  C   UNL     1       7.969  14.817  19.202  0.00  0.00    +0.000 C 
ATOM      9  N   UNL     1       7.253  15.411  20.333  0.00  0.00    +0.000 N 
ATOM     10  C   UNL     1       5.905  15.457  19.832  0.00  0.00    +0.000 A 
ATOM     11  N   UNL     1       5.666  14.677  18.723  0.00  0.00    +0.000 NA
ATOM     12  C   UNL     1       4.771  15.042  17.796  0.00  0.00    +0.000 A 
ATOM     13  C   UNL     1       3.989  16.120  17.971  0.00  0.00    +0.000 A 
ATOM     14  F   UNL     1       3.126  16.518  17.038  0.00  0.00    +0.000 F 
ATOM     15  C   UNL     1       4.149  16.776  19.185  0.00  0.00    +0.000 A 
ATOM     16  N   UNL     1       5.108  16.484  20.114  0.00  0.00    +0.000 NA
ATOM     17  C   UNL     1       7.718  14.806  21.610  0.00  0.00    +0.000 C 
ATOM     18  C   UNL     1       8.544  13.418  21.503  0.00  0.00    +0.000 C 
ATOM     19  C   UNL     1      10.810  13.598  20.192  0.00  0.00    +0.000 C 
ENDROOT
BRANCH   1  20
ATOM     20  C   UNL     1      12.243  15.103  18.939  0.00  0.00    +0.000 C 
BRANCH  20  24
ATOM     21  C   UNL     1      10.649  18.394  17.836  0.00  0.00    +0.000 C 
ATOM     22  N   UNL     1      11.166  17.345  18.696  0.00  0.00    +0.000 N 
ATOM     23  C   UNL     1      10.770  17.325  20.095  0.00  0.00    +0.000 C 
ATOM     24  C   UNL     1      11.931  16.346  18.097  0.00  0.00    +0.000 C 
ATOM     25  O   UNL     1      12.289  16.425  16.913  0.00  0.00    +0.000 OA
ENDBRANCH  20  24
ENDBRANCH   1  20
TORSDOF 2
ENDMDL
MODEL 3
REMARK VINA RESULT:      -6.5      8.942     11.440
REMARK  Name = 
REMARK  4 active torsions:
REMARK  status: ('A' for Active; 'I' for Inactive)
REMARK    1  A    between atoms: C_1  and  N_2
REMARK    2  A    between atoms: N_2  and  C_3
REMARK    3  A    between atoms: C_4  and  C_6
REMARK    4  A    between atoms: C_6  and  N_7
REMARK                            x       y       z     vdW  Elec       q    Type
REMARK                         _______ _______ _______ _____ _____    ______ ____
ROOT
ATOM      1  N   UNL     1       1.162  12.394  19.502  0.00  0.00    +0.000 NA
ATOM      2  C   UNL     1       1.670  11.333  18.601  0.00  0.00    +0.000 C 
ATOM      3  C   UNL     1       1.165   9.851  18.725  0.00  0.00    +0.000 C 
ATOM      4  O   UNL     1       1.171   9.357  20.061  0.00  0.00    +0.000 OA
ATOM      5  C   UNL     1       0.012   9.640  20.865  0.00  0.00    +0.000 C 
ATOM      6  C   UNL     1      -0.512  11.099  20.790  0.00  0.00    +0.000 C 
ATOM      7  C   UNL     1      -1.260  11.232  19.445  0.00  0.00    +0.000 C 
ATOM      8  C   UNL     1      -2.167  12.427  19.488  0.00  0.00    +0.000 C 
ATOM      9  N   UNL     1      -3.107  12.965  20.474  0.00  0.00    +0.000 N 
ATOM     10  C   UNL     1      -4.374  12.653  19.868  0.00  0.00    +0.000 A 
ATOM     11  N   UNL     1      -4.325  11.722  18.855  0.00  0.00    +0.000 NA
ATOM     12  C   UNL     1      -5.176  11.772  17.823  0.00  0.00    +0.000 A 
ATOM     13  C   UNL     1      -6.185  12.659  17.796  0.00  0.00    +0.000 A 
ATOM     14  F   UNL     1      -7.011  12.748  16.755  0.00  0.00    +0.000 F 
ATOM     15  C   UNL     1      -6.295  13.464  18.922  0.00  0.00    +0.000 A 
ATOM     16  N   UNL     1      -5.397  13.498  19.952  0.00  0.00    +0.000 NA
ATOM     17  C   UNL     1      -2.658  12.625  21.851  0.00  0.00    +0.000 C 
ATOM     18  C   UNL     1      -1.549  11.455  21.989  0.00  0.00    +0.000 C 
ATOM     19  C   UNL     1       0.750  11.994  20.843  0.00  0.00    +0.000 C 
ENDROOT
BRANCH   1  20
ATOM     20  C   UNL     1       1.950  13.634  19.519  0.00  0.00    +0.000 C 
BRANCH  20  24
ATOM     21  C   UNL     1       1.290  17.160  18.205  0.00  0.00    +0.000 C 
ATOM     22  N   UNL     1       1.999  15.949  18.577  0.00  0.00    +0.000 N 
ATOM     23  C   UNL     1       3.443  16.002  18.739  0.00  0.00    +0.000 C 
ATOM     24  C   UNL     1       1.233  14.821  18.866  0.00  0.00    +0.000 C 
ATOM     25  O   UNL     1       0.010  14.800  18.667  0.00  0.00    +0.000 OA
ENDBRANCH  20  24
ENDBRANCH   1  20
TORSDOF 2
ENDMDL
MODEL 4
REMARK VINA RESULT:      -6.3      9.930     11.538
REMARK  Name = 
REMARK  4 active torsions:
REMARK  status: ('A' for Active; 'I' for Inactive)
REMARK    1  A    between atoms: C_1  and  N_2
REMARK    2  A    between atoms: N_2  and  C_3
REMARK    3  A    between atoms: C_4  and  C_6
REMARK    4  A    between atoms: C_6  and  N_7
REMARK                            x       y       z     vdW  Elec       q    Type
REMARK                         _______ _______ _______ _____ _____    ______ ____
ROOT
ATOM      1  N   UNL     1       8.268  14.333  18.464  0.00  0.00    +0.000 NA
ATOM      2  C   UNL     1       8.436  13.074  17.702  0.00  0.00    +0.000 C 
ATOM      3  C   UNL     1       9.632  12.100  17.996  0.00  0.00    +0.000 C 
ATOM      4  O   UNL     1      10.894  12.755  18.078  0.00  0.00    +0.000 OA
ATOM      5  C   UNL     1      11.257  13.312  19.355  0.00  0.00    +0.000 C 
ATOM      6  C   UNL     1      10.139  14.116  20.073  0.00  0.00    +0.000 C 
ATOM      7  C   UNL     1       9.160  13.078  20.666  0.00  0.00    +0.000 C 
ATOM      8  C   UNL     1       8.329  13.722  21.736  0.00  0.00    +0.000 C 
ATOM      9  N   UNL     1       8.617  14.621  22.856  0.00  0.00    +0.000 N 
ATOM     10  C   UNL     1       8.479  13.736  23.982  0.00  0.00    +0.000 A 
ATOM     11  N   UNL     1       8.488  12.394  23.676  0.00  0.00    +0.000 NA
ATOM     12  C   UNL     1       7.783  11.512  24.396  0.00  0.00    +0.000 A 
ATOM     13  C   UNL     1       7.136  11.885  25.512  0.00  0.00    +0.000 A 
ATOM     14  F   UNL     1       6.396  11.027  26.212  0.00  0.00    +0.000 F 
ATOM     15  C   UNL     1       7.298  13.216  25.873  0.00  0.00    +0.000 A 
ATOM     16  N   UNL     1       7.937  14.161  25.120  0.00  0.00    +0.000 NA
ATOM     17  C   UNL     1       9.780  15.490  22.531  0.00  0.00    +0.000 C 
ATOM     18  C   UNL     1      10.709  15.032  21.287  0.00  0.00    +0.000 C 
ATOM     19  C   UNL     1       9.476  14.976  18.971  0.00  0.00    +0.000 C 
ENDROOT
BRANCH   1  20
ATOM     20  C   UNL     1       7.337  15.305  17.873  0.00  0.00    +0.000 C 
BRANCH  20  24
ATOM     21  C   UNL     1       4.236  15.347  20.102  0.00  0.00    +0.000 C 
ATOM     22  N   UNL     1       5.513  15.728  19.529  0.00  0.00    +0.000 N 
ATOM     23  C   UNL     1       6.378  16.628  20.276  0.00  0.00    +0.000 C 
ATOM     24  C   UNL     1       5.887  15.117  18.333  0.00  0.00    +0.000 C 
ATOM     25  O   UNL     1       5.103  14.395  17.701  0.00  0.00    +0.000 OA
ENDBRANCH  20  24
ENDBRANCH   1  20
TORSDOF 2
ENDMDL
MODEL 5
REMARK VINA RESULT:      -6.2      9.725     11.469
REMARK  Name = 
REMARK  4 active torsions:
REMARK  status: ('A' for Active; 'I' for Inactive)
REMARK    1  A    between atoms: C_1  and  N_2
REMARK    2  A    between atoms: N_2  and  C_3
REMARK    3  A    between atoms: C_4  and  C_6
REMARK    4  A    between atoms: C_6  and  N_7
REMARK                            x       y       z     vdW  Elec       q    Type
REMARK                         _______ _______ _______ _____ _____    ______ ____
ROOT
ATOM      1  N   UNL     1       8.342  14.166  18.342  0.00  0.00    +0.000 NA
ATOM      2  C   UNL     1       8.433  12.882  17.610  0.00  0.00    +0.000 C 
ATOM      3  C   UNL     1       9.557  11.836  17.939  0.00  0.00    +0.000 C 
ATOM      4  O   UNL     1      10.859  12.406  18.023  0.00  0.00    +0.000 OA
ATOM      5  C   UNL     1      11.245  12.967  19.291  0.00  0.00    +0.000 C 
ATOM      6  C   UNL     1      10.176  13.859  19.978  0.00  0.00    +0.000 C 
ATOM      7  C   UNL     1       9.124  12.904  20.582  0.00  0.00    +0.000 C 
ATOM      8  C   UNL     1       8.326  13.626  21.627  0.00  0.00    +0.000 C 
ATOM      9  N   UNL     1       8.662  14.529  22.731  0.00  0.00    +0.000 N 
ATOM     10  C   UNL     1       8.452  13.681  23.874  0.00  0.00    +0.000 A 
ATOM     11  N   UNL     1       8.374  12.334  23.597  0.00  0.00    +0.000 NA
ATOM     12  C   UNL     1       7.603  11.518  24.327  0.00  0.00    +0.000 A 
ATOM     13  C   UNL     1       6.971  11.959  25.427  0.00  0.00    +0.000 A 
ATOM     14  F   UNL     1       6.167  11.168  26.136  0.00  0.00    +0.000 F 
ATOM     15  C   UNL     1       7.218  13.284  25.761  0.00  0.00    +0.000 A 
ATOM     16  N   UNL     1       7.928  14.166  24.995  0.00  0.00    +0.000 NA
ATOM     17  C   UNL     1       9.885  15.310  22.401  0.00  0.00    +0.000 C 
ATOM     18  C   UNL     1      10.793  14.763  21.179  0.00  0.00    +0.000 C 
ATOM     19  C   UNL     1       9.585  14.738  18.849  0.00  0.00    +0.000 C 
ENDROOT
BRANCH   1  20
ATOM     20  C   UNL     1       7.486  15.185  17.718  0.00  0.00    +0.000 C 
BRANCH  20  24
ATOM     21  C   UNL     1       4.474  16.643  19.561  0.00  0.00    +0.000 C 
ATOM     22  N   UNL     1       5.299  15.718  18.806  0.00  0.00    +0.000 N 
ATOM     23  C   UNL     1       4.656  14.634  18.081  0.00  0.00    +0.000 C 
ATOM     24  C   UNL     1       6.664  15.992  18.730  0.00  0.00    +0.000 C 
ATOM     25  O   UNL     1       7.182  16.895  19.402  0.00  0.00    +0.000 OA
ENDBRANCH  20  24
ENDBRANCH   1  20
TORSDOF 2
ENDMDL
MODEL 6
REMARK VINA RESULT:      -6.2      9.789     12.933
REMARK  Name = 
REMARK  4 active torsions:
REMARK  status: ('A' for Active; 'I' for Inactive)
REMARK    1  A    between atoms: C_1  and  N_2
REMARK    2  A    between atoms: N_2  and  C_3
REMARK    3  A    between atoms: C_4  and  C_6
REMARK    4  A    between atoms: C_6  and  N_7
REMARK                            x       y       z     vdW  Elec       q    Type
REMARK                         _______ _______ _______ _____ _____    ______ ____
ROOT
ATOM      1  N   UNL     1      -4.504  14.027  21.289  0.00  0.00    +0.000 NA
ATOM      2  C   UNL     1      -4.413  15.327  20.585  0.00  0.00    +0.000 C 
ATOM      3  C   UNL     1      -3.179  16.277  20.788  0.00  0.00    +0.000 C 
ATOM      4  O   UNL     1      -2.828  16.472  22.155  0.00  0.00    +0.000 OA
ATOM      5  C   UNL     1      -1.958  15.493  22.751  0.00  0.00    +0.000 C 
ATOM      6  C   UNL     1      -2.316  14.012  22.451  0.00  0.00    +0.000 C 
ATOM      7  C   UNL     1      -1.848  13.728  21.006  0.00  0.00    +0.000 C 
ATOM      8  C   UNL     1      -1.734  12.247  20.794  0.00  0.00    +0.000 C 
ATOM      9  N   UNL     1      -1.175  11.141  21.573  0.00  0.00    +0.000 N 
ATOM     10  C   UNL     1       0.017  10.834  20.828  0.00  0.00    +0.000 A 
ATOM     11  N   UNL     1       0.414  11.802  19.934  0.00  0.00    +0.000 NA
ATOM     12  C   UNL     1       1.033  11.482  18.791  0.00  0.00    +0.000 A 
ATOM     13  C   UNL     1       1.395  10.215  18.528  0.00  0.00    +0.000 A 
ATOM     14  F   UNL     1       1.971   9.876  17.376  0.00  0.00    +0.000 F 
ATOM     15  C   UNL     1       1.124   9.301  19.537  0.00  0.00    +0.000 A 
ATOM     16  N   UNL     1       0.420   9.576  20.676  0.00  0.00    +0.000 NA
ATOM     17  C   UNL     1      -1.276  11.435  23.028  0.00  0.00    +0.000 C 
ATOM     18  C   UNL     1      -1.562  12.972  23.445  0.00  0.00    +0.000 C 
ATOM     19  C   UNL     1      -3.855  13.923  22.592  0.00  0.00    +0.000 C 
ENDROOT
BRANCH   1  20
ATOM     20  C   UNL     1      -5.836  13.406  21.290  0.00  0.00    +0.000 C 
BRANCH  20  24
ATOM     21  C   UNL     1      -6.934  10.114  19.694  0.00  0.00    +0.000 C 
ATOM     22  N   UNL     1      -6.960  11.314  20.509  0.00  0.00    +0.000 N 
ATOM     23  C   UNL     1      -7.917  11.401  21.601  0.00  0.00    +0.000 C 
ATOM     24  C   UNL     1      -5.983  12.278  20.263  0.00  0.00    +0.000 C 
ATOM     25  O   UNL     1      -5.217  12.191  19.292  0.00  0.00    +0.000 OA
ENDBRANCH  20  24
ENDBRANCH   1  20
TORSDOF 2
ENDMDL
MODEL 7
REMARK VINA RESULT:      -6.2      8.508     11.190
REMARK  Name = 
REMARK  4 active torsions:
REMARK  status: ('A' for Active; 'I' for Inactive)
REMARK    1  A    between atoms: C_1  and  N_2
REMARK    2  A    between atoms: N_2  and  C_3
REMARK    3  A    between atoms: C_4  and  C_6
REMARK    4  A    between atoms: C_6  and  N_7
REMARK                            x       y       z     vdW  Elec       q    Type
REMARK                         _______ _______ _______ _____ _____    ______ ____
ROOT
ATOM      1  N   UNL     1       1.427  11.940  19.117  0.00  0.00    +0.000 NA
ATOM      2  C   UNL     1       1.833  10.838  18.215  0.00  0.00    +0.000 C 
ATOM      3  C   UNL     1       1.264   9.386  18.400  0.00  0.00    +0.000 C 
ATOM      4  O   UNL     1       1.318   8.918  19.744  0.00  0.00    +0.000 OA
ATOM      5  C   UNL     1       0.219   9.275  20.603  0.00  0.00    +0.000 C 
ATOM      6  C   UNL     1      -0.235  10.758  20.522  0.00  0.00    +0.000 C 
ATOM      7  C   UNL     1      -1.048  10.901  19.217  0.00  0.00    +0.000 C 
ATOM      8  C   UNL     1      -1.892  12.140  19.280  0.00  0.00    +0.000 C 
ATOM      9  N   UNL     1      -2.749  12.745  20.302  0.00  0.00    +0.000 N 
ATOM     10  C   UNL     1      -4.061  12.484  19.772  0.00  0.00    +0.000 A 
ATOM     11  N   UNL     1      -4.113  11.532  18.780  0.00  0.00    +0.000 NA
ATOM     12  C   UNL     1      -5.016  11.603  17.793  0.00  0.00    +0.000 A 
ATOM     13  C   UNL     1      -5.979  12.539  17.800  0.00  0.00    +0.000 A 
ATOM     14  F   UNL     1      -6.856  12.649  16.803  0.00  0.00    +0.000 F 
ATOM     15  C   UNL     1      -5.988  13.371  18.912  0.00  0.00    +0.000 A 
ATOM     16  N   UNL     1      -5.035  13.381  19.892  0.00  0.00    +0.000 NA
ATOM     17  C   UNL     1      -2.243  12.410  21.661  0.00  0.00    +0.000 C 
ATOM     18  C   UNL     1      -1.187  11.189  21.766  0.00  0.00    +0.000 C 
ATOM     19  C   UNL     1       1.070  11.588  20.488  0.00  0.00    +0.000 C 
ENDROOT
BRANCH   1  20
ATOM     20  C   UNL     1       2.275  13.140  19.063  0.00  0.00    +0.000 C 
BRANCH  20  24
ATOM     21  C   UNL     1       1.412  16.020  21.419  0.00  0.00    +0.000 C 
ATOM     22  N   UNL     1       1.304  15.058  20.337  0.00  0.00    +0.000 N 
ATOM     23  C   UNL     1       0.355  15.310  19.265  0.00  0.00    +0.000 C 
ATOM     24  C   UNL     1       2.204  13.993  20.334  0.00  0.00    +0.000 C 
ATOM     25  O   UNL     1       2.963  13.784  21.291  0.00  0.00    +0.000 OA
ENDBRANCH  20  24
ENDBRANCH   1  20
TORSDOF 2
ENDMDL
MODEL 8
REMARK VINA RESULT:      -6.2     10.694     12.553
REMARK  Name = 
REMARK  4 active torsions:
REMARK  status: ('A' for Active; 'I' for Inactive)
REMARK    1  A    between atoms: C_1  and  N_2
REMARK    2  A    between atoms: N_2  and  C_3
REMARK    3  A    between atoms: C_4  and  C_6
REMARK    4  A    between atoms: C_6  and  N_7
REMARK                            x       y       z     vdW  Elec       q    Type
REMARK                         _______ _______ _______ _____ _____    ______ ____
ROOT
ATOM      1  N   UNL     1      11.288  14.441  19.430  0.00  0.00    +0.000 NA
ATOM      2  C   UNL     1      11.533  13.097  18.856  0.00  0.00    +0.000 C 
ATOM      3  C   UNL     1      10.756  11.836  19.380  0.00  0.00    +0.000 C 
ATOM      4  O   UNL     1      10.736  11.728  20.800  0.00  0.00    +0.000 OA
ATOM      5  C   UNL     1       9.697  12.444  21.493  0.00  0.00    +0.000 C 
ATOM      6  C   UNL     1       9.465  13.904  21.019  0.00  0.00    +0.000 C 
ATOM      7  C   UNL     1       8.687  13.819  19.687  0.00  0.00    +0.000 C 
ATOM      8  C   UNL     1       8.033  15.138  19.398  0.00  0.00    +0.000 C 
ATOM      9  N   UNL     1       7.269  16.100  20.196  0.00  0.00    +0.000 N 
ATOM     10  C   UNL     1       5.935  15.898  19.695  0.00  0.00    +0.000 A 
ATOM     11  N   UNL     1       5.750  14.739  18.976  0.00  0.00    +0.000 NA
ATOM     12  C   UNL     1       4.871  14.680  17.967  0.00  0.00    +0.000 A 
ATOM     13  C   UNL     1       4.055  15.711  17.695  0.00  0.00    +0.000 A 
ATOM     14  F   UNL     1       3.208  15.682  16.667  0.00  0.00    +0.000 F 
ATOM     15  C   UNL     1       4.163  16.794  18.557  0.00  0.00    +0.000 A 
ATOM     16  N   UNL     1       5.103  16.923  19.541  0.00  0.00    +0.000 NA
ATOM     17  C   UNL     1       7.714  16.059  21.615  0.00  0.00    +0.000 C 
ATOM     18  C   UNL     1       8.581  14.770  22.071  0.00  0.00    +0.000 C 
ATOM     19  C   UNL     1      10.878  14.507  20.829  0.00  0.00    +0.000 C 
ENDROOT
BRANCH   1  20
ATOM     20  C   UNL     1      12.303  15.454  19.109  0.00  0.00    +0.000 C 
BRANCH  20  24
ATOM     21  C   UNL     1      10.838  18.584  17.482  0.00  0.00    +0.000 C 
ATOM     22  N   UNL     1      11.148  17.187  17.727  0.00  0.00    +0.000 N 
ATOM     23  C   UNL     1      10.952  16.225  16.655  0.00  0.00    +0.000 C 
ATOM     24  C   UNL     1      11.725  16.866  18.955  0.00  0.00    +0.000 C 
ATOM     25  O   UNL     1      11.830  17.704  19.861  0.00  0.00    +0.000 OA
ENDBRANCH  20  24
ENDBRANCH   1  20
TORSDOF 2
ENDMDL
MODEL 9
REMARK VINA RESULT:      -6.2      9.015     11.391
REMARK  Name = 
REMARK  4 active torsions:
REMARK  status: ('A' for Active; 'I' for Inactive)
REMARK    1  A    between atoms: C_1  and  N_2
REMARK    2  A    between atoms: N_2  and  C_3
REMARK    3  A    between atoms: C_4  and  C_6
REMARK    4  A    between atoms: C_6  and  N_7
REMARK                            x       y       z     vdW  Elec       q    Type
REMARK                         _______ _______ _______ _____ _____    ______ ____
ROOT
ATOM      1  N   UNL     1       1.319  12.256  19.788  0.00  0.00    +0.000 NA
ATOM      2  C   UNL     1       1.449  11.372  18.607  0.00  0.00    +0.000 C 
ATOM      3  C   UNL     1       0.728   9.978  18.552  0.00  0.00    +0.000 C 
ATOM      4  O   UNL     1       0.909   9.196  19.729  0.00  0.00    +0.000 OA
ATOM      5  C   UNL     1      -0.004   9.434  20.816  0.00  0.00    +0.000 C 
ATOM      6  C   UNL     1      -0.269  10.928  21.148  0.00  0.00    +0.000 C 
ATOM      7  C   UNL     1      -1.232  11.457  20.062  0.00  0.00    +0.000 C 
ATOM      8  C   UNL     1      -1.891  12.717  20.542  0.00  0.00    +0.000 C 
ATOM      9  N   UNL     1      -2.511  13.133  21.802  0.00  0.00    +0.000 N 
ATOM     10  C   UNL     1      -3.907  13.131  21.453  0.00  0.00    +0.000 A 
ATOM     11  N   UNL     1      -4.219  12.457  20.294  0.00  0.00    +0.000 NA
ATOM     12  C   UNL     1      -5.235  12.849  19.514  0.00  0.00    +0.000 A 
ATOM     13  C   UNL     1      -6.059  13.841  19.891  0.00  0.00    +0.000 A 
ATOM     14  F   UNL     1      -7.044  14.269  19.104  0.00  0.00    +0.000 F 
ATOM     15  C   UNL     1      -5.804  14.376  21.147  0.00  0.00    +0.000 A 
ATOM     16  N   UNL     1      -4.730  14.059  21.931  0.00  0.00    +0.000 NA
ATOM     17  C   UNL     1      -1.868  12.434  22.947  0.00  0.00    +0.000 C 
ATOM     18  C   UNL     1      -0.974  11.131  22.598  0.00  0.00    +0.000 C 
ATOM     19  C   UNL     1       1.115  11.617  21.085  0.00  0.00    +0.000 C 
ENDROOT
BRANCH   1  20
ATOM     20  C   UNL     1       2.299  13.349  19.866  0.00  0.00    +0.000 C 
BRANCH  20  24
ATOM     21  C   UNL     1       2.561  16.590  17.863  0.00  0.00    +0.000 C 
ATOM     22  N   UNL     1       2.888  15.279  18.391  0.00  0.00    +0.000 N 
ATOM     23  C   UNL     1       4.257  14.799  18.282  0.00  0.00    +0.000 C 
ATOM     24  C   UNL     1       1.885  14.595  19.076  0.00  0.00    +0.000 C 
ATOM     25  O   UNL     1       0.719  15.013  19.104  0.00  0.00    +0.000 OA
ENDBRANCH  20  24
ENDBRANCH   1  20
TORSDOF 2
ENDMDL
