MODEL 1
REMARK VINA RESULT:      -8.3      0.000      0.000
REMARK  Name = 
REMARK  8 active torsions:
REMARK  status: ('A' for Active; 'I' for Inactive)
REMARK    1  A    between atoms: C_1  and  O_2
REMARK    2  A    between atoms: O_2  and  C_3
REMARK    3  A    between atoms: C_8  and  N_9
REMARK    4  A    between atoms: N_12  and  C_13
REMARK    5  A    between atoms: C_13  and  C_14
REMARK    6  A    between atoms: C_14  and  C_15
REMARK    7  A    between atoms: C_14  and  N_16
REMARK    8  A    between atoms: C_17  and  C_19
REMARK                            x       y       z     vdW  Elec       q    Type
REMARK                         _______ _______ _______ _____ _____    ______ ____
ROOT
ATOM      1  C   UNL     1       1.744   5.814  20.757  0.00  0.00    +0.000 C 
ATOM      2  C   UNL     1       1.005   4.524  20.395  0.00  0.00    +0.000 C 
ENDROOT
BRANCH   1   3
ATOM      3  N   UNL     1       2.833   5.978  19.803  0.00  0.00    +0.000 N 
ATOM      4  C   UNL     1       3.713   4.963  19.588  0.00  0.00    +0.000 C 
ATOM      5  O   UNL     1       3.604   3.894  20.207  0.00  0.00    +0.000 OA
ATOM      6  H   UNL     1       2.966   6.888  19.372  0.00  0.00    +0.000 HD
BRANCH   4   7
ATOM      7  C   UNL     1       4.817   5.194  18.567  0.00  0.00    +0.000 C 
ATOM      8  C   UNL     1       4.915   4.011  17.572  0.00  0.00    +0.000 C 
ATOM      9  C   UNL     1       5.903   4.345  16.447  0.00  0.00    +0.000 C 
ATOM     10  C   UNL     1       5.425   5.618  15.734  0.00  0.00    +0.000 C 
ATOM     11  C   UNL     1       5.418   6.804  16.709  0.00  0.00    +0.000 C 
ATOM     12  C   UNL     1       4.434   6.499  17.828  0.00  0.00    +0.000 C 
ATOM     13  C   UNL     1       6.809   7.002  17.331  0.00  0.00    +0.000 C 
ATOM     14  C   UNL     1       7.241   5.728  18.081  0.00  0.00    +0.000 C 
ATOM     15  C   UNL     1       6.216   5.398  19.194  0.00  0.00    +0.000 C 
ATOM     16  C   UNL     1       7.294   4.571  17.067  0.00  0.00    +0.000 C 
ENDBRANCH   4   7
ENDBRANCH   1   3
BRANCH   1  17
ATOM     17  C   UNL     1       0.900   7.130  20.826  0.00  0.00    +0.000 C 
BRANCH  17  21
ATOM     18  N   UNL     1      -0.366  10.366  21.856  0.00  0.00    +0.000 N 
ATOM     19  C   UNL     1      -0.409   9.960  20.438  0.00  0.00    +0.000 C 
ATOM     20  C   UNL     1       0.965   9.419  19.962  0.00  0.00    +0.000 C 
ATOM     21  N   UNL     1       1.635   8.413  20.837  0.00  0.00    +0.000 NA
ATOM     22  C   UNL     1       1.666   9.015  22.209  0.00  0.00    +0.000 C 
ATOM     23  C   UNL     1       0.276   9.426  22.776  0.00  0.00    +0.000 C 
BRANCH  18  29
ATOM     24  C   UNL     1      -0.228  12.830  22.086  0.00  0.00    +0.000 A 
ATOM     25  C   UNL     1      -0.801  14.003  22.593  0.00  0.00    +0.000 A 
ATOM     26  C   UNL     1      -1.985  13.992  23.273  0.00  0.00    +0.000 A 
ATOM     27  C   UNL     1      -2.633  12.773  23.483  0.00  0.00    +0.000 A 
ATOM     28  C   UNL     1      -2.078  11.602  23.002  0.00  0.00    +0.000 A 
ATOM     29  C   UNL     1      -0.856  11.559  22.291  0.00  0.00    +0.000 A 
BRANCH  24  31
ATOM     30  C   UNL     1       1.465  14.264  21.383  0.00  0.00    +0.000 C 
ATOM     31  O   UNL     1       0.991  12.913  21.455  0.00  0.00    +0.000 OA
ENDBRANCH  24  31
ENDBRANCH  18  29
ENDBRANCH  17  21
ENDBRANCH   1  17
TORSDOF 6
ENDMDL
MODEL 2
REMARK VINA RESULT:      -8.3      0.185      1.386
REMARK  Name = 
REMARK  8 active torsions:
REMARK  status: ('A' for Active; 'I' for Inactive)
REMARK    1  A    between atoms: C_1  and  O_2
REMARK    2  A    between atoms: O_2  and  C_3
REMARK    3  A    between atoms: C_8  and  N_9
REMARK    4  A    between atoms: N_12  and  C_13
REMARK    5  A    between atoms: C_13  and  C_14
REMARK    6  A    between atoms: C_14  and  C_15
REMARK    7  A    between atoms: C_14  and  N_16
REMARK    8  A    between atoms: C_17  and  C_19
REMARK                            x       y       z     vdW  Elec       q    Type
REMARK                         _______ _______ _______ _____ _____    ______ ____
ROOT
ATOM      1  C   UNL     1       1.744   5.679  20.685  0.00  0.00    +0.000 C 
ATOM      2  C   UNL     1       0.960   4.469  20.173  0.00  0.00    +0.000 C 
ENDROOT
BRANCH   1   3
ATOM      3  N   UNL     1       2.811   5.947  19.729  0.00  0.00    +0.000 N 
ATOM      4  C   UNL     1       3.815   5.047  19.554  0.00  0.00    +0.000 C 
ATOM      5  O   UNL     1       3.840   3.996  20.212  0.00  0.00    +0.000 OA
ATOM      6  H   UNL     1       2.829   6.851  19.265  0.00  0.00    +0.000 HD
BRANCH   4   7
ATOM      7  C   UNL     1       4.889   5.381  18.529  0.00  0.00    +0.000 C 
ATOM      8  C   UNL     1       6.270   5.562  19.205  0.00  0.00    +0.000 C 
ATOM      9  C   UNL     1       7.365   5.715  18.142  0.00  0.00    +0.000 C 
ATOM     10  C   UNL     1       7.357   4.468  17.245  0.00  0.00    +0.000 C 
ATOM     11  C   UNL     1       6.014   4.348  16.512  0.00  0.00    +0.000 C 
ATOM     12  C   UNL     1       4.914   4.183  17.548  0.00  0.00    +0.000 C 
ATOM     13  C   UNL     1       5.725   5.620  15.699  0.00  0.00    +0.000 C 
ATOM     14  C   UNL     1       5.691   6.847  16.631  0.00  0.00    +0.000 C 
ATOM     15  C   UNL     1       4.596   6.658  17.709  0.00  0.00    +0.000 C 
ATOM     16  C   UNL     1       7.067   6.973  17.308  0.00  0.00    +0.000 C 
ENDBRANCH   4   7
ENDBRANCH   1   3
BRANCH   1  17
ATOM     17  C   UNL     1       0.938   6.991  20.959  0.00  0.00    +0.000 C 
BRANCH  17  21
ATOM     18  N   UNL     1      -0.305  10.276  21.857  0.00  0.00    +0.000 N 
ATOM     19  C   UNL     1      -0.361   9.808  20.458  0.00  0.00    +0.000 C 
ATOM     20  C   UNL     1       1.007   9.241  19.996  0.00  0.00    +0.000 C 
ATOM     21  N   UNL     1       1.680   8.271  20.908  0.00  0.00    +0.000 NA
ATOM     22  C   UNL     1       1.723   8.932  22.253  0.00  0.00    +0.000 C 
ATOM     23  C   UNL     1       0.339   9.374  22.812  0.00  0.00    +0.000 C 
BRANCH  18  29
ATOM     24  C   UNL     1      -0.159  12.747  21.970  0.00  0.00    +0.000 A 
ATOM     25  C   UNL     1      -0.723  13.944  22.430  0.00  0.00    +0.000 A 
ATOM     26  C   UNL     1      -1.897  13.968  23.126  0.00  0.00    +0.000 A 
ATOM     27  C   UNL     1      -2.545  12.761  23.401  0.00  0.00    +0.000 A 
ATOM     28  C   UNL     1      -1.999  11.568  22.967  0.00  0.00    +0.000 A 
ATOM     29  C   UNL     1      -0.787  11.489  22.242  0.00  0.00    +0.000 A 
BRANCH  24  31
ATOM     30  C   UNL     1       1.592  14.125  21.298  0.00  0.00    +0.000 C 
ATOM     31  O   UNL     1       1.052  12.798  21.320  0.00  0.00    +0.000 OA
ENDBRANCH  24  31
ENDBRANCH  18  29
ENDBRANCH  17  21
ENDBRANCH   1  17
TORSDOF 6
ENDMDL
MODEL 3
REMARK VINA RESULT:      -8.2      2.671      4.230
REMARK  Name = 
REMARK  8 active torsions:
REMARK  status: ('A' for Active; 'I' for Inactive)
REMARK    1  A    between atoms: C_1  and  O_2
REMARK    2  A    between atoms: O_2  and  C_3
REMARK    3  A    between atoms: C_8  and  N_9
REMARK    4  A    between atoms: N_12  and  C_13
REMARK    5  A    between atoms: C_13  and  C_14
REMARK    6  A    between atoms: C_14  and  C_15
REMARK    7  A    between atoms: C_14  and  N_16
REMARK    8  A    between atoms: C_17  and  C_19
REMARK                            x       y       z     vdW  Elec       q    Type
REMARK                         _______ _______ _______ _____ _____    ______ ____
ROOT
ATOM      1  C   UNL     1       1.358   8.791  21.019  0.00  0.00    +0.000 C 
ATOM      2  C   UNL     1       1.630   9.033  22.506  0.00  0.00    +0.000 C 
ENDROOT
BRANCH   1   3
ATOM      3  N   UNL     1       1.486   7.360  20.777  0.00  0.00    +0.000 N 
ATOM      4  C   UNL     1       2.135   6.909  19.669  0.00  0.00    +0.000 C 
ATOM      5  O   UNL     1       2.613   7.709  18.851  0.00  0.00    +0.000 OA
ATOM      6  H   UNL     1       1.012   6.717  21.405  0.00  0.00    +0.000 HD
BRANCH   4   7
ATOM      7  C   UNL     1       2.248   5.404  19.484  0.00  0.00    +0.000 C 
ATOM      8  C   UNL     1       3.694   4.915  19.744  0.00  0.00    +0.000 C 
ATOM      9  C   UNL     1       3.747   3.382  19.734  0.00  0.00    +0.000 C 
ATOM     10  C   UNL     1       2.790   2.849  20.811  0.00  0.00    +0.000 C 
ATOM     11  C   UNL     1       1.347   3.265  20.493  0.00  0.00    +0.000 C 
ATOM     12  C   UNL     1       1.269   4.783  20.511  0.00  0.00    +0.000 C 
ATOM     13  C   UNL     1       0.938   2.777  19.094  0.00  0.00    +0.000 C 
ATOM     14  C   UNL     1       1.884   3.366  18.031  0.00  0.00    +0.000 C 
ATOM     15  C   UNL     1       1.833   4.913  18.078  0.00  0.00    +0.000 C 
ATOM     16  C   UNL     1       3.313   2.886  18.343  0.00  0.00    +0.000 C 
ENDBRANCH   4   7
ENDBRANCH   1   3
BRANCH   1  17
ATOM     17  C   UNL     1      -0.006   9.302  20.448  0.00  0.00    +0.000 C 
BRANCH  17  21
ATOM     18  N   UNL     1      -0.244  12.905  20.127  0.00  0.00    +0.000 N 
ATOM     19  C   UNL     1      -1.449  12.059  20.013  0.00  0.00    +0.000 C 
ATOM     20  C   UNL     1      -1.222  10.883  19.028  0.00  0.00    +0.000 C 
ATOM     21  N   UNL     1       0.031  10.091  19.197  0.00  0.00    +0.000 NA
ATOM     22  C   UNL     1       1.150  11.089  19.212  0.00  0.00    +0.000 C 
ATOM     23  C   UNL     1       1.026  12.198  20.298  0.00  0.00    +0.000 C 
BRANCH  18  29
ATOM     24  C   UNL     1      -0.414  15.152  21.159  0.00  0.00    +0.000 A 
ATOM     25  C   UNL     1      -0.478  16.538  20.967  0.00  0.00    +0.000 A 
ATOM     26  C   UNL     1      -0.399  17.099  19.725  0.00  0.00    +0.000 A 
ATOM     27  C   UNL     1      -0.267  16.264  18.613  0.00  0.00    +0.000 A 
ATOM     28  C   UNL     1      -0.215  14.894  18.779  0.00  0.00    +0.000 A 
ATOM     29  C   UNL     1      -0.292  14.262  20.043  0.00  0.00    +0.000 A 
BRANCH  24  31
ATOM     30  C   UNL     1      -0.745  15.703  23.395  0.00  0.00    +0.000 C 
ATOM     31  O   UNL     1      -0.551  14.658  22.435  0.00  0.00    +0.000 OA
ENDBRANCH  24  31
ENDBRANCH  18  29
ENDBRANCH  17  21
ENDBRANCH   1  17
TORSDOF 6
ENDMDL
MODEL 4
REMARK VINA RESULT:      -8.2      2.654      4.256
REMARK  Name = 
REMARK  8 active torsions:
REMARK  status: ('A' for Active; 'I' for Inactive)
REMARK    1  A    between atoms: C_1  and  O_2
REMARK    2  A    between atoms: O_2  and  C_3
REMARK    3  A    between atoms: C_8  and  N_9
REMARK    4  A    between atoms: N_12  and  C_13
REMARK    5  A    between atoms: C_13  and  C_14
REMARK    6  A    between atoms: C_14  and  C_15
REMARK    7  A    between atoms: C_14  and  N_16
REMARK    8  A    between atoms: C_17  and  C_19
REMARK                            x       y       z     vdW  Elec       q    Type
REMARK                         _______ _______ _______ _____ _____    ______ ____
ROOT
ATOM      1  C   UNL     1       1.396   8.833  20.925  0.00  0.00    +0.000 C 
ATOM      2  C   UNL     1       1.473   9.090  22.432  0.00  0.00    +0.000 C 
ENDROOT
BRANCH   1   3
ATOM      3  N   UNL     1       1.456   7.392  20.722  0.00  0.00    +0.000 N 
ATOM      4  C   UNL     1       2.140   6.878  19.664  0.00  0.00    +0.000 C 
ATOM      5  O   UNL     1       2.709   7.629  18.858  0.00  0.00    +0.000 OA
ATOM      6  H   UNL     1       0.909   6.793  21.334  0.00  0.00    +0.000 HD
BRANCH   4   7
ATOM      7  C   UNL     1       2.176   5.364  19.518  0.00  0.00    +0.000 C 
ATOM      8  C   UNL     1       1.773   4.930  18.088  0.00  0.00    +0.000 C 
ATOM      9  C   UNL     1       1.993   3.423  17.908  0.00  0.00    +0.000 C 
ATOM     10  C   UNL     1       3.471   3.106  18.177  0.00  0.00    +0.000 C 
ATOM     11  C   UNL     1       3.837   3.457  19.626  0.00  0.00    +0.000 C 
ATOM     12  C   UNL     1       3.637   4.952  19.822  0.00  0.00    +0.000 C 
ATOM     13  C   UNL     1       2.920   2.715  20.611  0.00  0.00    +0.000 C 
ATOM     14  C   UNL     1       1.449   3.089  20.350  0.00  0.00    +0.000 C 
ATOM     15  C   UNL     1       1.257   4.617  20.512  0.00  0.00    +0.000 C 
ATOM     16  C   UNL     1       1.096   2.674  18.911  0.00  0.00    +0.000 C 
ENDBRANCH   4   7
ENDBRANCH   1   3
BRANCH   1  17
ATOM     17  C   UNL     1       0.167   9.425  20.160  0.00  0.00    +0.000 C 
BRANCH  17  21
ATOM     18  N   UNL     1      -0.549  12.959  19.799  0.00  0.00    +0.000 N 
ATOM     19  C   UNL     1      -1.513  11.946  19.326  0.00  0.00    +0.000 C 
ATOM     20  C   UNL     1      -0.818  10.872  18.448  0.00  0.00    +0.000 C 
ATOM     21  N   UNL     1       0.441  10.275  18.981  0.00  0.00    +0.000 NA
ATOM     22  C   UNL     1       1.328  11.431  19.334  0.00  0.00    +0.000 C 
ATOM     23  C   UNL     1       0.711  12.448  20.338  0.00  0.00    +0.000 C 
BRANCH  18  29
ATOM     24  C   UNL     1      -1.641  15.038  20.591  0.00  0.00    +0.000 A 
ATOM     25  C   UNL     1      -1.844  16.412  20.404  0.00  0.00    +0.000 A 
ATOM     26  C   UNL     1      -1.225  17.102  19.402  0.00  0.00    +0.000 A 
ATOM     27  C   UNL     1      -0.379  16.415  18.530  0.00  0.00    +0.000 A 
ATOM     28  C   UNL     1      -0.175  15.058  18.689  0.00  0.00    +0.000 A 
ATOM     29  C   UNL     1      -0.790  14.296  19.710  0.00  0.00    +0.000 A 
BRANCH  24  31
ATOM     30  C   UNL     1      -2.315  15.144  22.816  0.00  0.00    +0.000 C 
ATOM     31  O   UNL     1      -2.338  14.401  21.591  0.00  0.00    +0.000 OA
ENDBRANCH  24  31
ENDBRANCH  18  29
ENDBRANCH  17  21
ENDBRANCH   1  17
TORSDOF 6
ENDMDL
MODEL 5
REMARK VINA RESULT:      -8.1      2.701      4.241
REMARK  Name = 
REMARK  8 active torsions:
REMARK  status: ('A' for Active; 'I' for Inactive)
REMARK    1  A    between atoms: C_1  and  O_2
REMARK    2  A    between atoms: O_2  and  C_3
REMARK    3  A    between atoms: C_8  and  N_9
REMARK    4  A    between atoms: N_12  and  C_13
REMARK    5  A    between atoms: C_13  and  C_14
REMARK    6  A    between atoms: C_14  and  C_15
REMARK    7  A    between atoms: C_14  and  N_16
REMARK    8  A    between atoms: C_17  and  C_19
REMARK                            x       y       z     vdW  Elec       q    Type
REMARK                         _______ _______ _______ _____ _____    ______ ____
ROOT
ATOM      1  C   UNL     1       1.342   8.817  21.039  0.00  0.00    +0.000 C 
ATOM      2  C   UNL     1       1.717   9.062  22.502  0.00  0.00    +0.000 C 
ENDROOT
BRANCH   1   3
ATOM      3  N   UNL     1       1.463   7.387  20.788  0.00  0.00    +0.000 N 
ATOM      4  C   UNL     1       2.141   6.939  19.698  0.00  0.00    +0.000 C 
ATOM      5  O   UNL     1       2.653   7.740  18.902  0.00  0.00    +0.000 OA
ATOM      6  H   UNL     1       0.962   6.744  21.395  0.00  0.00    +0.000 HD
BRANCH   4   7
ATOM      7  C   UNL     1       2.244   5.434  19.503  0.00  0.00    +0.000 C 
ATOM      8  C   UNL     1       3.687   4.933  19.762  0.00  0.00    +0.000 C 
ATOM      9  C   UNL     1       3.728   3.400  19.742  0.00  0.00    +0.000 C 
ATOM     10  C   UNL     1       2.766   2.867  20.814  0.00  0.00    +0.000 C 
ATOM     11  C   UNL     1       1.327   3.295  20.497  0.00  0.00    +0.000 C 
ATOM     12  C   UNL     1       1.259   4.814  20.525  0.00  0.00    +0.000 C 
ATOM     13  C   UNL     1       0.916   2.819  19.095  0.00  0.00    +0.000 C 
ATOM     14  C   UNL     1       1.868   3.408  18.036  0.00  0.00    +0.000 C 
ATOM     15  C   UNL     1       1.827   4.955  18.093  0.00  0.00    +0.000 C 
ATOM     16  C   UNL     1       3.293   2.916  18.347  0.00  0.00    +0.000 C 
ENDBRANCH   4   7
ENDBRANCH   1   3
BRANCH   1  17
ATOM     17  C   UNL     1      -0.063   9.319  20.566  0.00  0.00    +0.000 C 
BRANCH  17  21
ATOM     18  N   UNL     1       0.205  12.909  20.142  0.00  0.00    +0.000 N 
ATOM     19  C   UNL     1      -1.117  12.264  20.271  0.00  0.00    +0.000 C 
ATOM     20  C   UNL     1      -1.251  11.053  19.311  0.00  0.00    +0.000 C 
ATOM     21  N   UNL     1      -0.125  10.075  19.295  0.00  0.00    +0.000 NA
ATOM     22  C   UNL     1       1.119  10.882  19.078  0.00  0.00    +0.000 C 
ATOM     23  C   UNL     1       1.360  12.011  20.122  0.00  0.00    +0.000 C 
BRANCH  18  29
ATOM     24  C   UNL     1       1.112  15.089  20.893  0.00  0.00    +0.000 A 
ATOM     25  C   UNL     1       1.186  16.473  20.686  0.00  0.00    +0.000 A 
ATOM     26  C   UNL     1       0.568  17.079  19.631  0.00  0.00    +0.000 A 
ATOM     27  C   UNL     1      -0.173  16.297  18.742  0.00  0.00    +0.000 A 
ATOM     28  C   UNL     1      -0.269  14.932  18.935  0.00  0.00    +0.000 A 
ATOM     29  C   UNL     1       0.352  14.256  20.010  0.00  0.00    +0.000 A 
BRANCH  24  31
ATOM     30  C   UNL     1       3.129  14.817  22.022  0.00  0.00    +0.000 C 
ATOM     31  O   UNL     1       1.720  14.557  22.006  0.00  0.00    +0.000 OA
ENDBRANCH  24  31
ENDBRANCH  18  29
ENDBRANCH  17  21
ENDBRANCH   1  17
TORSDOF 6
ENDMDL
MODEL 6
REMARK VINA RESULT:      -8.1      2.665      4.020
REMARK  Name = 
REMARK  8 active torsions:
REMARK  status: ('A' for Active; 'I' for Inactive)
REMARK    1  A    between atoms: C_1  and  O_2
REMARK    2  A    between atoms: O_2  and  C_3
REMARK    3  A    between atoms: C_8  and  N_9
REMARK    4  A    between atoms: N_12  and  C_13
REMARK    5  A    between atoms: C_13  and  C_14
REMARK    6  A    between atoms: C_14  and  C_15
REMARK    7  A    between atoms: C_14  and  N_16
REMARK    8  A    between atoms: C_17  and  C_19
REMARK                            x       y       z     vdW  Elec       q    Type
REMARK                         _______ _______ _______ _____ _____    ______ ____
ROOT
ATOM      1  C   UNL     1       1.406   8.787  20.929  0.00  0.00    +0.000 C 
ATOM      2  C   UNL     1       1.463   9.030  22.439  0.00  0.00    +0.000 C 
ENDROOT
BRANCH   1   3
ATOM      3  N   UNL     1       1.490   7.349  20.712  0.00  0.00    +0.000 N 
ATOM      4  C   UNL     1       2.205   6.855  19.666  0.00  0.00    +0.000 C 
ATOM      5  O   UNL     1       2.782   7.623  18.881  0.00  0.00    +0.000 OA
ATOM      6  H   UNL     1       0.938   6.736  21.306  0.00  0.00    +0.000 HD
BRANCH   4   7
ATOM      7  C   UNL     1       2.266   5.344  19.506  0.00  0.00    +0.000 C 
ATOM      8  C   UNL     1       3.697   4.811  19.764  0.00  0.00    +0.000 C 
ATOM      9  C   UNL     1       3.697   3.277  19.780  0.00  0.00    +0.000 C 
ATOM     10  C   UNL     1       2.731   2.795  20.872  0.00  0.00    +0.000 C 
ATOM     11  C   UNL     1       1.300   3.254  20.558  0.00  0.00    +0.000 C 
ATOM     12  C   UNL     1       1.274   4.775  20.550  0.00  0.00    +0.000 C 
ATOM     13  C   UNL     1       0.865   2.757  19.170  0.00  0.00    +0.000 C 
ATOM     14  C   UNL     1       1.822   3.295  18.090  0.00  0.00    +0.000 C 
ATOM     15  C   UNL     1       1.823   4.844  18.111  0.00  0.00    +0.000 C 
ATOM     16  C   UNL     1       3.236   2.773  18.400  0.00  0.00    +0.000 C 
ENDBRANCH   4   7
ENDBRANCH   1   3
BRANCH   1  17
ATOM     17  C   UNL     1       0.175   9.366  20.156  0.00  0.00    +0.000 C 
BRANCH  17  21
ATOM     18  N   UNL     1      -0.903  12.819  20.384  0.00  0.00    +0.000 N 
ATOM     19  C   UNL     1      -1.715  11.826  19.655  0.00  0.00    +0.000 C 
ATOM     20  C   UNL     1      -0.851  11.010  18.659  0.00  0.00    +0.000 C 
ATOM     21  N   UNL     1       0.430  10.447  19.178  0.00  0.00    +0.000 NA
ATOM     22  C   UNL     1       1.158  11.595  19.810  0.00  0.00    +0.000 C 
ATOM     23  C   UNL     1       0.369  12.339  20.926  0.00  0.00    +0.000 C 
BRANCH  18  29
ATOM     24  C   UNL     1      -0.868  15.191  19.665  0.00  0.00    +0.000 A 
ATOM     25  C   UNL     1      -1.298  16.503  19.900  0.00  0.00    +0.000 A 
ATOM     26  C   UNL     1      -2.146  16.812  20.924  0.00  0.00    +0.000 A 
ATOM     27  C   UNL     1      -2.582  15.791  21.772  0.00  0.00    +0.000 A 
ATOM     28  C   UNL     1      -2.160  14.492  21.565  0.00  0.00    +0.000 A 
ATOM     29  C   UNL     1      -1.284  14.119  20.519  0.00  0.00    +0.000 A 
BRANCH  24  31
ATOM     30  C   UNL     1       1.338  15.443  18.967  0.00  0.00    +0.000 C 
ATOM     31  O   UNL     1       0.026  14.965  18.645  0.00  0.00    +0.000 OA
ENDBRANCH  24  31
ENDBRANCH  18  29
ENDBRANCH  17  21
ENDBRANCH   1  17
TORSDOF 6
ENDMDL
MODEL 7
REMARK VINA RESULT:      -8.0      2.707      4.226
REMARK  Name = 
REMARK  8 active torsions:
REMARK  status: ('A' for Active; 'I' for Inactive)
REMARK    1  A    between atoms: C_1  and  O_2
REMARK    2  A    between atoms: O_2  and  C_3
REMARK    3  A    between atoms: C_8  and  N_9
REMARK    4  A    between atoms: N_12  and  C_13
REMARK    5  A    between atoms: C_13  and  C_14
REMARK    6  A    between atoms: C_14  and  C_15
REMARK    7  A    between atoms: C_14  and  N_16
REMARK    8  A    between atoms: C_17  and  C_19
REMARK                            x       y       z     vdW  Elec       q    Type
REMARK                         _______ _______ _______ _____ _____    ______ ____
ROOT
ATOM      1  C   UNL     1       1.513   8.781  20.949  0.00  0.00    +0.000 C 
ATOM      2  C   UNL     1       1.423   9.017  22.459  0.00  0.00    +0.000 C 
ENDROOT
BRANCH   1   3
ATOM      3  N   UNL     1       1.577   7.342  20.733  0.00  0.00    +0.000 N 
ATOM      4  C   UNL     1       2.239   6.842  19.655  0.00  0.00    +0.000 C 
ATOM      5  O   UNL     1       2.784   7.603  18.841  0.00  0.00    +0.000 OA
ATOM      6  H   UNL     1       1.050   6.735  21.353  0.00  0.00    +0.000 HD
BRANCH   4   7
ATOM      7  C   UNL     1       2.282   5.329  19.496  0.00  0.00    +0.000 C 
ATOM      8  C   UNL     1       3.709   4.781  19.743  0.00  0.00    +0.000 C 
ATOM      9  C   UNL     1       3.693   3.247  19.760  0.00  0.00    +0.000 C 
ATOM     10  C   UNL     1       2.730   2.777  20.861  0.00  0.00    +0.000 C 
ATOM     11  C   UNL     1       1.302   3.251  20.558  0.00  0.00    +0.000 C 
ATOM     12  C   UNL     1       1.293   4.772  20.549  0.00  0.00    +0.000 C 
ATOM     13  C   UNL     1       0.850   2.758  19.175  0.00  0.00    +0.000 C 
ATOM     14  C   UNL     1       1.804   3.284  18.086  0.00  0.00    +0.000 C 
ATOM     15  C   UNL     1       1.822   4.832  18.105  0.00  0.00    +0.000 C 
ATOM     16  C   UNL     1       3.215   2.747  18.385  0.00  0.00    +0.000 C 
ENDBRANCH   4   7
ENDBRANCH   1   3
BRANCH   1  17
ATOM     17  C   UNL     1       0.385   9.400  20.059  0.00  0.00    +0.000 C 
BRANCH  17  21
ATOM     18  N   UNL     1      -1.320  12.572  20.472  0.00  0.00    +0.000 N 
ATOM     19  C   UNL     1      -1.724  11.635  19.405  0.00  0.00    +0.000 C 
ATOM     20  C   UNL     1      -0.499  11.146  18.588  0.00  0.00    +0.000 C 
ATOM     21  N   UNL     1       0.684  10.671  19.363  0.00  0.00    +0.000 NA
ATOM     22  C   UNL     1       1.005  11.765  20.336  0.00  0.00    +0.000 C 
ATOM     23  C   UNL     1      -0.166  12.171  21.277  0.00  0.00    +0.000 C 
BRANCH  18  29
ATOM     24  C   UNL     1      -3.223  13.913  21.321  0.00  0.00    +0.000 A 
ATOM     25  C   UNL     1      -3.803  15.179  21.470  0.00  0.00    +0.000 A 
ATOM     26  C   UNL     1      -3.176  16.314  21.043  0.00  0.00    +0.000 A 
ATOM     27  C   UNL     1      -1.928  16.206  20.424  0.00  0.00    +0.000 A 
ATOM     28  C   UNL     1      -1.345  14.965  20.256  0.00  0.00    +0.000 A 
ATOM     29  C   UNL     1      -1.951  13.759  20.681  0.00  0.00    +0.000 A 
BRANCH  24  31
ATOM     30  C   UNL     1      -4.459  12.973  23.055  0.00  0.00    +0.000 C 
ATOM     31  O   UNL     1      -3.937  12.811  21.730  0.00  0.00    +0.000 OA
ENDBRANCH  24  31
ENDBRANCH  18  29
ENDBRANCH  17  21
ENDBRANCH   1  17
TORSDOF 6
ENDMDL
MODEL 8
REMARK VINA RESULT:      -8.0      2.644      3.945
REMARK  Name = 
REMARK  8 active torsions:
REMARK  status: ('A' for Active; 'I' for Inactive)
REMARK    1  A    between atoms: C_1  and  O_2
REMARK    2  A    between atoms: O_2  and  C_3
REMARK    3  A    between atoms: C_8  and  N_9
REMARK    4  A    between atoms: N_12  and  C_13
REMARK    5  A    between atoms: C_13  and  C_14
REMARK    6  A    between atoms: C_14  and  C_15
REMARK    7  A    between atoms: C_14  and  N_16
REMARK    8  A    between atoms: C_17  and  C_19
REMARK                            x       y       z     vdW  Elec       q    Type
REMARK                         _______ _______ _______ _____ _____    ______ ____
ROOT
ATOM      1  C   UNL     1       1.436   8.811  20.903  0.00  0.00    +0.000 C 
ATOM      2  C   UNL     1       1.486   9.080  22.408  0.00  0.00    +0.000 C 
ENDROOT
BRANCH   1   3
ATOM      3  N   UNL     1       1.478   7.366  20.714  0.00  0.00    +0.000 N 
ATOM      4  C   UNL     1       2.170   6.833  19.672  0.00  0.00    +0.000 C 
ATOM      5  O   UNL     1       2.762   7.567  18.867  0.00  0.00    +0.000 OA
ATOM      6  H   UNL     1       0.914   6.782  21.324  0.00  0.00    +0.000 HD
BRANCH   4   7
ATOM      7  C   UNL     1       2.186   5.317  19.541  0.00  0.00    +0.000 C 
ATOM      8  C   UNL     1       1.778   4.874  18.115  0.00  0.00    +0.000 C 
ATOM      9  C   UNL     1       1.978   3.362  17.951  0.00  0.00    +0.000 C 
ATOM     10  C   UNL     1       3.453   3.029  18.223  0.00  0.00    +0.000 C 
ATOM     11  C   UNL     1       3.822   3.390  19.669  0.00  0.00    +0.000 C 
ATOM     12  C   UNL     1       3.642   4.889  19.850  0.00  0.00    +0.000 C 
ATOM     13  C   UNL     1       2.895   2.669  20.661  0.00  0.00    +0.000 C 
ATOM     14  C   UNL     1       1.429   3.060  20.396  0.00  0.00    +0.000 C 
ATOM     15  C   UNL     1       1.257   4.592  20.542  0.00  0.00    +0.000 C 
ATOM     16  C   UNL     1       1.072   2.635  18.960  0.00  0.00    +0.000 C 
ENDBRANCH   4   7
ENDBRANCH   1   3
BRANCH   1  17
ATOM     17  C   UNL     1       0.232   9.413  20.106  0.00  0.00    +0.000 C 
BRANCH  17  21
ATOM     18  N   UNL     1      -0.854  12.865  20.309  0.00  0.00    +0.000 N 
ATOM     19  C   UNL     1      -1.638  11.875  19.545  0.00  0.00    +0.000 C 
ATOM     20  C   UNL     1      -0.736  11.063  18.579  0.00  0.00    +0.000 C 
ATOM     21  N   UNL     1       0.524  10.498  19.144  0.00  0.00    +0.000 NA
ATOM     22  C   UNL     1       1.228  11.643  19.808  0.00  0.00    +0.000 C 
ATOM     23  C   UNL     1       0.396  12.382  20.897  0.00  0.00    +0.000 C 
BRANCH  18  29
ATOM     24  C   UNL     1      -0.784  15.241  19.608  0.00  0.00    +0.000 A 
ATOM     25  C   UNL     1      -1.223  16.552  19.832  0.00  0.00    +0.000 A 
ATOM     26  C   UNL     1      -2.117  16.855  20.819  0.00  0.00    +0.000 A 
ATOM     27  C   UNL     1      -2.593  15.829  21.638  0.00  0.00    +0.000 A 
ATOM     28  C   UNL     1      -2.162  14.531  21.442  0.00  0.00    +0.000 A 
ATOM     29  C   UNL     1      -1.240  14.164  20.435  0.00  0.00    +0.000 A 
BRANCH  24  31
ATOM     30  C   UNL     1       1.454  15.487  19.018  0.00  0.00    +0.000 C 
ATOM     31  O   UNL     1       0.156  15.021  18.628  0.00  0.00    +0.000 OA
ENDBRANCH  24  31
ENDBRANCH  18  29
ENDBRANCH  17  21
ENDBRANCH   1  17
TORSDOF 6
ENDMDL
MODEL 9
REMARK VINA RESULT:      -7.9      2.986      4.363
REMARK  Name = 
REMARK  8 active torsions:
REMARK  status: ('A' for Active; 'I' for Inactive)
REMARK    1  A    between atoms: C_1  and  O_2
REMARK    2  A    between atoms: O_2  and  C_3
REMARK    3  A    between atoms: C_8  and  N_9
REMARK    4  A    between atoms: N_12  and  C_13
REMARK    5  A    between atoms: C_13  and  C_14
REMARK    6  A    between atoms: C_14  and  C_15
REMARK    7  A    between atoms: C_14  and  N_16
REMARK    8  A    between atoms: C_17  and  C_19
REMARK                            x       y       z     vdW  Elec       q    Type
REMARK                         _______ _______ _______ _____ _____    ______ ____
ROOT
ATOM      1  C   UNL     1       1.363   8.880  20.858  0.00  0.00    +0.000 C 
ATOM      2  C   UNL     1       1.484   9.188  22.352  0.00  0.00    +0.000 C 
ENDROOT
BRANCH   1   3
ATOM      3  N   UNL     1       1.491   7.437  20.695  0.00  0.00    +0.000 N 
ATOM      4  C   UNL     1       2.214   6.927  19.663  0.00  0.00    +0.000 C 
ATOM      5  O   UNL     1       2.762   7.681  18.845  0.00  0.00    +0.000 OA
ATOM      6  H   UNL     1       0.962   6.831  21.317  0.00  0.00    +0.000 HD
BRANCH   4   7
ATOM      7  C   UNL     1       2.321   5.413  19.560  0.00  0.00    +0.000 C 
ATOM      8  C   UNL     1       1.358   4.715  20.552  0.00  0.00    +0.000 C 
ATOM      9  C   UNL     1       1.346   3.201  20.304  0.00  0.00    +0.000 C 
ATOM     10  C   UNL     1       0.914   2.943  18.853  0.00  0.00    +0.000 C 
ATOM     11  C   UNL     1       1.925   3.563  17.878  0.00  0.00    +0.000 C 
ATOM     12  C   UNL     1       1.944   5.068  18.098  0.00  0.00    +0.000 C 
ATOM     13  C   UNL     1       3.338   3.019  18.144  0.00  0.00    +0.000 C 
ATOM     14  C   UNL     1       3.763   3.335  19.591  0.00  0.00    +0.000 C 
ATOM     15  C   UNL     1       3.743   4.866  19.823  0.00  0.00    +0.000 C 
ATOM     16  C   UNL     1       2.765   2.654  20.544  0.00  0.00    +0.000 C 
ENDBRANCH   4   7
ENDBRANCH   1   3
BRANCH   1  17
ATOM     17  C   UNL     1       0.075   9.382  20.124  0.00  0.00    +0.000 C 
BRANCH  17  21
ATOM     18  N   UNL     1       0.338  12.909  19.335  0.00  0.00    +0.000 N 
ATOM     19  C   UNL     1      -0.969  12.224  19.285  0.00  0.00    +0.000 C 
ATOM     20  C   UNL     1      -0.885  10.907  18.468  0.00  0.00    +0.000 C 
ATOM     21  N   UNL     1       0.245   9.986  18.785  0.00  0.00    +0.000 NA
ATOM     22  C   UNL     1       1.489  10.820  18.714  0.00  0.00    +0.000 C 
ATOM     23  C   UNL     1       1.495  12.069  19.643  0.00  0.00    +0.000 C 
BRANCH  18  29
ATOM     24  C   UNL     1       1.699  14.876  18.685  0.00  0.00    +0.000 A 
ATOM     25  C   UNL     1       1.747  16.258  18.460  0.00  0.00    +0.000 A 
ATOM     26  C   UNL     1       0.638  17.046  18.575  0.00  0.00    +0.000 A 
ATOM     27  C   UNL     1      -0.574  16.458  18.942  0.00  0.00    +0.000 A 
ATOM     28  C   UNL     1      -0.640  15.099  19.181  0.00  0.00    +0.000 A 
ATOM     29  C   UNL     1       0.477  14.238  19.075  0.00  0.00    +0.000 A 
BRANCH  24  31
ATOM     30  C   UNL     1       3.939  14.936  18.056  0.00  0.00    +0.000 C 
ATOM     31  O   UNL     1       2.867  14.155  18.600  0.00  0.00    +0.000 OA
ENDBRANCH  24  31
ENDBRANCH  18  29
ENDBRANCH  17  21
ENDBRANCH   1  17
TORSDOF 6
ENDMDL
