MODEL 1
REMARK VINA RESULT:      -9.3      0.000      0.000
REMARK  Name = 
REMARK  8 active torsions:
REMARK  status: ('A' for Active; 'I' for Inactive)
REMARK    1  A    between atoms: C_1  and  C_2
REMARK    2  A    between atoms: C_4  and  C_5
REMARK    3  A    between atoms: C_7  and  N_8
REMARK    4  A    between atoms: C_9  and  C_11
REMARK    5  A    between atoms: N_14  and  S_15
REMARK    6  A    between atoms: S_15  and  C_18
REMARK    7  A    between atoms: C_22  and  C_23
REMARK    8  A    between atoms: C_26  and  C_27
REMARK                            x       y       z     vdW  Elec       q    Type
REMARK                         _______ _______ _______ _____ _____    ______ ____
ROOT
ATOM      1  C   UNL     1       1.210   9.894  19.663  0.00  0.00    +0.000 C 
ATOM      2  C   UNL     1       1.927   9.427  18.389  0.00  0.00    +0.000 C 
ATOM      3  C   UNL     1       1.701   7.942  18.167  0.00  0.00    +0.000 C 
ATOM      4  N   UNL     1       2.387   7.227  19.272  0.00  0.00    +0.000 NA
ATOM      5  C   UNL     1       1.719   7.498  20.577  0.00  0.00    +0.000 C 
ATOM      6  C   UNL     1       1.574   9.001  20.860  0.00  0.00    +0.000 C 
ENDROOT
BRANCH   1   8
ATOM      7  N   UNL     1      -0.598  10.743  18.246  0.00  0.00    +0.000 N 
ATOM      8  C   UNL     1      -0.298  10.039  19.400  0.00  0.00    +0.000 C 
ATOM      9  O   UNL     1      -1.114   9.485  20.129  0.00  0.00    +0.000 OA
ATOM     10  H   UNL     1       0.177  11.046  17.672  0.00  0.00    +0.000 HD
BRANCH   7  17
ATOM     11  C   UNL     1      -3.586  10.033  14.401  0.00  0.00    +0.000 C 
ATOM     12  C   UNL     1      -3.370  10.566  15.787  0.00  0.00    +0.000 A 
ATOM     13  C   UNL     1      -4.419  11.166  16.493  0.00  0.00    +0.000 A 
ATOM     14  C   UNL     1      -4.214  11.654  17.787  0.00  0.00    +0.000 A 
ATOM     15  C   UNL     1      -5.324  12.308  18.558  0.00  0.00    +0.000 C 
ATOM     16  C   UNL     1      -2.945  11.534  18.373  0.00  0.00    +0.000 A 
ATOM     17  C   UNL     1      -1.885  10.932  17.694  0.00  0.00    +0.000 A 
ATOM     18  C   UNL     1      -2.105  10.469  16.387  0.00  0.00    +0.000 A 
ENDBRANCH   7  17
ENDBRANCH   1   8
BRANCH   4  19
ATOM     19  S   UNL     1       2.617   5.544  18.967  0.00  0.00    +0.000 S 
ATOM     20  O   UNL     1       2.494   4.846  20.231  0.00  0.00    +0.000 OA
ATOM     21  O   UNL     1       1.782   5.193  17.838  0.00  0.00    +0.000 OA
BRANCH  19  22
ATOM     22  C   UNL     1       4.320   5.433  18.471  0.00  0.00    +0.000 A 
ATOM     23  C   UNL     1       5.343   5.692  19.386  0.00  0.00    +0.000 A 
ATOM     24  C   UNL     1       6.672   5.657  18.956  0.00  0.00    +0.000 A 
ATOM     25  C   UNL     1       6.975   5.367  17.620  0.00  0.00    +0.000 A 
ATOM     26  C   UNL     1       5.949   5.106  16.699  0.00  0.00    +0.000 A 
ATOM     27  C   UNL     1       4.616   5.145  17.135  0.00  0.00    +0.000 A 
BRANCH  26  28
ATOM     28  C   UNL     1       6.245   4.811  15.299  0.00  0.00    +0.000 A 
ATOM     29  N   UNL     1       7.320   5.256  14.634  0.00  0.00    +0.000 NA
ATOM     30  O   UNL     1       7.157   4.735  13.348  0.00  0.00    +0.000 OA
ATOM     31  C   UNL     1       5.996   4.021  13.372  0.00  0.00    +0.000 A 
ATOM     32  C   UNL     1       5.574   3.367  12.120  0.00  0.00    +0.000 C 
ATOM     33  N   UNL     1       5.402   4.025  14.537  0.00  0.00    +0.000 NA
ENDBRANCH  26  28
ENDBRANCH  19  22
ENDBRANCH   4  19
TORSDOF 5
ENDMDL
MODEL 2
REMARK VINA RESULT:      -9.1      0.452      1.585
REMARK  Name = 
REMARK  8 active torsions:
REMARK  status: ('A' for Active; 'I' for Inactive)
REMARK    1  A    between atoms: C_1  and  C_2
REMARK    2  A    between atoms: C_4  and  C_5
REMARK    3  A    between atoms: C_7  and  N_8
REMARK    4  A    between atoms: C_9  and  C_11
REMARK    5  A    between atoms: N_14  and  S_15
REMARK    6  A    between atoms: S_15  and  C_18
REMARK    7  A    between atoms: C_22  and  C_23
REMARK    8  A    between atoms: C_26  and  C_27
REMARK                            x       y       z     vdW  Elec       q    Type
REMARK                         _______ _______ _______ _____ _____    ______ ____
ROOT
ATOM      1  C   UNL     1       1.279   9.402  19.949  0.00  0.00    +0.000 C 
ATOM      2  C   UNL     1       2.074   9.078  18.677  0.00  0.00    +0.000 C 
ATOM      3  C   UNL     1       1.881   7.623  18.286  0.00  0.00    +0.000 C 
ATOM      4  N   UNL     1       2.512   6.800  19.348  0.00  0.00    +0.000 NA
ATOM      5  C   UNL     1       1.766   6.927  20.633  0.00  0.00    +0.000 C 
ATOM      6  C   UNL     1       1.585   8.389  21.064  0.00  0.00    +0.000 C 
ENDROOT
BRANCH   1   8
ATOM      7  N   UNL     1      -0.456  10.387  18.527  0.00  0.00    +0.000 N 
ATOM      8  C   UNL     1      -0.213   9.563  19.614  0.00  0.00    +0.000 C 
ATOM      9  O   UNL     1      -1.063   8.927  20.229  0.00  0.00    +0.000 OA
ATOM     10  H   UNL     1       0.348  10.757  18.037  0.00  0.00    +0.000 HD
BRANCH   7  17
ATOM     11  C   UNL     1      -4.874  12.523  18.894  0.00  0.00    +0.000 C 
ATOM     12  C   UNL     1      -3.900  11.698  18.105  0.00  0.00    +0.000 A 
ATOM     13  C   UNL     1      -4.223  11.245  16.820  0.00  0.00    +0.000 A 
ATOM     14  C   UNL     1      -3.310  10.484  16.086  0.00  0.00    +0.000 A 
ATOM     15  C   UNL     1      -3.642   9.982  14.711  0.00  0.00    +0.000 C 
ATOM     16  C   UNL     1      -2.062  10.179  16.650  0.00  0.00    +0.000 A 
ATOM     17  C   UNL     1      -1.711  10.625  17.924  0.00  0.00    +0.000 A 
ATOM     18  C   UNL     1      -2.651  11.369  18.654  0.00  0.00    +0.000 A 
ENDBRANCH   7  17
ENDBRANCH   1   8
BRANCH   4  19
ATOM     19  S   UNL     1       2.781   5.161  18.882  0.00  0.00    +0.000 S 
ATOM     20  O   UNL     1       2.618   4.333  20.060  0.00  0.00    +0.000 OA
ATOM     21  O   UNL     1       1.999   4.919  17.688  0.00  0.00    +0.000 OA
BRANCH  19  22
ATOM     22  C   UNL     1       4.505   5.121  18.450  0.00  0.00    +0.000 A 
ATOM     23  C   UNL     1       5.484   5.356  19.418  0.00  0.00    +0.000 A 
ATOM     24  C   UNL     1       6.829   5.379  19.042  0.00  0.00    +0.000 A 
ATOM     25  C   UNL     1       7.191   5.172  17.705  0.00  0.00    +0.000 A 
ATOM     26  C   UNL     1       6.210   4.936  16.730  0.00  0.00    +0.000 A 
ATOM     27  C   UNL     1       4.861   4.916  17.113  0.00  0.00    +0.000 A 
BRANCH  26  28
ATOM     28  C   UNL     1       6.569   4.727  15.330  0.00  0.00    +0.000 A 
ATOM     29  N   UNL     1       7.542   5.384  14.682  0.00  0.00    +0.000 NA
ATOM     30  O   UNL     1       7.493   4.862  13.387  0.00  0.00    +0.000 OA
ATOM     31  C   UNL     1       6.493   3.935  13.388  0.00  0.00    +0.000 A 
ATOM     32  C   UNL     1       6.216   3.233  12.122  0.00  0.00    +0.000 C 
ATOM     33  N   UNL     1       5.901   3.805  14.547  0.00  0.00    +0.000 NA
ENDBRANCH  26  28
ENDBRANCH  19  22
ENDBRANCH   4  19
TORSDOF 5
ENDMDL
MODEL 3
REMARK VINA RESULT:      -8.5      2.065      2.959
REMARK  Name = 
REMARK  8 active torsions:
REMARK  status: ('A' for Active; 'I' for Inactive)
REMARK    1  A    between atoms: C_1  and  C_2
REMARK    2  A    between atoms: C_4  and  C_5
REMARK    3  A    between atoms: C_7  and  N_8
REMARK    4  A    between atoms: C_9  and  C_11
REMARK    5  A    between atoms: N_14  and  S_15
REMARK    6  A    between atoms: S_15  and  C_18
REMARK    7  A    between atoms: C_22  and  C_23
REMARK    8  A    between atoms: C_26  and  C_27
REMARK                            x       y       z     vdW  Elec       q    Type
REMARK                         _______ _______ _______ _____ _____    ______ ____
ROOT
ATOM      1  C   UNL     1       1.224   9.302  19.898  0.00  0.00    +0.000 C 
ATOM      2  C   UNL     1       1.953   9.025  18.576  0.00  0.00    +0.000 C 
ATOM      3  C   UNL     1       1.672   7.610  18.100  0.00  0.00    +0.000 C 
ATOM      4  N   UNL     1       2.301   6.689  19.080  0.00  0.00    +0.000 NA
ATOM      5  C   UNL     1       1.611   6.765  20.400  0.00  0.00    +0.000 C 
ATOM      6  C   UNL     1       1.521   8.203  20.932  0.00  0.00    +0.000 C 
ENDROOT
BRANCH   1   8
ATOM      7  N   UNL     1      -0.513  10.392  18.559  0.00  0.00    +0.000 N 
ATOM      8  C   UNL     1      -0.270   9.556  19.636  0.00  0.00    +0.000 C 
ATOM      9  O   UNL     1      -1.126   8.975  20.295  0.00  0.00    +0.000 OA
ATOM     10  H   UNL     1       0.287  10.710  18.028  0.00  0.00    +0.000 HD
BRANCH   7  17
ATOM     11  C   UNL     1      -3.551  10.066  14.702  0.00  0.00    +0.000 C 
ATOM     12  C   UNL     1      -3.290  10.533  16.103  0.00  0.00    +0.000 A 
ATOM     13  C   UNL     1      -4.283  11.197  16.832  0.00  0.00    +0.000 A 
ATOM     14  C   UNL     1      -4.038  11.623  18.140  0.00  0.00    +0.000 A 
ATOM     15  C   UNL     1      -5.088  12.344  18.935  0.00  0.00    +0.000 C 
ATOM     16  C   UNL     1      -2.783  11.376  18.719  0.00  0.00    +0.000 A 
ATOM     17  C   UNL     1      -1.779  10.708  18.017  0.00  0.00    +0.000 A 
ATOM     18  C   UNL     1      -2.038  10.308  16.697  0.00  0.00    +0.000 A 
ENDBRANCH   7  17
ENDBRANCH   1   8
BRANCH   4  19
ATOM     19  S   UNL     1       2.468   5.074  18.498  0.00  0.00    +0.000 S 
ATOM     20  O   UNL     1       2.589   4.200  19.647  0.00  0.00    +0.000 OA
ATOM     21  O   UNL     1       1.433   4.863  17.507  0.00  0.00    +0.000 OA
BRANCH  19  22
ATOM     22  C   UNL     1       4.046   5.081  17.679  0.00  0.00    +0.000 A 
ATOM     23  C   UNL     1       4.352   4.112  16.721  0.00  0.00    +0.000 A 
ATOM     24  C   UNL     1       5.621   4.103  16.135  0.00  0.00    +0.000 A 
ATOM     25  C   UNL     1       6.577   5.055  16.509  0.00  0.00    +0.000 A 
ATOM     26  C   UNL     1       6.272   6.030  17.471  0.00  0.00    +0.000 A 
ATOM     27  C   UNL     1       4.997   6.034  18.057  0.00  0.00    +0.000 A 
BRANCH  26  28
ATOM     28  C   UNL     1       7.260   7.026  17.879  0.00  0.00    +0.000 A 
ATOM     29  N   UNL     1       8.213   6.826  18.800  0.00  0.00    +0.000 NA
ATOM     30  O   UNL     1       8.886   8.050  18.857  0.00  0.00    +0.000 OA
ATOM     31  C   UNL     1       8.267   8.865  17.956  0.00  0.00    +0.000 A 
ATOM     32  C   UNL     1       8.778  10.241  17.823  0.00  0.00    +0.000 C 
ATOM     33  N   UNL     1       7.276   8.291  17.325  0.00  0.00    +0.000 NA
ENDBRANCH  26  28
ENDBRANCH  19  22
ENDBRANCH   4  19
TORSDOF 5
ENDMDL
MODEL 4
REMARK VINA RESULT:      -8.4      4.106      9.626
REMARK  Name = 
REMARK  8 active torsions:
REMARK  status: ('A' for Active; 'I' for Inactive)
REMARK    1  A    between atoms: C_1  and  C_2
REMARK    2  A    between atoms: C_4  and  C_5
REMARK    3  A    between atoms: C_7  and  N_8
REMARK    4  A    between atoms: C_9  and  C_11
REMARK    5  A    between atoms: N_14  and  S_15
REMARK    6  A    between atoms: S_15  and  C_18
REMARK    7  A    between atoms: C_22  and  C_23
REMARK    8  A    between atoms: C_26  and  C_27
REMARK                            x       y       z     vdW  Elec       q    Type
REMARK                         _______ _______ _______ _____ _____    ______ ____
ROOT
ATOM      1  C   UNL     1       7.709   6.662  17.769  0.00  0.00    +0.000 C 
ATOM      2  C   UNL     1       6.686   6.285  16.689  0.00  0.00    +0.000 C 
ATOM      3  C   UNL     1       5.272   6.448  17.218  0.00  0.00    +0.000 C 
ATOM      4  N   UNL     1       5.087   5.433  18.285  0.00  0.00    +0.000 NA
ATOM      5  C   UNL     1       5.945   5.739  19.464  0.00  0.00    +0.000 C 
ATOM      6  C   UNL     1       7.423   5.917  19.084  0.00  0.00    +0.000 C 
ENDROOT
BRANCH   1   8
ATOM      7  N   UNL     1       8.780   8.615  18.787  0.00  0.00    +0.000 N 
ATOM      8  C   UNL     1       7.804   8.191  17.900  0.00  0.00    +0.000 C 
ATOM      9  O   UNL     1       7.118   8.921  17.194  0.00  0.00    +0.000 OA
ATOM     10  H   UNL     1       9.356   7.905  19.218  0.00  0.00    +0.000 HD
BRANCH   7  17
ATOM     11  C   UNL     1       9.291  12.253  22.061  0.00  0.00    +0.000 C 
ATOM     12  C   UNL     1       9.434  11.754  20.653  0.00  0.00    +0.000 A 
ATOM     13  C   UNL     1       9.976  12.572  19.656  0.00  0.00    +0.000 A 
ATOM     14  C   UNL     1      10.115  12.100  18.348  0.00  0.00    +0.000 A 
ATOM     15  C   UNL     1      10.686  12.965  17.263  0.00  0.00    +0.000 C 
ATOM     16  C   UNL     1       9.705  10.792  18.044  0.00  0.00    +0.000 A 
ATOM     17  C   UNL     1       9.169   9.953  19.022  0.00  0.00    +0.000 A 
ATOM     18  C   UNL     1       9.018  10.454  20.324  0.00  0.00    +0.000 A 
ENDBRANCH   7  17
ENDBRANCH   1   8
BRANCH   4  19
ATOM     19  S   UNL     1       3.434   5.167  18.703  0.00  0.00    +0.000 S 
ATOM     20  O   UNL     1       2.824   4.406  17.632  0.00  0.00    +0.000 OA
ATOM     21  O   UNL     1       3.407   4.685  20.068  0.00  0.00    +0.000 OA
BRANCH  19  22
ATOM     22  C   UNL     1       2.720   6.794  18.660  0.00  0.00    +0.000 A 
ATOM     23  C   UNL     1       2.802   7.575  17.505  0.00  0.00    +0.000 A 
ATOM     24  C   UNL     1       2.286   8.873  17.516  0.00  0.00    +0.000 A 
ATOM     25  C   UNL     1       1.694   9.387  18.676  0.00  0.00    +0.000 A 
ATOM     26  C   UNL     1       1.610   8.606  19.839  0.00  0.00    +0.000 A 
ATOM     27  C   UNL     1       2.132   7.303  19.823  0.00  0.00    +0.000 A 
BRANCH  26  28
ATOM     28  C   UNL     1       1.004   9.129  21.061  0.00  0.00    +0.000 A 
ATOM     29  N   UNL     1       1.182   8.612  22.285  0.00  0.00    +0.000 NA
ATOM     30  O   UNL     1       0.401   9.427  23.109  0.00  0.00    +0.000 OA
ATOM     31  C   UNL     1      -0.166  10.360  22.292  0.00  0.00    +0.000 A 
ATOM     32  C   UNL     1      -1.062  11.351  22.914  0.00  0.00    +0.000 C 
ATOM     33  N   UNL     1       0.173  10.231  21.036  0.00  0.00    +0.000 NA
ENDBRANCH  26  28
ENDBRANCH  19  22
ENDBRANCH   4  19
TORSDOF 5
ENDMDL
MODEL 5
REMARK VINA RESULT:      -8.4      1.002      2.025
REMARK  Name = 
REMARK  8 active torsions:
REMARK  status: ('A' for Active; 'I' for Inactive)
REMARK    1  A    between atoms: C_1  and  C_2
REMARK    2  A    between atoms: C_4  and  C_5
REMARK    3  A    between atoms: C_7  and  N_8
REMARK    4  A    between atoms: C_9  and  C_11
REMARK    5  A    between atoms: N_14  and  S_15
REMARK    6  A    between atoms: S_15  and  C_18
REMARK    7  A    between atoms: C_22  and  C_23
REMARK    8  A    between atoms: C_26  and  C_27
REMARK                            x       y       z     vdW  Elec       q    Type
REMARK                         _______ _______ _______ _____ _____    ______ ____
ROOT
ATOM      1  C   UNL     1       1.382   9.895  19.344  0.00  0.00    +0.000 C 
ATOM      2  C   UNL     1       2.267   9.384  18.199  0.00  0.00    +0.000 C 
ATOM      3  C   UNL     1       1.999   7.913  17.937  0.00  0.00    +0.000 C 
ATOM      4  N   UNL     1       2.460   7.167  19.134  0.00  0.00    +0.000 NA
ATOM      5  C   UNL     1       1.607   7.479  20.316  0.00  0.00    +0.000 C 
ATOM      6  C   UNL     1       1.501   8.988  20.580  0.00  0.00    +0.000 C 
ENDROOT
BRANCH   1   8
ATOM      7  N   UNL     1      -0.813  10.931  19.673  0.00  0.00    +0.000 N 
ATOM      8  C   UNL     1      -0.054  10.121  18.844  0.00  0.00    +0.000 C 
ATOM      9  O   UNL     1      -0.414   9.677  17.759  0.00  0.00    +0.000 OA
ATOM     10  H   UNL     1      -0.353  11.328  20.482  0.00  0.00    +0.000 HD
BRANCH   7  17
ATOM     11  C   UNL     1      -4.609  13.649  21.228  0.00  0.00    +0.000 C 
ATOM     12  C   UNL     1      -3.998  12.763  20.182  0.00  0.00    +0.000 A 
ATOM     13  C   UNL     1      -4.685  12.478  18.997  0.00  0.00    +0.000 A 
ATOM     14  C   UNL     1      -4.109  11.659  18.022  0.00  0.00    +0.000 A 
ATOM     15  C   UNL     1      -4.833  11.334  16.748  0.00  0.00    +0.000 C 
ATOM     16  C   UNL     1      -2.829  11.126  18.243  0.00  0.00    +0.000 A 
ATOM     17  C   UNL     1      -2.119  11.402  19.412  0.00  0.00    +0.000 A 
ATOM     18  C   UNL     1      -2.725  12.208  20.388  0.00  0.00    +0.000 A 
ENDBRANCH   7  17
ENDBRANCH   1   8
BRANCH   4  19
ATOM     19  S   UNL     1       2.643   5.473  18.861  0.00  0.00    +0.000 S 
ATOM     20  O   UNL     1       2.430   4.796  20.125  0.00  0.00    +0.000 OA
ATOM     21  O   UNL     1       1.856   5.136  17.694  0.00  0.00    +0.000 OA
BRANCH  19  22
ATOM     22  C   UNL     1       4.365   5.293  18.457  0.00  0.00    +0.000 A 
ATOM     23  C   UNL     1       5.342   5.415  19.447  0.00  0.00    +0.000 A 
ATOM     24  C   UNL     1       6.692   5.330  19.093  0.00  0.00    +0.000 A 
ATOM     25  C   UNL     1       7.059   5.127  17.758  0.00  0.00    +0.000 A 
ATOM     26  C   UNL     1       6.080   5.005  16.761  0.00  0.00    +0.000 A 
ATOM     27  C   UNL     1       4.727   5.092  17.121  0.00  0.00    +0.000 A 
BRANCH  26  28
ATOM     28  C   UNL     1       6.445   4.801  15.361  0.00  0.00    +0.000 A 
ATOM     29  N   UNL     1       7.397   5.485  14.711  0.00  0.00    +0.000 NA
ATOM     30  O   UNL     1       7.365   4.957  13.418  0.00  0.00    +0.000 OA
ATOM     31  C   UNL     1       6.394   4.001  13.422  0.00  0.00    +0.000 A 
ATOM     32  C   UNL     1       6.139   3.286  12.159  0.00  0.00    +0.000 C 
ATOM     33  N   UNL     1       5.806   3.857  14.582  0.00  0.00    +0.000 NA
ENDBRANCH  26  28
ENDBRANCH  19  22
ENDBRANCH   4  19
TORSDOF 5
ENDMDL
MODEL 6
REMARK VINA RESULT:      -8.3      3.812      8.656
REMARK  Name = 
REMARK  8 active torsions:
REMARK  status: ('A' for Active; 'I' for Inactive)
REMARK    1  A    between atoms: C_1  and  C_2
REMARK    2  A    between atoms: C_4  and  C_5
REMARK    3  A    between atoms: C_7  and  N_8
REMARK    4  A    between atoms: C_9  and  C_11
REMARK    5  A    between atoms: N_14  and  S_15
REMARK    6  A    between atoms: S_15  and  C_18
REMARK    7  A    between atoms: C_22  and  C_23
REMARK    8  A    between atoms: C_26  and  C_27
REMARK                            x       y       z     vdW  Elec       q    Type
REMARK                         _______ _______ _______ _____ _____    ______ ____
ROOT
ATOM      1  C   UNL     1       7.708   6.093  17.514  0.00  0.00    +0.000 C 
ATOM      2  C   UNL     1       6.915   5.551  16.316  0.00  0.00    +0.000 C 
ATOM      3  C   UNL     1       5.443   5.428  16.666  0.00  0.00    +0.000 C 
ATOM      4  N   UNL     1       5.329   4.373  17.704  0.00  0.00    +0.000 NA
ATOM      5  C   UNL     1       5.963   4.812  18.980  0.00  0.00    +0.000 C 
ATOM      6  C   UNL     1       7.413   5.278  18.784  0.00  0.00    +0.000 C 
ENDROOT
BRANCH   1   8
ATOM      7  N   UNL     1       8.515   8.262  18.316  0.00  0.00    +0.000 N 
ATOM      8  C   UNL     1       7.489   7.609  17.653  0.00  0.00    +0.000 C 
ATOM      9  O   UNL     1       6.522   8.150  17.128  0.00  0.00    +0.000 OA
ATOM     10  H   UNL     1       9.313   7.708  18.597  0.00  0.00    +0.000 HD
BRANCH   7  17
ATOM     11  C   UNL     1      10.513  11.939  20.905  0.00  0.00    +0.000 C 
ATOM     12  C   UNL     1       9.645  11.483  19.769  0.00  0.00    +0.000 A 
ATOM     13  C   UNL     1       9.047  12.411  18.909  0.00  0.00    +0.000 A 
ATOM     14  C   UNL     1       8.247  11.980  17.847  0.00  0.00    +0.000 A 
ATOM     15  C   UNL     1       7.590  12.960  16.919  0.00  0.00    +0.000 C 
ATOM     16  C   UNL     1       8.049  10.605  17.651  0.00  0.00    +0.000 A 
ATOM     17  C   UNL     1       8.641   9.659  18.488  0.00  0.00    +0.000 A 
ATOM     18  C   UNL     1       9.423  10.112  19.562  0.00  0.00    +0.000 A 
ENDBRANCH   7  17
ENDBRANCH   1   8
BRANCH   4  19
ATOM     19  S   UNL     1       3.721   3.785  17.915  0.00  0.00    +0.000 S 
ATOM     20  O   UNL     1       3.051   3.857  16.632  0.00  0.00    +0.000 OA
ATOM     21  O   UNL     1       3.810   2.535  18.640  0.00  0.00    +0.000 OA
BRANCH  19  22
ATOM     22  C   UNL     1       2.962   5.000  18.969  0.00  0.00    +0.000 A 
ATOM     23  C   UNL     1       2.509   4.650  20.243  0.00  0.00    +0.000 A 
ATOM     24  C   UNL     1       1.862   5.608  21.028  0.00  0.00    +0.000 A 
ATOM     25  C   UNL     1       1.667   6.905  20.540  0.00  0.00    +0.000 A 
ATOM     26  C   UNL     1       2.121   7.260  19.260  0.00  0.00    +0.000 A 
ATOM     27  C   UNL     1       2.768   6.294  18.475  0.00  0.00    +0.000 A 
BRANCH  26  28
ATOM     28  C   UNL     1       1.918   8.606  18.730  0.00  0.00    +0.000 A 
ATOM     29  N   UNL     1       2.340   9.028  17.530  0.00  0.00    +0.000 NA
ATOM     30  O   UNL     1       1.935  10.365  17.484  0.00  0.00    +0.000 OA
ATOM     31  C   UNL     1       1.304  10.611  18.667  0.00  0.00    +0.000 A 
ATOM     32  C   UNL     1       0.783  11.972  18.887  0.00  0.00    +0.000 C 
ATOM     33  N   UNL     1       1.256   9.574  19.461  0.00  0.00    +0.000 NA
ENDBRANCH  26  28
ENDBRANCH  19  22
ENDBRANCH   4  19
TORSDOF 5
ENDMDL
MODEL 7
REMARK VINA RESULT:      -8.1      4.163      9.575
REMARK  Name = 
REMARK  8 active torsions:
REMARK  status: ('A' for Active; 'I' for Inactive)
REMARK    1  A    between atoms: C_1  and  C_2
REMARK    2  A    between atoms: C_4  and  C_5
REMARK    3  A    between atoms: C_7  and  N_8
REMARK    4  A    between atoms: C_9  and  C_11
REMARK    5  A    between atoms: N_14  and  S_15
REMARK    6  A    between atoms: S_15  and  C_18
REMARK    7  A    between atoms: C_22  and  C_23
REMARK    8  A    between atoms: C_26  and  C_27
REMARK                            x       y       z     vdW  Elec       q    Type
REMARK                         _______ _______ _______ _____ _____    ______ ____
ROOT
ATOM      1  C   UNL     1       7.755   6.805  17.724  0.00  0.00    +0.000 C 
ATOM      2  C   UNL     1       6.687   6.511  16.662  0.00  0.00    +0.000 C 
ATOM      3  C   UNL     1       5.296   6.633  17.258  0.00  0.00    +0.000 C 
ATOM      4  N   UNL     1       5.151   5.541  18.253  0.00  0.00    +0.000 NA
ATOM      5  C   UNL     1       6.059   5.758  19.416  0.00  0.00    +0.000 C 
ATOM      6  C   UNL     1       7.520   5.963  18.990  0.00  0.00    +0.000 C 
ENDROOT
BRANCH   1   8
ATOM      7  N   UNL     1       8.858   8.674  18.859  0.00  0.00    +0.000 N 
ATOM      8  C   UNL     1       7.860   8.319  17.966  0.00  0.00    +0.000 C 
ATOM      9  O   UNL     1       7.161   9.102  17.332  0.00  0.00    +0.000 OA
ATOM     10  H   UNL     1       9.441   7.932  19.222  0.00  0.00    +0.000 HD
BRANCH   7  17
ATOM     11  C   UNL     1      10.779  12.914  17.264  0.00  0.00    +0.000 C 
ATOM     12  C   UNL     1      10.202  12.099  18.383  0.00  0.00    +0.000 A 
ATOM     13  C   UNL     1      10.033  12.652  19.658  0.00  0.00    +0.000 A 
ATOM     14  C   UNL     1       9.488  11.891  20.695  0.00  0.00    +0.000 A 
ATOM     15  C   UNL     1       9.306  12.464  22.070  0.00  0.00    +0.000 C 
ATOM     16  C   UNL     1       9.109  10.563  20.445  0.00  0.00    +0.000 A 
ATOM     17  C   UNL     1       9.259   9.990  19.182  0.00  0.00    +0.000 A 
ATOM     18  C   UNL     1       9.829  10.764  18.160  0.00  0.00    +0.000 A 
ENDBRANCH   7  17
ENDBRANCH   1   8
BRANCH   4  19
ATOM     19  S   UNL     1       3.516   5.244  18.718  0.00  0.00    +0.000 S 
ATOM     20  O   UNL     1       2.898   4.449  17.676  0.00  0.00    +0.000 OA
ATOM     21  O   UNL     1       3.535   4.788  20.091  0.00  0.00    +0.000 OA
BRANCH  19  22
ATOM     22  C   UNL     1       2.763   6.853  18.663  0.00  0.00    +0.000 A 
ATOM     23  C   UNL     1       2.976   7.700  17.573  0.00  0.00    +0.000 A 
ATOM     24  C   UNL     1       2.421   8.982  17.582  0.00  0.00    +0.000 A 
ATOM     25  C   UNL     1       1.662   9.415  18.675  0.00  0.00    +0.000 A 
ATOM     26  C   UNL     1       1.447   8.567  19.772  0.00  0.00    +0.000 A 
ATOM     27  C   UNL     1       2.007   7.281  19.759  0.00  0.00    +0.000 A 
BRANCH  26  28
ATOM     28  C   UNL     1       0.664   9.005  20.926  0.00  0.00    +0.000 A 
ATOM     29  N   UNL     1       0.212   8.197  21.895  0.00  0.00    +0.000 NA
ATOM     30  O   UNL     1      -0.483   9.056  22.750  0.00  0.00    +0.000 OA
ATOM     31  C   UNL     1      -0.374  10.302  22.207  0.00  0.00    +0.000 A 
ATOM     32  C   UNL     1      -1.039  11.411  22.913  0.00  0.00    +0.000 C 
ATOM     33  N   UNL     1       0.322  10.332  21.100  0.00  0.00    +0.000 NA
ENDBRANCH  26  28
ENDBRANCH  19  22
ENDBRANCH   4  19
TORSDOF 5
ENDMDL
MODEL 8
REMARK VINA RESULT:      -8.0      3.778      9.342
REMARK  Name = 
REMARK  8 active torsions:
REMARK  status: ('A' for Active; 'I' for Inactive)
REMARK    1  A    between atoms: C_1  and  C_2
REMARK    2  A    between atoms: C_4  and  C_5
REMARK    3  A    between atoms: C_7  and  N_8
REMARK    4  A    between atoms: C_9  and  C_11
REMARK    5  A    between atoms: N_14  and  S_15
REMARK    6  A    between atoms: S_15  and  C_18
REMARK    7  A    between atoms: C_22  and  C_23
REMARK    8  A    between atoms: C_26  and  C_27
REMARK                            x       y       z     vdW  Elec       q    Type
REMARK                         _______ _______ _______ _____ _____    ______ ____
ROOT
ATOM      1  C   UNL     1       7.129   6.142  17.210  0.00  0.00    +0.000 C 
ATOM      2  C   UNL     1       5.818   6.671  16.613  0.00  0.00    +0.000 C 
ATOM      3  C   UNL     1       4.756   6.796  17.691  0.00  0.00    +0.000 C 
ATOM      4  N   UNL     1       4.436   5.421  18.149  0.00  0.00    +0.000 NA
ATOM      5  C   UNL     1       5.597   4.814  18.861  0.00  0.00    +0.000 C 
ATOM      6  C   UNL     1       6.886   4.862  18.028  0.00  0.00    +0.000 C 
ENDROOT
BRANCH   1   8
ATOM      7  N   UNL     1       7.773   8.500  17.350  0.00  0.00    +0.000 N 
ATOM      8  C   UNL     1       7.858   7.264  17.968  0.00  0.00    +0.000 C 
ATOM      9  O   UNL     1       8.374   7.047  19.059  0.00  0.00    +0.000 OA
ATOM     10  H   UNL     1       7.215   8.562  16.509  0.00  0.00    +0.000 HD
BRANCH   7  17
ATOM     11  C   UNL     1       7.535  13.413  17.194  0.00  0.00    +0.000 C 
ATOM     12  C   UNL     1       8.113  12.167  17.799  0.00  0.00    +0.000 A 
ATOM     13  C   UNL     1       9.026  12.243  18.856  0.00  0.00    +0.000 A 
ATOM     14  C   UNL     1       9.555  11.080  19.421  0.00  0.00    +0.000 A 
ATOM     15  C   UNL     1      10.543  11.141  20.550  0.00  0.00    +0.000 C 
ATOM     16  C   UNL     1       9.159   9.831  18.918  0.00  0.00    +0.000 A 
ATOM     17  C   UNL     1       8.243   9.727  17.871  0.00  0.00    +0.000 A 
ATOM     18  C   UNL     1       7.740  10.908  17.302  0.00  0.00    +0.000 A 
ENDBRANCH   7  17
ENDBRANCH   1   8
BRANCH   4  19
ATOM     19  S   UNL     1       2.965   5.318  19.045  0.00  0.00    +0.000 S 
ATOM     20  O   UNL     1       2.060   4.457  18.310  0.00  0.00    +0.000 OA
ATOM     21  O   UNL     1       3.316   5.030  20.419  0.00  0.00    +0.000 OA
BRANCH  19  22
ATOM     22  C   UNL     1       2.303   6.966  18.961  0.00  0.00    +0.000 A 
ATOM     23  C   UNL     1       2.359   7.693  17.769  0.00  0.00    +0.000 A 
ATOM     24  C   UNL     1       1.886   9.007  17.746  0.00  0.00    +0.000 A 
ATOM     25  C   UNL     1       1.364   9.591  18.907  0.00  0.00    +0.000 A 
ATOM     26  C   UNL     1       1.307   8.863  20.105  0.00  0.00    +0.000 A 
ATOM     27  C   UNL     1       1.784   7.544  20.124  0.00  0.00    +0.000 A 
BRANCH  26  28
ATOM     28  C   UNL     1       0.774   9.458  21.328  0.00  0.00    +0.000 A 
ATOM     29  N   UNL     1       1.311   9.312  22.547  0.00  0.00    +0.000 NA
ATOM     30  O   UNL     1       0.454  10.037  23.380  0.00  0.00    +0.000 OA
ATOM     31  C   UNL     1      -0.515  10.552  22.571  0.00  0.00    +0.000 A 
ATOM     32  C   UNL     1      -1.572  11.359  23.206  0.00  0.00    +0.000 C 
ATOM     33  N   UNL     1      -0.365  10.239  21.310  0.00  0.00    +0.000 NA
ENDBRANCH  26  28
ENDBRANCH  19  22
ENDBRANCH   4  19
TORSDOF 5
ENDMDL
MODEL 9
REMARK VINA RESULT:      -8.0      3.870      8.971
REMARK  Name = 
REMARK  8 active torsions:
REMARK  status: ('A' for Active; 'I' for Inactive)
REMARK    1  A    between atoms: C_1  and  C_2
REMARK    2  A    between atoms: C_4  and  C_5
REMARK    3  A    between atoms: C_7  and  N_8
REMARK    4  A    between atoms: C_9  and  C_11
REMARK    5  A    between atoms: N_14  and  S_15
REMARK    6  A    between atoms: S_15  and  C_18
REMARK    7  A    between atoms: C_22  and  C_23
REMARK    8  A    between atoms: C_26  and  C_27
REMARK                            x       y       z     vdW  Elec       q    Type
REMARK                         _______ _______ _______ _____ _____    ______ ____
ROOT
ATOM      1  C   UNL     1       8.076   5.902  18.495  0.00  0.00    +0.000 C 
ATOM      2  C   UNL     1       7.802   5.022  17.267  0.00  0.00    +0.000 C 
ATOM      3  C   UNL     1       6.321   5.022  16.933  0.00  0.00    +0.000 C 
ATOM      4  N   UNL     1       5.623   4.339  18.052  0.00  0.00    +0.000 NA
ATOM      5  C   UNL     1       5.707   5.146  19.302  0.00  0.00    +0.000 C 
ATOM      6  C   UNL     1       7.152   5.520  19.663  0.00  0.00    +0.000 C 
ENDROOT
BRANCH   1   8
ATOM      7  N   UNL     1       8.668   8.221  19.012  0.00  0.00    +0.000 N 
ATOM      8  C   UNL     1       8.040   7.388  18.101  0.00  0.00    +0.000 C 
ATOM      9  O   UNL     1       7.566   7.737  17.026  0.00  0.00    +0.000 OA
ATOM     10  H   UNL     1       9.123   7.786  19.803  0.00  0.00    +0.000 HD
BRANCH   7  17
ATOM     11  C   UNL     1      11.431  12.116  20.201  0.00  0.00    +0.000 C 
ATOM     12  C   UNL     1      10.274  11.538  19.441  0.00  0.00    +0.000 A 
ATOM     13  C   UNL     1       9.505  12.341  18.591  0.00  0.00    +0.000 A 
ATOM     14  C   UNL     1       8.433  11.796  17.879  0.00  0.00    +0.000 A 
ATOM     15  C   UNL     1       7.591  12.643  16.969  0.00  0.00    +0.000 C 
ATOM     16  C   UNL     1       8.135  10.432  18.024  0.00  0.00    +0.000 A 
ATOM     17  C   UNL     1       8.891   9.608  18.858  0.00  0.00    +0.000 A 
ATOM     18  C   UNL     1       9.950  10.179  19.581  0.00  0.00    +0.000 A 
ENDBRANCH   7  17
ENDBRANCH   1   8
BRANCH   4  19
ATOM     19  S   UNL     1       4.012   3.856  17.666  0.00  0.00    +0.000 S 
ATOM     20  O   UNL     1       3.605   4.582  16.480  0.00  0.00    +0.000 OA
ATOM     21  O   UNL     1       3.976   2.409  17.703  0.00  0.00    +0.000 OA
BRANCH  19  22
ATOM     22  C   UNL     1       3.047   4.483  19.021  0.00  0.00    +0.000 A 
ATOM     23  C   UNL     1       2.546   3.618  19.995  0.00  0.00    +0.000 A 
ATOM     24  C   UNL     1       1.739   4.128  21.016  0.00  0.00    +0.000 A 
ATOM     25  C   UNL     1       1.435   5.494  21.059  0.00  0.00    +0.000 A 
ATOM     26  C   UNL     1       1.937   6.366  20.081  0.00  0.00    +0.000 A 
ATOM     27  C   UNL     1       2.745   5.848  19.057  0.00  0.00    +0.000 A 
BRANCH  26  28
ATOM     28  C   UNL     1       1.623   7.792  20.105  0.00  0.00    +0.000 A 
ATOM     29  N   UNL     1       1.214   8.468  21.188  0.00  0.00    +0.000 NA
ATOM     30  O   UNL     1       1.027   9.771  20.719  0.00  0.00    +0.000 OA
ATOM     31  C   UNL     1       1.349   9.747  19.394  0.00  0.00    +0.000 A 
ATOM     32  C   UNL     1       1.223  11.008  18.642  0.00  0.00    +0.000 C 
ATOM     33  N   UNL     1       1.727   8.570  18.968  0.00  0.00    +0.000 NA
ENDBRANCH  26  28
ENDBRANCH  19  22
ENDBRANCH   4  19
TORSDOF 5
ENDMDL
