MODEL 1
REMARK VINA RESULT:      -8.6      0.000      0.000
REMARK  Name = 
REMARK  7 active torsions:
REMARK  status: ('A' for Active; 'I' for Inactive)
REMARK    1  A    between atoms: C_1  and  C_2
REMARK    2  A    between atoms: C_4  and  C_5
REMARK    3  A    between atoms: C_9  and  C_10
REMARK    4  A    between atoms: C_15  and  C_16
REMARK    5  A    between atoms: C_16  and  C_17
REMARK    6  A    between atoms: C_20  and  C_21
REMARK    7  A    between atoms: C_20  and  C_23
REMARK                            x       y       z     vdW  Elec       q    Type
REMARK                         _______ _______ _______ _____ _____    ______ ____
ROOT
ATOM      1  C   UNL     1       1.089   9.593  18.489  0.00  0.00    +0.000 C 
ATOM      2  O   UNL     1       1.004   9.007  17.416  0.00  0.00    +0.000 OA
ATOM      3  N   UNL     1       1.457   9.007  19.683  0.00  0.00    +0.000 N 
ATOM      4  C   UNL     1       1.800   7.670  19.832  0.00  0.00    +0.000 A 
ATOM      5  C   UNL     1       2.603   7.020  18.892  0.00  0.00    +0.000 A 
ATOM      6  C   UNL     1       2.940   5.672  19.073  0.00  0.00    +0.000 A 
ATOM      7  C   UNL     1       2.387   5.039  20.193  0.00  0.00    +0.000 A 
ATOM      8  F   UNL     1       2.590   3.734  20.416  0.00  0.00    +0.000 F 
ATOM      9  C   UNL     1       1.606   5.759  21.081  0.00  0.00    +0.000 A 
ATOM     10  N   UNL     1       1.338   7.077  20.951  0.00  0.00    +0.000 NA
ATOM     11  H   UNL     1       1.195   9.496  20.532  0.00  0.00    +0.000 HD
ENDROOT
BRANCH   6  12
ATOM     12  C   UNL     1       3.879   4.893  18.146  0.00  0.00    +0.000 C 
ATOM     13  C   UNL     1       3.226   3.633  17.526  0.00  0.00    +0.000 C 
ATOM     14  C   UNL     1       5.128   4.453  18.965  0.00  0.00    +0.000 C 
ATOM     15  O   UNL     1       6.389   4.448  18.316  0.00  0.00    +0.000 OA
ATOM     16  C   UNL     1       6.618   5.425  17.310  0.00  0.00    +0.000 C 
ATOM     17  C   UNL     1       5.367   5.957  16.585  0.00  0.00    +0.000 C 
ATOM     18  N   UNL     1       5.504   6.729  15.457  0.00  0.00    +0.000 N 
ATOM     19  N   UNL     1       4.159   5.744  16.978  0.00  0.00    +0.000 NA
ATOM     20  H   UNL     1       6.308   7.356  15.445  0.00  0.00    +0.000 HD
ATOM     21  H   UNL     1       4.639   7.199  15.206  0.00  0.00    +0.000 HD
BRANCH  16  22
ATOM     22  C   UNL     1       7.397   6.631  17.853  0.00  0.00    +0.000 C 
ATOM     23  F   UNL     1       8.219   6.236  18.874  0.00  0.00    +0.000 F 
ENDBRANCH  16  22
BRANCH  16  24
ATOM     24  C   UNL     1       7.486   4.699  16.276  0.00  0.00    +0.000 C 
ATOM     25  F   UNL     1       6.749   3.731  15.653  0.00  0.00    +0.000 F 
ENDBRANCH  16  24
ENDBRANCH   6  12
BRANCH   1  32
ATOM     26  C   UNL     1      -1.783  10.651  18.566  0.00  0.00    +0.000 C 
ATOM     27  C   UNL     1      -0.572  11.536  18.628  0.00  0.00    +0.000 A 
ATOM     28  C   UNL     1      -0.747  12.929  18.685  0.00  0.00    +0.000 A 
ATOM     29  C   UNL     1       0.360  13.780  18.741  0.00  0.00    +0.000 A 
ATOM     30  C   UNL     1       1.618  13.206  18.765  0.00  0.00    +0.000 A 
ATOM     31  N   UNL     1       1.837  11.872  18.724  0.00  0.00    +0.000 NA
ATOM     32  C   UNL     1       0.746  11.058  18.626  0.00  0.00    +0.000 A 
BRANCH  29  33
ATOM     33  C   UNL     1       0.204  15.199  18.779  0.00  0.00    +0.000 C 
ATOM     34  N   UNL     1       0.078  16.349  18.807  0.00  0.00    +0.000 NA
ENDBRANCH  29  33
ENDBRANCH   1  32
TORSDOF 5
ENDMDL
MODEL 2
REMARK VINA RESULT:      -8.0      1.122      1.452
REMARK  Name = 
REMARK  7 active torsions:
REMARK  status: ('A' for Active; 'I' for Inactive)
REMARK    1  A    between atoms: C_1  and  C_2
REMARK    2  A    between atoms: C_4  and  C_5
REMARK    3  A    between atoms: C_9  and  C_10
REMARK    4  A    between atoms: C_15  and  C_16
REMARK    5  A    between atoms: C_16  and  C_17
REMARK    6  A    between atoms: C_20  and  C_21
REMARK    7  A    between atoms: C_20  and  C_23
REMARK                            x       y       z     vdW  Elec       q    Type
REMARK                         _______ _______ _______ _____ _____    ______ ____
ROOT
ATOM      1  C   UNL     1       1.185   9.369  18.983  0.00  0.00    +0.000 C 
ATOM      2  O   UNL     1       1.083   8.951  17.836  0.00  0.00    +0.000 OA
ATOM      3  N   UNL     1       1.568   8.610  20.070  0.00  0.00    +0.000 N 
ATOM      4  C   UNL     1       1.909   7.265  20.012  0.00  0.00    +0.000 A 
ATOM      5  C   UNL     1       2.698   6.763  18.973  0.00  0.00    +0.000 A 
ATOM      6  C   UNL     1       3.032   5.403  18.945  0.00  0.00    +0.000 A 
ATOM      7  C   UNL     1       2.494   4.610  19.965  0.00  0.00    +0.000 A 
ATOM      8  F   UNL     1       2.696   3.285  19.986  0.00  0.00    +0.000 F 
ATOM      9  C   UNL     1       1.728   5.189  20.962  0.00  0.00    +0.000 A 
ATOM     10  N   UNL     1       1.462   6.511  21.035  0.00  0.00    +0.000 NA
ATOM     11  H   UNL     1       1.320   8.966  20.986  0.00  0.00    +0.000 HD
ENDROOT
BRANCH   6  12
ATOM     12  C   UNL     1       3.957   4.771  17.898  0.00  0.00    +0.000 C 
ATOM     13  C   UNL     1       3.341   3.531  17.202  0.00  0.00    +0.000 C 
ATOM     14  C   UNL     1       5.277   4.342  18.600  0.00  0.00    +0.000 C 
ATOM     15  O   UNL     1       6.494   4.476  17.883  0.00  0.00    +0.000 OA
ATOM     16  C   UNL     1       6.601   5.551  16.960  0.00  0.00    +0.000 C 
ATOM     17  C   UNL     1       5.278   6.063  16.359  0.00  0.00    +0.000 C 
ATOM     18  N   UNL     1       5.298   6.939  15.301  0.00  0.00    +0.000 N 
ATOM     19  N   UNL     1       4.112   5.738  16.799  0.00  0.00    +0.000 NA
ATOM     20  H   UNL     1       6.061   7.615  15.301  0.00  0.00    +0.000 HD
ATOM     21  H   UNL     1       4.393   7.373  15.145  0.00  0.00    +0.000 HD
BRANCH  16  22
ATOM     22  C   UNL     1       7.340   6.752  17.566  0.00  0.00    +0.000 C 
ATOM     23  F   UNL     1       8.127   6.340  18.607  0.00  0.00    +0.000 F 
ENDBRANCH  16  22
BRANCH  16  24
ATOM     24  C   UNL     1       7.444   4.977  15.815  0.00  0.00    +0.000 C 
ATOM     25  F   UNL     1       6.744   3.992  15.176  0.00  0.00    +0.000 F 
ENDBRANCH  16  24
ENDBRANCH   6  12
BRANCH   1  32
ATOM     26  C   UNL     1       2.663  11.791  17.832  0.00  0.00    +0.000 C 
ATOM     27  C   UNL     1       1.551  11.899  18.836  0.00  0.00    +0.000 A 
ATOM     28  C   UNL     1       1.184  13.168  19.314  0.00  0.00    +0.000 A 
ATOM     29  C   UNL     1       0.155  13.300  20.251  0.00  0.00    +0.000 A 
ATOM     30  C   UNL     1      -0.497  12.153  20.664  0.00  0.00    +0.000 A 
ATOM     31  N   UNL     1      -0.188  10.912  20.225  0.00  0.00    +0.000 NA
ATOM     32  C   UNL     1       0.848  10.797  19.343  0.00  0.00    +0.000 A 
BRANCH  29  33
ATOM     33  C   UNL     1      -0.221  14.579  20.763  0.00  0.00    +0.000 C 
ATOM     34  N   UNL     1      -0.524  15.615  21.181  0.00  0.00    +0.000 NA
ENDBRANCH  29  33
ENDBRANCH   1  32
TORSDOF 5
ENDMDL
MODEL 3
REMARK VINA RESULT:      -7.7      0.994      1.069
REMARK  Name = 
REMARK  7 active torsions:
REMARK  status: ('A' for Active; 'I' for Inactive)
REMARK    1  A    between atoms: C_1  and  C_2
REMARK    2  A    between atoms: C_4  and  C_5
REMARK    3  A    between atoms: C_9  and  C_10
REMARK    4  A    between atoms: C_15  and  C_16
REMARK    5  A    between atoms: C_16  and  C_17
REMARK    6  A    between atoms: C_20  and  C_21
REMARK    7  A    between atoms: C_20  and  C_23
REMARK                            x       y       z     vdW  Elec       q    Type
REMARK                         _______ _______ _______ _____ _____    ______ ____
ROOT
ATOM      1  C   UNL     1       1.165  10.467  18.676  0.00  0.00    +0.000 C 
ATOM      2  O   UNL     1       0.975   9.878  17.619  0.00  0.00    +0.000 OA
ATOM      3  N   UNL     1       1.452   9.857  19.881  0.00  0.00    +0.000 N 
ATOM      4  C   UNL     1       1.582   8.485  20.059  0.00  0.00    +0.000 A 
ATOM      5  C   UNL     1       2.262   7.697  19.127  0.00  0.00    +0.000 A 
ATOM      6  C   UNL     1       2.385   6.317  19.337  0.00  0.00    +0.000 A 
ATOM      7  C   UNL     1       1.755   5.804  20.476  0.00  0.00    +0.000 A 
ATOM      8  F   UNL     1       1.753   4.488  20.728  0.00  0.00    +0.000 F 
ATOM      9  C   UNL     1       1.108   6.657  21.354  0.00  0.00    +0.000 A 
ATOM     10  N   UNL     1       1.048   7.997  21.195  0.00  0.00    +0.000 NA
ATOM     11  H   UNL     1       1.281  10.399  20.720  0.00  0.00    +0.000 HD
ENDROOT
BRANCH   6  12
ATOM     12  C   UNL     1       3.179   5.380  18.419  0.00  0.00    +0.000 C 
ATOM     13  C   UNL     1       2.294   4.337  17.691  0.00  0.00    +0.000 C 
ATOM     14  C   UNL     1       4.233   4.624  19.279  0.00  0.00    +0.000 C 
ATOM     15  O   UNL     1       5.499   4.350  18.703  0.00  0.00    +0.000 OA
ATOM     16  C   UNL     1       6.016   5.288  17.770  0.00  0.00    +0.000 C 
ATOM     17  C   UNL     1       4.975   6.131  17.008  0.00  0.00    +0.000 C 
ATOM     18  N   UNL     1       5.364   6.897  15.936  0.00  0.00    +0.000 N 
ATOM     19  N   UNL     1       3.728   6.191  17.320  0.00  0.00    +0.000 NA
ATOM     20  H   UNL     1       6.291   7.318  16.006  0.00  0.00    +0.000 HD
ATOM     21  H   UNL     1       4.651   7.568  15.666  0.00  0.00    +0.000 HD
BRANCH  16  22
ATOM     22  C   UNL     1       7.016   6.252  18.424  0.00  0.00    +0.000 C 
ATOM     23  F   UNL     1       7.276   5.856  19.708  0.00  0.00    +0.000 F 
ENDBRANCH  16  22
BRANCH  16  24
ATOM     24  C   UNL     1       6.760   4.424  16.745  0.00  0.00    +0.000 C 
ATOM     25  F   UNL     1       8.060   4.264  17.134  0.00  0.00    +0.000 F 
ENDBRANCH  16  24
ENDBRANCH   6  12
BRANCH   1  32
ATOM     26  C   UNL     1      -1.500  11.953  18.925  0.00  0.00    +0.000 C 
ATOM     27  C   UNL     1      -0.169  12.644  18.863  0.00  0.00    +0.000 A 
ATOM     28  C   UNL     1      -0.128  14.048  18.878  0.00  0.00    +0.000 A 
ATOM     29  C   UNL     1       1.096  14.721  18.820  0.00  0.00    +0.000 A 
ATOM     30  C   UNL     1       2.251  13.962  18.773  0.00  0.00    +0.000 A 
ATOM     31  N   UNL     1       2.263  12.610  18.768  0.00  0.00    +0.000 NA
ATOM     32  C   UNL     1       1.057  11.970  18.782  0.00  0.00    +0.000 A 
BRANCH  29  33
ATOM     33  C   UNL     1       1.158  16.148  18.815  0.00  0.00    +0.000 C 
ATOM     34  N   UNL     1       1.211  17.304  18.813  0.00  0.00    +0.000 NA
ENDBRANCH  29  33
ENDBRANCH   1  32
TORSDOF 5
ENDMDL
MODEL 4
REMARK VINA RESULT:      -7.6      3.176      4.190
REMARK  Name = 
REMARK  7 active torsions:
REMARK  status: ('A' for Active; 'I' for Inactive)
REMARK    1  A    between atoms: C_1  and  C_2
REMARK    2  A    between atoms: C_4  and  C_5
REMARK    3  A    between atoms: C_9  and  C_10
REMARK    4  A    between atoms: C_15  and  C_16
REMARK    5  A    between atoms: C_16  and  C_17
REMARK    6  A    between atoms: C_20  and  C_21
REMARK    7  A    between atoms: C_20  and  C_23
REMARK                            x       y       z     vdW  Elec       q    Type
REMARK                         _______ _______ _______ _____ _____    ______ ____
ROOT
ATOM      1  C   UNL     1       0.618  10.389  21.596  0.00  0.00    +0.000 C 
ATOM      2  O   UNL     1       1.448   9.861  22.327  0.00  0.00    +0.000 OA
ATOM      3  N   UNL     1       0.467  10.122  20.250  0.00  0.00    +0.000 N 
ATOM      4  C   UNL     1       1.227   9.203  19.538  0.00  0.00    +0.000 A 
ATOM      5  C   UNL     1       1.548   7.956  20.081  0.00  0.00    +0.000 A 
ATOM      6  C   UNL     1       2.309   7.046  19.335  0.00  0.00    +0.000 A 
ATOM      7  C   UNL     1       2.749   7.484  18.081  0.00  0.00    +0.000 A 
ATOM      8  F   UNL     1       3.542   6.716  17.322  0.00  0.00    +0.000 F 
ATOM      9  C   UNL     1       2.378   8.734  17.615  0.00  0.00    +0.000 A 
ATOM     10  N   UNL     1       1.584   9.588  18.298  0.00  0.00    +0.000 NA
ATOM     11  H   UNL     1      -0.018  10.820  19.698  0.00  0.00    +0.000 HD
ENDROOT
BRANCH   6  12
ATOM     12  C   UNL     1       2.645   5.626  19.805  0.00  0.00    +0.000 C 
ATOM     13  C   UNL     1       2.198   5.338  21.261  0.00  0.00    +0.000 C 
ATOM     14  C   UNL     1       4.185   5.426  19.710  0.00  0.00    +0.000 C 
ATOM     15  O   UNL     1       4.675   4.153  19.324  0.00  0.00    +0.000 OA
ATOM     16  C   UNL     1       3.893   3.393  18.413  0.00  0.00    +0.000 C 
ATOM     17  C   UNL     1       2.379   3.682  18.415  0.00  0.00    +0.000 C 
ATOM     18  N   UNL     1       1.521   2.851  17.738  0.00  0.00    +0.000 N 
ATOM     19  N   UNL     1       1.838   4.689  19.007  0.00  0.00    +0.000 NA
ATOM     20  H   UNL     1       1.882   2.453  16.871  0.00  0.00    +0.000 HD
ATOM     21  H   UNL     1       0.599   3.261  17.624  0.00  0.00    +0.000 HD
BRANCH  16  22
ATOM     22  C   UNL     1       4.398   3.535  16.970  0.00  0.00    +0.000 C 
ATOM     23  F   UNL     1       5.612   4.167  16.959  0.00  0.00    +0.000 F 
ENDBRANCH  16  22
BRANCH  16  24
ATOM     24  C   UNL     1       4.094   1.943  18.867  0.00  0.00    +0.000 C 
ATOM     25  F   UNL     1       4.770   1.921  20.054  0.00  0.00    +0.000 F 
ENDBRANCH  16  24
ENDBRANCH   6  12
BRANCH   1  32
ATOM     26  C   UNL     1       0.992  13.376  21.043  0.00  0.00    +0.000 C 
ATOM     27  C   UNL     1      -0.131  12.821  21.870  0.00  0.00    +0.000 A 
ATOM     28  C   UNL     1      -1.045  13.708  22.464  0.00  0.00    +0.000 A 
ATOM     29  C   UNL     1      -2.100  13.222  23.242  0.00  0.00    +0.000 A 
ATOM     30  C   UNL     1      -2.224  11.852  23.383  0.00  0.00    +0.000 A 
ATOM     31  N   UNL     1      -1.377  10.959  22.822  0.00  0.00    +0.000 NA
ATOM     32  C   UNL     1      -0.327  11.452  22.102  0.00  0.00    +0.000 A 
BRANCH  29  33
ATOM     33  C   UNL     1      -3.028  14.108  23.868  0.00  0.00    +0.000 C 
ATOM     34  N   UNL     1      -3.783  14.824  24.376  0.00  0.00    +0.000 NA
ENDBRANCH  29  33
ENDBRANCH   1  32
TORSDOF 5
ENDMDL
MODEL 5
REMARK VINA RESULT:      -7.5      1.384      1.415
REMARK  Name = 
REMARK  7 active torsions:
REMARK  status: ('A' for Active; 'I' for Inactive)
REMARK    1  A    between atoms: C_1  and  C_2
REMARK    2  A    between atoms: C_4  and  C_5
REMARK    3  A    between atoms: C_9  and  C_10
REMARK    4  A    between atoms: C_15  and  C_16
REMARK    5  A    between atoms: C_16  and  C_17
REMARK    6  A    between atoms: C_20  and  C_21
REMARK    7  A    between atoms: C_20  and  C_23
REMARK                            x       y       z     vdW  Elec       q    Type
REMARK                         _______ _______ _______ _____ _____    ______ ____
ROOT
ATOM      1  C   UNL     1       1.326   9.077  19.379  0.00  0.00    +0.000 C 
ATOM      2  O   UNL     1       1.297   8.795  18.187  0.00  0.00    +0.000 OA
ATOM      3  N   UNL     1       1.598   8.184  20.396  0.00  0.00    +0.000 N 
ATOM      4  C   UNL     1       1.893   6.840  20.208  0.00  0.00    +0.000 A 
ATOM      5  C   UNL     1       2.739   6.423  19.177  0.00  0.00    +0.000 A 
ATOM      6  C   UNL     1       3.025   5.061  19.017  0.00  0.00    +0.000 A 
ATOM      7  C   UNL     1       2.382   4.183  19.897  0.00  0.00    +0.000 A 
ATOM      8  F   UNL     1       2.533   2.857  19.780  0.00  0.00    +0.000 F 
ATOM      9  C   UNL     1       1.564   4.680  20.896  0.00  0.00    +0.000 A 
ATOM     10  N   UNL     1       1.341   5.997  21.102  0.00  0.00    +0.000 NA
ATOM     11  H   UNL     1       1.293   8.445  21.327  0.00  0.00    +0.000 HD
ENDROOT
BRANCH   6  12
ATOM     12  C   UNL     1       4.003   4.510  17.972  0.00  0.00    +0.000 C 
ATOM     13  C   UNL     1       3.454   3.281  17.204  0.00  0.00    +0.000 C 
ATOM     14  C   UNL     1       5.317   4.097  18.696  0.00  0.00    +0.000 C 
ATOM     15  O   UNL     1       6.549   4.305  18.025  0.00  0.00    +0.000 OA
ATOM     16  C   UNL     1       6.644   5.423  17.153  0.00  0.00    +0.000 C 
ATOM     17  C   UNL     1       5.322   5.915  16.535  0.00  0.00    +0.000 C 
ATOM     18  N   UNL     1       5.342   6.838  15.517  0.00  0.00    +0.000 N 
ATOM     19  N   UNL     1       4.156   5.530  16.922  0.00  0.00    +0.000 NA
ATOM     20  H   UNL     1       6.079   7.540  15.571  0.00  0.00    +0.000 HD
ATOM     21  H   UNL     1       4.426   7.246  15.351  0.00  0.00    +0.000 HD
BRANCH  16  22
ATOM     22  C   UNL     1       7.320   6.621  17.835  0.00  0.00    +0.000 C 
ATOM     23  F   UNL     1       7.935   7.407  16.898  0.00  0.00    +0.000 F 
ENDBRANCH  16  22
BRANCH  16  24
ATOM     24  C   UNL     1       7.541   4.932  16.012  0.00  0.00    +0.000 C 
ATOM     25  F   UNL     1       6.845   4.063  15.219  0.00  0.00    +0.000 F 
ENDBRANCH  16  24
ENDBRANCH   6  12
BRANCH   1  32
ATOM     26  C   UNL     1      -0.348   9.637  21.880  0.00  0.00    +0.000 C 
ATOM     27  C   UNL     1       0.221  10.716  21.005  0.00  0.00    +0.000 A 
ATOM     28  C   UNL     1      -0.053  12.060  21.312  0.00  0.00    +0.000 A 
ATOM     29  C   UNL     1       0.460  13.087  20.515  0.00  0.00    +0.000 A 
ATOM     30  C   UNL     1       1.259  12.737  19.442  0.00  0.00    +0.000 A 
ATOM     31  N   UNL     1       1.560  11.460  19.113  0.00  0.00    +0.000 NA
ATOM     32  C   UNL     1       1.015  10.468  19.876  0.00  0.00    +0.000 A 
BRANCH  29  33
ATOM     33  C   UNL     1       0.177  14.457  20.800  0.00  0.00    +0.000 C 
ATOM     34  N   UNL     1      -0.055  15.567  21.034  0.00  0.00    +0.000 NA
ENDBRANCH  29  33
ENDBRANCH   1  32
TORSDOF 5
ENDMDL
MODEL 6
REMARK VINA RESULT:      -7.1      2.558      3.355
REMARK  Name = 
REMARK  7 active torsions:
REMARK  status: ('A' for Active; 'I' for Inactive)
REMARK    1  A    between atoms: C_1  and  C_2
REMARK    2  A    between atoms: C_4  and  C_5
REMARK    3  A    between atoms: C_9  and  C_10
REMARK    4  A    between atoms: C_15  and  C_16
REMARK    5  A    between atoms: C_16  and  C_17
REMARK    6  A    between atoms: C_20  and  C_21
REMARK    7  A    between atoms: C_20  and  C_23
REMARK                            x       y       z     vdW  Elec       q    Type
REMARK                         _______ _______ _______ _____ _____    ______ ____
ROOT
ATOM      1  C   UNL     1       1.309  10.906  18.609  0.00  0.00    +0.000 C 
ATOM      2  O   UNL     1       1.063  10.295  17.575  0.00  0.00    +0.000 OA
ATOM      3  N   UNL     1       1.557  10.319  19.834  0.00  0.00    +0.000 N 
ATOM      4  C   UNL     1       1.578   8.949  20.062  0.00  0.00    +0.000 A 
ATOM      5  C   UNL     1       2.183   8.075  19.156  0.00  0.00    +0.000 A 
ATOM      6  C   UNL     1       2.196   6.698  19.417  0.00  0.00    +0.000 A 
ATOM      7  C   UNL     1       1.537   6.280  20.579  0.00  0.00    +0.000 A 
ATOM      8  F   UNL     1       1.431   4.979  20.880  0.00  0.00    +0.000 F 
ATOM      9  C   UNL     1       0.969   7.214  21.428  0.00  0.00    +0.000 A 
ATOM     10  N   UNL     1       1.016   8.548  21.219  0.00  0.00    +0.000 NA
ATOM     11  H   UNL     1       1.438  10.904  20.653  0.00  0.00    +0.000 HD
ENDROOT
BRANCH   6  12
ATOM     12  C   UNL     1       2.903   5.666  18.531  0.00  0.00    +0.000 C 
ATOM     13  C   UNL     1       3.810   6.304  17.449  0.00  0.00    +0.000 C 
ATOM     14  C   UNL     1       1.821   4.799  17.824  0.00  0.00    +0.000 C 
ATOM     15  O   UNL     1       2.091   3.421  17.622  0.00  0.00    +0.000 OA
ATOM     16  C   UNL     1       2.885   2.755  18.594  0.00  0.00    +0.000 C 
ATOM     17  C   UNL     1       3.868   3.637  19.387  0.00  0.00    +0.000 C 
ATOM     18  N   UNL     1       4.826   3.055  20.181  0.00  0.00    +0.000 N 
ATOM     19  N   UNL     1       3.851   4.924  19.379  0.00  0.00    +0.000 NA
ATOM     20  H   UNL     1       4.548   2.192  20.649  0.00  0.00    +0.000 HD
ATOM     21  H   UNL     1       5.256   3.721  20.816  0.00  0.00    +0.000 HD
BRANCH  16  22
ATOM     22  C   UNL     1       2.023   1.984  19.605  0.00  0.00    +0.000 C 
ATOM     23  F   UNL     1       0.746   2.476  19.601  0.00  0.00    +0.000 F 
ENDBRANCH  16  22
BRANCH  16  24
ATOM     24  C   UNL     1       3.708   1.751  17.779  0.00  0.00    +0.000 C 
ATOM     25  F   UNL     1       3.941   0.631  18.526  0.00  0.00    +0.000 F 
ENDBRANCH  16  24
ENDBRANCH   6  12
BRANCH   1  32
ATOM     26  C   UNL     1      -1.203  12.603  19.037  0.00  0.00    +0.000 C 
ATOM     27  C   UNL     1       0.164  13.185  18.823  0.00  0.00    +0.000 A 
ATOM     28  C   UNL     1       0.312  14.582  18.773  0.00  0.00    +0.000 A 
ATOM     29  C   UNL     1       1.571  15.155  18.573  0.00  0.00    +0.000 A 
ATOM     30  C   UNL     1       2.657  14.307  18.453  0.00  0.00    +0.000 A 
ATOM     31  N   UNL     1       2.567  12.958  18.506  0.00  0.00    +0.000 NA
ATOM     32  C   UNL     1       1.324  12.415  18.658  0.00  0.00    +0.000 A 
BRANCH  29  33
ATOM     33  C   UNL     1       1.738  16.571  18.501  0.00  0.00    +0.000 C 
ATOM     34  N   UNL     1       1.872  17.719  18.438  0.00  0.00    +0.000 NA
ENDBRANCH  29  33
ENDBRANCH   1  32
TORSDOF 5
ENDMDL
MODEL 7
REMARK VINA RESULT:      -7.1      1.846      2.346
REMARK  Name = 
REMARK  7 active torsions:
REMARK  status: ('A' for Active; 'I' for Inactive)
REMARK    1  A    between atoms: C_1  and  C_2
REMARK    2  A    between atoms: C_4  and  C_5
REMARK    3  A    between atoms: C_9  and  C_10
REMARK    4  A    between atoms: C_15  and  C_16
REMARK    5  A    between atoms: C_16  and  C_17
REMARK    6  A    between atoms: C_20  and  C_21
REMARK    7  A    between atoms: C_20  and  C_23
REMARK                            x       y       z     vdW  Elec       q    Type
REMARK                         _______ _______ _______ _____ _____    ______ ____
ROOT
ATOM      1  C   UNL     1       1.433   9.237  18.628  0.00  0.00    +0.000 C 
ATOM      2  O   UNL     1       1.825   9.003  17.491  0.00  0.00    +0.000 OA
ATOM      3  N   UNL     1       1.606   8.400  19.712  0.00  0.00    +0.000 N 
ATOM      4  C   UNL     1       2.266   7.178  19.668  0.00  0.00    +0.000 A 
ATOM      5  C   UNL     1       3.452   7.023  18.947  0.00  0.00    +0.000 A 
ATOM      6  C   UNL     1       4.100   5.780  18.927  0.00  0.00    +0.000 A 
ATOM      7  C   UNL     1       3.464   4.738  19.611  0.00  0.00    +0.000 A 
ATOM      8  F   UNL     1       3.966   3.495  19.592  0.00  0.00    +0.000 F 
ATOM      9  C   UNL     1       2.293   4.979  20.308  0.00  0.00    +0.000 A 
ATOM     10  N   UNL     1       1.702   6.191  20.391  0.00  0.00    +0.000 NA
ATOM     11  H   UNL     1       0.988   8.542  20.503  0.00  0.00    +0.000 HD
ENDROOT
BRANCH   6  12
ATOM     12  C   UNL     1       5.445   5.528  18.236  0.00  0.00    +0.000 C 
ATOM     13  C   UNL     1       6.630   5.398  19.225  0.00  0.00    +0.000 C 
ATOM     14  C   UNL     1       5.733   6.713  17.269  0.00  0.00    +0.000 C 
ATOM     15  O   UNL     1       6.379   6.435  16.038  0.00  0.00    +0.000 OA
ATOM     16  C   UNL     1       6.116   5.181  15.423  0.00  0.00    +0.000 C 
ATOM     17  C   UNL     1       5.705   4.036  16.368  0.00  0.00    +0.000 C 
ATOM     18  N   UNL     1       5.649   2.746  15.899  0.00  0.00    +0.000 N 
ATOM     19  N   UNL     1       5.379   4.201  17.603  0.00  0.00    +0.000 NA
ATOM     20  H   UNL     1       5.340   2.639  14.933  0.00  0.00    +0.000 HD
ATOM     21  H   UNL     1       5.157   2.127  16.537  0.00  0.00    +0.000 HD
BRANCH  16  22
ATOM     22  C   UNL     1       5.047   5.296  14.328  0.00  0.00    +0.000 C 
ATOM     23  F   UNL     1       5.054   4.172  13.547  0.00  0.00    +0.000 F 
ENDBRANCH  16  22
BRANCH  16  24
ATOM     24  C   UNL     1       7.451   4.797  14.774  0.00  0.00    +0.000 C 
ATOM     25  F   UNL     1       7.545   5.372  13.538  0.00  0.00    +0.000 F 
ENDBRANCH  16  24
ENDBRANCH   6  12
BRANCH   1  32
ATOM     26  C   UNL     1      -1.347   9.846  17.501  0.00  0.00    +0.000 C 
ATOM     27  C   UNL     1      -0.602  10.774  18.416  0.00  0.00    +0.000 A 
ATOM     28  C   UNL     1      -1.180  12.011  18.751  0.00  0.00    +0.000 A 
ATOM     29  C   UNL     1      -0.510  12.898  19.598  0.00  0.00    +0.000 A 
ATOM     30  C   UNL     1       0.714  12.508  20.109  0.00  0.00    +0.000 A 
ATOM     31  N   UNL     1       1.305  11.324  19.825  0.00  0.00    +0.000 NA
ATOM     32  C   UNL     1       0.657  10.489  18.962  0.00  0.00    +0.000 A 
BRANCH  29  33
ATOM     33  C   UNL     1      -1.071  14.167  19.935  0.00  0.00    +0.000 C 
ATOM     34  N   UNL     1      -1.525  15.197  20.205  0.00  0.00    +0.000 NA
ENDBRANCH  29  33
ENDBRANCH   1  32
TORSDOF 5
ENDMDL
MODEL 8
REMARK VINA RESULT:      -7.0      2.874      3.838
REMARK  Name = 
REMARK  7 active torsions:
REMARK  status: ('A' for Active; 'I' for Inactive)
REMARK    1  A    between atoms: C_1  and  C_2
REMARK    2  A    between atoms: C_4  and  C_5
REMARK    3  A    between atoms: C_9  and  C_10
REMARK    4  A    between atoms: C_15  and  C_16
REMARK    5  A    between atoms: C_16  and  C_17
REMARK    6  A    between atoms: C_20  and  C_21
REMARK    7  A    between atoms: C_20  and  C_23
REMARK                            x       y       z     vdW  Elec       q    Type
REMARK                         _______ _______ _______ _____ _____    ______ ____
ROOT
ATOM      1  C   UNL     1       0.867  10.625  21.187  0.00  0.00    +0.000 C 
ATOM      2  O   UNL     1       1.654  10.102  21.968  0.00  0.00    +0.000 OA
ATOM      3  N   UNL     1       0.726  10.282  19.858  0.00  0.00    +0.000 N 
ATOM      4  C   UNL     1       1.447   9.281  19.221  0.00  0.00    +0.000 A 
ATOM      5  C   UNL     1       1.691   8.056  19.847  0.00  0.00    +0.000 A 
ATOM      6  C   UNL     1       2.415   7.061  19.176  0.00  0.00    +0.000 A 
ATOM      7  C   UNL     1       2.901   7.395  17.907  0.00  0.00    +0.000 A 
ATOM      8  F   UNL     1       3.665   6.540  17.214  0.00  0.00    +0.000 F 
ATOM      9  C   UNL     1       2.607   8.631  17.355  0.00  0.00    +0.000 A 
ATOM     10  N   UNL     1       1.848   9.567  17.967  0.00  0.00    +0.000 NA
ATOM     11  H   UNL     1       0.289  10.968  19.253  0.00  0.00    +0.000 HD
ENDROOT
BRANCH   6  12
ATOM     12  C   UNL     1       2.666   5.658  19.741  0.00  0.00    +0.000 C 
ATOM     13  C   UNL     1       2.157   5.480  21.193  0.00  0.00    +0.000 C 
ATOM     14  C   UNL     1       4.197   5.381  19.714  0.00  0.00    +0.000 C 
ATOM     15  O   UNL     1       4.637   4.065  19.421  0.00  0.00    +0.000 OA
ATOM     16  C   UNL     1       3.849   3.289  18.528  0.00  0.00    +0.000 C 
ATOM     17  C   UNL     1       2.352   3.648  18.458  0.00  0.00    +0.000 C 
ATOM     18  N   UNL     1       1.477   2.818  17.801  0.00  0.00    +0.000 N 
ATOM     19  N   UNL     1       1.841   4.713  18.970  0.00  0.00    +0.000 NA
ATOM     20  H   UNL     1       1.847   2.352  16.972  0.00  0.00    +0.000 HD
ATOM     21  H   UNL     1       0.581   3.264  17.629  0.00  0.00    +0.000 HD
BRANCH  16  22
ATOM     22  C   UNL     1       4.408   3.320  17.099  0.00  0.00    +0.000 C 
ATOM     23  F   UNL     1       5.607   3.980  17.079  0.00  0.00    +0.000 F 
ENDBRANCH  16  22
BRANCH  16  24
ATOM     24  C   UNL     1       3.964   1.861  19.074  0.00  0.00    +0.000 C 
ATOM     25  F   UNL     1       4.747   1.857  20.194  0.00  0.00    +0.000 F 
ENDBRANCH  16  24
ENDBRANCH   6  12
BRANCH   1  32
ATOM     26  C   UNL     1      -1.286  10.374  23.349  0.00  0.00    +0.000 C 
ATOM     27  C   UNL     1      -1.034  11.634  22.574  0.00  0.00    +0.000 A 
ATOM     28  C   UNL     1      -1.846  12.756  22.811  0.00  0.00    +0.000 A 
ATOM     29  C   UNL     1      -1.637  13.944  22.104  0.00  0.00    +0.000 A 
ATOM     30  C   UNL     1      -0.599  13.981  21.192  0.00  0.00    +0.000 A 
ATOM     31  N   UNL     1       0.216  12.932  20.937  0.00  0.00    +0.000 NA
ATOM     32  C   UNL     1      -0.029  11.767  21.605  0.00  0.00    +0.000 A 
BRANCH  29  33
ATOM     33  C   UNL     1      -2.464  15.088  22.318  0.00  0.00    +0.000 C 
ATOM     34  N   UNL     1      -3.135  16.016  22.487  0.00  0.00    +0.000 NA
ENDBRANCH  29  33
ENDBRANCH   1  32
TORSDOF 5
ENDMDL
MODEL 9
REMARK VINA RESULT:      -6.9      4.095      9.358
REMARK  Name = 
REMARK  7 active torsions:
REMARK  status: ('A' for Active; 'I' for Inactive)
REMARK    1  A    between atoms: C_1  and  C_2
REMARK    2  A    between atoms: C_4  and  C_5
REMARK    3  A    between atoms: C_9  and  C_10
REMARK    4  A    between atoms: C_15  and  C_16
REMARK    5  A    between atoms: C_16  and  C_17
REMARK    6  A    between atoms: C_20  and  C_21
REMARK    7  A    between atoms: C_20  and  C_23
REMARK                            x       y       z     vdW  Elec       q    Type
REMARK                         _______ _______ _______ _____ _____    ______ ____
ROOT
ATOM      1  C   UNL     1       2.102   7.610  18.808  0.00  0.00    +0.000 C 
ATOM      2  O   UNL     1       2.223   8.412  17.890  0.00  0.00    +0.000 OA
ATOM      3  N   UNL     1       1.510   7.883  20.025  0.00  0.00    +0.000 N 
ATOM      4  C   UNL     1       0.953   9.107  20.373  0.00  0.00    +0.000 A 
ATOM      5  C   UNL     1       0.177   9.832  19.466  0.00  0.00    +0.000 A 
ATOM      6  C   UNL     1      -0.380  11.060  19.848  0.00  0.00    +0.000 A 
ATOM      7  C   UNL     1      -0.066  11.510  21.136  0.00  0.00    +0.000 A 
ATOM      8  F   UNL     1      -0.490  12.705  21.570  0.00  0.00    +0.000 F 
ATOM      9  C   UNL     1       0.705  10.725  21.976  0.00  0.00    +0.000 A 
ATOM     10  N   UNL     1       1.183   9.507  21.639  0.00  0.00    +0.000 NA
ATOM     11  H   UNL     1       1.741   7.266  20.795  0.00  0.00    +0.000 HD
ENDROOT
BRANCH   6  12
ATOM     12  C   UNL     1      -1.311  11.891  18.958  0.00  0.00    +0.000 C 
ATOM     13  C   UNL     1      -0.769  13.312  18.659  0.00  0.00    +0.000 C 
ATOM     14  C   UNL     1      -2.687  12.025  19.671  0.00  0.00    +0.000 C 
ATOM     15  O   UNL     1      -3.861  12.012  18.875  0.00  0.00    +0.000 OA
ATOM     16  C   UNL     1      -3.847  11.225  17.692  0.00  0.00    +0.000 C 
ATOM     17  C   UNL     1      -2.466  10.984  17.054  0.00  0.00    +0.000 C 
ATOM     18  N   UNL     1      -2.377  10.431  15.800  0.00  0.00    +0.000 N 
ATOM     19  N   UNL     1      -1.347  11.253  17.632  0.00  0.00    +0.000 NA
ATOM     20  H   UNL     1      -3.084   9.731  15.573  0.00  0.00    +0.000 HD
ATOM     21  H   UNL     1      -1.435  10.117  15.585  0.00  0.00    +0.000 HD
BRANCH  16  22
ATOM     22  C   UNL     1      -4.512   9.858  17.909  0.00  0.00    +0.000 C 
ATOM     23  F   UNL     1      -3.558   8.906  18.145  0.00  0.00    +0.000 F 
ENDBRANCH  16  22
BRANCH  16  24
ATOM     24  C   UNL     1      -4.689  12.033  16.698  0.00  0.00    +0.000 C 
ATOM     25  F   UNL     1      -5.995  12.040  17.098  0.00  0.00    +0.000 F 
ENDBRANCH  16  24
ENDBRANCH   6  12
BRANCH   1  32
ATOM     26  C   UNL     1       4.512   6.846  17.082  0.00  0.00    +0.000 C 
ATOM     27  C   UNL     1       3.730   5.857  17.896  0.00  0.00    +0.000 A 
ATOM     28  C   UNL     1       4.083   4.498  17.844  0.00  0.00    +0.000 A 
ATOM     29  C   UNL     1       3.372   3.552  18.588  0.00  0.00    +0.000 A 
ATOM     30  C   UNL     1       2.338   4.002  19.389  0.00  0.00    +0.000 A 
ATOM     31  N   UNL     1       1.968   5.300  19.481  0.00  0.00    +0.000 NA
ATOM     32  C   UNL     1       2.645   6.204  18.714  0.00  0.00    +0.000 A 
BRANCH  29  33
ATOM     33  C   UNL     1       3.704   2.165  18.534  0.00  0.00    +0.000 C 
ATOM     34  N   UNL     1       3.970   1.039  18.488  0.00  0.00    +0.000 NA
ENDBRANCH  29  33
ENDBRANCH   1  32
TORSDOF 5
ENDMDL
