MODEL 1
REMARK VINA RESULT:      -7.8      0.000      0.000
REMARK  Name = 
REMARK  4 active torsions:
REMARK  status: ('A' for Active; 'I' for Inactive)
REMARK    1  A    between atoms: C_1  and  C_2
REMARK    2  A    between atoms: C_2  and  C_3
REMARK    3  A    between atoms: N_8  and  C_9
REMARK    4  A    between atoms: C_9  and  C_10
REMARK                            x       y       z     vdW  Elec       q    Type
REMARK                         _______ _______ _______ _____ _____    ______ ____
ROOT
ATOM      1  C   UNL     1      -0.656  10.205  17.842  0.00  0.00    +0.000 C 
ATOM      2  C   UNL     1       0.475  10.547  18.829  0.00  0.00    +0.000 C 
ATOM      3  C   UNL     1       1.089  11.888  18.410  0.00  0.00    +0.000 C 
ATOM      4  C   UNL     1       1.518   9.410  18.875  0.00  0.00    +0.000 C 
ATOM      5  N   UNL     1       1.133   8.557  19.998  0.00  0.00    +0.000 N 
ATOM      6  C   UNL     1       1.608   7.301  20.308  0.00  0.00    +0.000 C 
ATOM      7  O   UNL     1       1.183   6.654  21.247  0.00  0.00    +0.000 OA
ATOM      8  N   UNL     1       2.577   6.815  19.473  0.00  0.00    +0.000 N 
ATOM      9  C   UNL     1      -0.011   9.109  20.728  0.00  0.00    +0.000 C 
ATOM     10  C   UNL     1       0.125   9.234  22.245  0.00  0.00    +0.000 C 
ATOM     11  O   UNL     1       0.542  10.579  22.547  0.00  0.00    +0.000 OA
ATOM     12  C   UNL     1       0.803  11.243  21.312  0.00  0.00    +0.000 C 
ATOM     13  C   UNL     1      -0.069  10.557  20.269  0.00  0.00    +0.000 C 
ATOM     14  H   UNL     1       3.183   7.507  19.061  0.00  0.00    +0.000 HD
ENDROOT
BRANCH   8  15
ATOM     15  C   UNL     1       3.145   5.496  19.724  0.00  0.00    +0.000 C 
BRANCH  15  16
ATOM     16  C   UNL     1       3.705   4.822  18.455  0.00  0.00    +0.000 C 
ATOM     17  C   UNL     1       4.718   3.717  18.757  0.00  0.00    +0.000 C 
ATOM     18  O   UNL     1       5.886   4.226  19.406  0.00  0.00    +0.000 OA
ATOM     19  C   UNL     1       6.356   5.352  18.775  0.00  0.00    +0.000 A 
ATOM     20  C   UNL     1       7.649   5.757  19.093  0.00  0.00    +0.000 A 
ATOM     21  C   UNL     1       8.195   6.888  18.485  0.00  0.00    +0.000 A 
ATOM     22  C   UNL     1       7.444   7.609  17.554  0.00  0.00    +0.000 A 
ATOM     23  C   UNL     1       6.141   7.211  17.248  0.00  0.00    +0.000 A 
ATOM     24  C   UNL     1       5.590   6.095  17.876  0.00  0.00    +0.000 A 
ATOM     25  O   UNL     1       4.285   5.802  17.572  0.00  0.00    +0.000 OA
ENDBRANCH  15  16
ENDBRANCH   8  15
TORSDOF 2
ENDMDL
MODEL 2
REMARK VINA RESULT:      -7.6      2.091      7.876
REMARK  Name = 
REMARK  4 active torsions:
REMARK  status: ('A' for Active; 'I' for Inactive)
REMARK    1  A    between atoms: C_1  and  C_2
REMARK    2  A    between atoms: C_2  and  C_3
REMARK    3  A    between atoms: N_8  and  C_9
REMARK    4  A    between atoms: C_9  and  C_10
REMARK                            x       y       z     vdW  Elec       q    Type
REMARK                         _______ _______ _______ _____ _____    ______ ____
ROOT
ATOM      1  C   UNL     1       0.828   3.020  19.800  0.00  0.00    +0.000 C 
ATOM      2  C   UNL     1       2.198   3.532  20.284  0.00  0.00    +0.000 C 
ATOM      3  C   UNL     1       2.768   2.512  21.277  0.00  0.00    +0.000 C 
ATOM      4  C   UNL     1       2.066   4.941  20.899  0.00  0.00    +0.000 C 
ATOM      5  N   UNL     1       2.375   5.880  19.822  0.00  0.00    +0.000 N 
ATOM      6  C   UNL     1       2.174   7.243  19.804  0.00  0.00    +0.000 C 
ATOM      7  O   UNL     1       2.426   7.930  18.831  0.00  0.00    +0.000 OA
ATOM      8  N   UNL     1       1.647   7.776  20.950  0.00  0.00    +0.000 N 
ATOM      9  C   UNL     1       2.785   5.183  18.600  0.00  0.00    +0.000 C 
ATOM     10  C   UNL     1       4.084   5.643  17.939  0.00  0.00    +0.000 C 
ATOM     11  O   UNL     1       5.146   4.780  18.391  0.00  0.00    +0.000 OA
ATOM     12  C   UNL     1       4.607   3.912  19.387  0.00  0.00    +0.000 C 
ATOM     13  C   UNL     1       3.122   3.781  19.078  0.00  0.00    +0.000 C 
ATOM     14  H   UNL     1       1.897   7.303  21.805  0.00  0.00    +0.000 HD
ENDROOT
BRANCH   8  15
ATOM     15  C   UNL     1       1.405   9.211  21.028  0.00  0.00    +0.000 C 
BRANCH  15  16
ATOM     16  C   UNL     1       0.075   9.641  20.376  0.00  0.00    +0.000 C 
ATOM     17  C   UNL     1       0.255  10.689  19.277  0.00  0.00    +0.000 C 
ATOM     18  O   UNL     1       0.786  11.914  19.788  0.00  0.00    +0.000 OA
ATOM     19  C   UNL     1       0.125  12.306  20.927  0.00  0.00    +0.000 A 
ATOM     20  C   UNL     1       0.312  13.622  21.340  0.00  0.00    +0.000 A 
ATOM     21  C   UNL     1      -0.334  14.092  22.484  0.00  0.00    +0.000 A 
ATOM     22  C   UNL     1      -1.172  13.243  23.210  0.00  0.00    +0.000 A 
ATOM     23  C   UNL     1      -1.346  11.918  22.803  0.00  0.00    +0.000 A 
ATOM     24  C   UNL     1      -0.679  11.445  21.673  0.00  0.00    +0.000 A 
ATOM     25  O   UNL     1      -0.850  10.117  21.372  0.00  0.00    +0.000 OA
ENDBRANCH  15  16
ENDBRANCH   8  15
TORSDOF 2
ENDMDL
MODEL 3
REMARK VINA RESULT:      -7.5      1.168      1.319
REMARK  Name = 
REMARK  4 active torsions:
REMARK  status: ('A' for Active; 'I' for Inactive)
REMARK    1  A    between atoms: C_1  and  C_2
REMARK    2  A    between atoms: C_2  and  C_3
REMARK    3  A    between atoms: N_8  and  C_9
REMARK    4  A    between atoms: C_9  and  C_10
REMARK                            x       y       z     vdW  Elec       q    Type
REMARK                         _______ _______ _______ _____ _____    ______ ____
ROOT
ATOM      1  C   UNL     1      -1.691  11.267  18.041  0.00  0.00    +0.000 C 
ATOM      2  C   UNL     1      -0.489  11.702  18.899  0.00  0.00    +0.000 C 
ATOM      3  C   UNL     1      -0.010  13.069  18.397  0.00  0.00    +0.000 C 
ATOM      4  C   UNL     1       0.625  10.635  18.855  0.00  0.00    +0.000 C 
ATOM      5  N   UNL     1       0.414   9.786  20.026  0.00  0.00    +0.000 N 
ATOM      6  C   UNL     1       0.999   8.569  20.305  0.00  0.00    +0.000 C 
ATOM      7  O   UNL     1       0.716   7.918  21.294  0.00  0.00    +0.000 OA
ATOM      8  N   UNL     1       1.908   8.127  19.382  0.00  0.00    +0.000 N 
ATOM      9  C   UNL     1      -0.683  10.281  20.862  0.00  0.00    +0.000 C 
ATOM     10  C   UNL     1      -0.401  10.449  22.354  0.00  0.00    +0.000 C 
ATOM     11  O   UNL     1      -0.043  11.824  22.589  0.00  0.00    +0.000 OA
ATOM     12  C   UNL     1       0.046  12.474  21.323  0.00  0.00    +0.000 C 
ATOM     13  C   UNL     1      -0.882  11.711  20.388  0.00  0.00    +0.000 C 
ATOM     14  H   UNL     1       2.421   8.846  18.897  0.00  0.00    +0.000 HD
ENDROOT
BRANCH   8  15
ATOM     15  C   UNL     1       2.583   6.853  19.594  0.00  0.00    +0.000 C 
BRANCH  15  16
ATOM     16  C   UNL     1       2.820   6.064  18.290  0.00  0.00    +0.000 C 
ATOM     17  C   UNL     1       3.234   4.612  18.531  0.00  0.00    +0.000 C 
ATOM     18  O   UNL     1       4.490   4.520  19.208  0.00  0.00    +0.000 OA
ATOM     19  C   UNL     1       5.424   5.352  18.640  0.00  0.00    +0.000 A 
ATOM     20  C   UNL     1       6.755   5.129  18.981  0.00  0.00    +0.000 A 
ATOM     21  C   UNL     1       7.758   5.931  18.436  0.00  0.00    +0.000 A 
ATOM     22  C   UNL     1       7.426   6.954  17.545  0.00  0.00    +0.000 A 
ATOM     23  C   UNL     1       6.088   7.188  17.217  0.00  0.00    +0.000 A 
ATOM     24  C   UNL     1       5.086   6.400  17.783  0.00  0.00    +0.000 A 
ATOM     25  O   UNL     1       3.794   6.730  17.462  0.00  0.00    +0.000 OA
ENDBRANCH  15  16
ENDBRANCH   8  15
TORSDOF 2
ENDMDL
MODEL 4
REMARK VINA RESULT:      -7.4      2.074      6.913
REMARK  Name = 
REMARK  4 active torsions:
REMARK  status: ('A' for Active; 'I' for Inactive)
REMARK    1  A    between atoms: C_1  and  C_2
REMARK    2  A    between atoms: C_2  and  C_3
REMARK    3  A    between atoms: N_8  and  C_9
REMARK    4  A    between atoms: C_9  and  C_10
REMARK                            x       y       z     vdW  Elec       q    Type
REMARK                         _______ _______ _______ _____ _____    ______ ____
ROOT
ATOM      1  C   UNL     1       5.911   4.886  18.613  0.00  0.00    +0.000 C 
ATOM      2  C   UNL     1       4.590   4.885  17.821  0.00  0.00    +0.000 C 
ATOM      3  C   UNL     1       4.925   4.781  16.329  0.00  0.00    +0.000 C 
ATOM      4  C   UNL     1       3.757   6.142  18.151  0.00  0.00    +0.000 C 
ATOM      5  N   UNL     1       2.833   5.744  19.212  0.00  0.00    +0.000 N 
ATOM      6  C   UNL     1       2.048   6.558  19.999  0.00  0.00    +0.000 C 
ATOM      7  O   UNL     1       1.343   6.124  20.891  0.00  0.00    +0.000 OA
ATOM      8  N   UNL     1       2.130   7.897  19.727  0.00  0.00    +0.000 N 
ATOM      9  C   UNL     1       2.944   4.315  19.516  0.00  0.00    +0.000 C 
ATOM     10  C   UNL     1       1.648   3.506  19.539  0.00  0.00    +0.000 C 
ATOM     11  O   UNL     1       1.488   2.880  18.252  0.00  0.00    +0.000 OA
ATOM     12  C   UNL     1       2.526   3.362  17.401  0.00  0.00    +0.000 C 
ATOM     13  C   UNL     1       3.682   3.745  18.316  0.00  0.00    +0.000 C 
ATOM     14  H   UNL     1       2.316   8.135  18.765  0.00  0.00    +0.000 HD
ENDROOT
BRANCH   8  15
ATOM     15  C   UNL     1       1.330   8.837  20.503  0.00  0.00    +0.000 C 
BRANCH  15  16
ATOM     16  C   UNL     1       0.253   9.557  19.667  0.00  0.00    +0.000 C 
ATOM     17  C   UNL     1       0.581   9.605  18.175  0.00  0.00    +0.000 C 
ATOM     18  O   UNL     1       1.766  10.362  17.913  0.00  0.00    +0.000 OA
ATOM     19  C   UNL     1       1.754  11.557  18.592  0.00  0.00    +0.000 A 
ATOM     20  C   UNL     1       2.671  12.520  18.184  0.00  0.00    +0.000 A 
ATOM     21  C   UNL     1       2.711  13.760  18.823  0.00  0.00    +0.000 A 
ATOM     22  C   UNL     1       1.826  14.034  19.869  0.00  0.00    +0.000 A 
ATOM     23  C   UNL     1       0.918  13.060  20.288  0.00  0.00    +0.000 A 
ATOM     24  C   UNL     1       0.898  11.813  19.663  0.00  0.00    +0.000 A 
ATOM     25  O   UNL     1       0.022  10.887  20.171  0.00  0.00    +0.000 OA
ENDBRANCH  15  16
ENDBRANCH   8  15
TORSDOF 2
ENDMDL
MODEL 5
REMARK VINA RESULT:      -7.3      2.210      7.653
REMARK  Name = 
REMARK  4 active torsions:
REMARK  status: ('A' for Active; 'I' for Inactive)
REMARK    1  A    between atoms: C_1  and  C_2
REMARK    2  A    between atoms: C_2  and  C_3
REMARK    3  A    between atoms: N_8  and  C_9
REMARK    4  A    between atoms: C_9  and  C_10
REMARK                            x       y       z     vdW  Elec       q    Type
REMARK                         _______ _______ _______ _____ _____    ______ ____
ROOT
ATOM      1  C   UNL     1       0.754   3.036  19.690  0.00  0.00    +0.000 C 
ATOM      2  C   UNL     1       2.121   3.573  20.153  0.00  0.00    +0.000 C 
ATOM      3  C   UNL     1       2.588   2.732  21.347  0.00  0.00    +0.000 C 
ATOM      4  C   UNL     1       2.028   5.076  20.492  0.00  0.00    +0.000 C 
ATOM      5  N   UNL     1       2.438   5.786  19.282  0.00  0.00    +0.000 N 
ATOM      6  C   UNL     1       2.307   7.129  19.004  0.00  0.00    +0.000 C 
ATOM      7  O   UNL     1       2.643   7.613  17.939  0.00  0.00    +0.000 OA
ATOM      8  N   UNL     1       1.751   7.885  20.000  0.00  0.00    +0.000 N 
ATOM      9  C   UNL     1       2.875   4.860  18.234  0.00  0.00    +0.000 C 
ATOM     10  C   UNL     1       4.227   5.137  17.578  0.00  0.00    +0.000 C 
ATOM     11  O   UNL     1       5.220   4.331  18.242  0.00  0.00    +0.000 OA
ATOM     12  C   UNL     1       4.589   3.684  19.346  0.00  0.00    +0.000 C 
ATOM     13  C   UNL     1       3.117   3.557  18.979  0.00  0.00    +0.000 C 
ATOM     14  H   UNL     1       1.933   7.569  20.940  0.00  0.00    +0.000 HD
ENDROOT
BRANCH   8  15
ATOM     15  C   UNL     1       1.577   9.319  19.801  0.00  0.00    +0.000 C 
BRANCH  15  16
ATOM     16  C   UNL     1       0.783  10.000  20.935  0.00  0.00    +0.000 C 
ATOM     17  C   UNL     1      -0.717  10.084  20.653  0.00  0.00    +0.000 C 
ATOM     18  O   UNL     1      -1.002  10.898  19.513  0.00  0.00    +0.000 OA
ATOM     19  C   UNL     1      -0.305  12.081  19.559  0.00  0.00    +0.000 A 
ATOM     20  C   UNL     1      -0.725  13.091  18.698  0.00  0.00    +0.000 A 
ATOM     21  C   UNL     1      -0.068  14.323  18.696  0.00  0.00    +0.000 A 
ATOM     22  C   UNL     1       1.007  14.541  19.560  0.00  0.00    +0.000 A 
ATOM     23  C   UNL     1       1.438  13.521  20.411  0.00  0.00    +0.000 A 
ATOM     24  C   UNL     1       0.795  12.283  20.393  0.00  0.00    +0.000 A 
ATOM     25  O   UNL     1       1.314  11.311  21.210  0.00  0.00    +0.000 OA
ENDBRANCH  15  16
ENDBRANCH   8  15
TORSDOF 2
ENDMDL
MODEL 6
REMARK VINA RESULT:      -7.3      2.187      4.286
REMARK  Name = 
REMARK  4 active torsions:
REMARK  status: ('A' for Active; 'I' for Inactive)
REMARK    1  A    between atoms: C_1  and  C_2
REMARK    2  A    between atoms: C_2  and  C_3
REMARK    3  A    between atoms: N_8  and  C_9
REMARK    4  A    between atoms: C_9  and  C_10
REMARK                            x       y       z     vdW  Elec       q    Type
REMARK                         _______ _______ _______ _____ _____    ______ ____
ROOT
ATOM      1  C   UNL     1       1.607   9.670  22.549  0.00  0.00    +0.000 C 
ATOM      2  C   UNL     1       0.555   9.143  21.555  0.00  0.00    +0.000 C 
ATOM      3  C   UNL     1      -0.634   8.601  22.358  0.00  0.00    +0.000 C 
ATOM      4  C   UNL     1       1.171   8.078  20.624  0.00  0.00    +0.000 C 
ATOM      5  N   UNL     1       1.589   8.792  19.419  0.00  0.00    +0.000 N 
ATOM      6  C   UNL     1       2.390   8.331  18.397  0.00  0.00    +0.000 C 
ATOM      7  O   UNL     1       2.717   9.028  17.455  0.00  0.00    +0.000 OA
ATOM      8  N   UNL     1       2.818   7.036  18.523  0.00  0.00    +0.000 N 
ATOM      9  C   UNL     1       1.203  10.205  19.467  0.00  0.00    +0.000 C 
ATOM     10  C   UNL     1       0.455  10.764  18.257  0.00  0.00    +0.000 C 
ATOM     11  O   UNL     1      -0.957  10.713  18.541  0.00  0.00    +0.000 OA
ATOM     12  C   UNL     1      -1.126  10.033  19.784  0.00  0.00    +0.000 C 
ATOM     13  C   UNL     1       0.158  10.258  20.570  0.00  0.00    +0.000 C 
ATOM     14  H   UNL     1       2.187   6.414  19.003  0.00  0.00    +0.000 HD
ENDROOT
BRANCH   8  15
ATOM     15  C   UNL     1       3.666   6.457  17.488  0.00  0.00    +0.000 C 
BRANCH  15  16
ATOM     16  C   UNL     1       4.462   5.227  17.970  0.00  0.00    +0.000 C 
ATOM     17  C   UNL     1       4.270   3.999  17.080  0.00  0.00    +0.000 C 
ATOM     18  O   UNL     1       2.915   3.542  17.086  0.00  0.00    +0.000 OA
ATOM     19  C   UNL     1       2.419   3.474  18.366  0.00  0.00    +0.000 A 
ATOM     20  C   UNL     1       1.245   2.747  18.546  0.00  0.00    +0.000 A 
ATOM     21  C   UNL     1       0.688   2.629  19.820  0.00  0.00    +0.000 A 
ATOM     22  C   UNL     1       1.310   3.236  20.913  0.00  0.00    +0.000 A 
ATOM     23  C   UNL     1       2.478   3.979  20.727  0.00  0.00    +0.000 A 
ATOM     24  C   UNL     1       3.020   4.115  19.449  0.00  0.00    +0.000 A 
ATOM     25  O   UNL     1       4.131   4.911  19.336  0.00  0.00    +0.000 OA
ENDBRANCH  15  16
ENDBRANCH   8  15
TORSDOF 2
ENDMDL
MODEL 7
REMARK VINA RESULT:      -7.2      2.204      7.718
REMARK  Name = 
REMARK  4 active torsions:
REMARK  status: ('A' for Active; 'I' for Inactive)
REMARK    1  A    between atoms: C_1  and  C_2
REMARK    2  A    between atoms: C_2  and  C_3
REMARK    3  A    between atoms: N_8  and  C_9
REMARK    4  A    between atoms: C_9  and  C_10
REMARK                            x       y       z     vdW  Elec       q    Type
REMARK                         _______ _______ _______ _____ _____    ______ ____
ROOT
ATOM      1  C   UNL     1       5.568   5.107  18.950  0.00  0.00    +0.000 C 
ATOM      2  C   UNL     1       4.169   4.819  18.374  0.00  0.00    +0.000 C 
ATOM      3  C   UNL     1       4.342   4.163  16.999  0.00  0.00    +0.000 C 
ATOM      4  C   UNL     1       3.332   6.113  18.308  0.00  0.00    +0.000 C 
ATOM      5  N   UNL     1       2.545   6.146  19.539  0.00  0.00    +0.000 N 
ATOM      6  C   UNL     1       1.821   7.200  20.053  0.00  0.00    +0.000 C 
ATOM      7  O   UNL     1       1.234   7.135  21.117  0.00  0.00    +0.000 OA
ATOM      8  N   UNL     1       1.822   8.341  19.295  0.00  0.00    +0.000 N 
ATOM      9  C   UNL     1       2.741   4.933  20.338  0.00  0.00    +0.000 C 
ATOM     10  C   UNL     1       1.486   4.199  20.810  0.00  0.00    +0.000 C 
ATOM     11  O   UNL     1       1.210   3.139  19.875  0.00  0.00    +0.000 OA
ATOM     12  C   UNL     1       2.130   3.263  18.791  0.00  0.00    +0.000 C 
ATOM     13  C   UNL     1       3.364   3.952  19.358  0.00  0.00    +0.000 C 
ATOM     14  H   UNL     1       1.893   8.201  18.299  0.00  0.00    +0.000 HD
ENDROOT
BRANCH   8  15
ATOM     15  C   UNL     1       1.078   9.507  19.754  0.00  0.00    +0.000 C 
BRANCH  15  16
ATOM     16  C   UNL     1       1.086  10.671  18.742  0.00  0.00    +0.000 C 
ATOM     17  C   UNL     1       0.808  12.030  19.385  0.00  0.00    +0.000 C 
ATOM     18  O   UNL     1      -0.501  12.094  19.956  0.00  0.00    +0.000 OA
ATOM     19  C   UNL     1      -1.447  11.606  19.086  0.00  0.00    +0.000 A 
ATOM     20  C   UNL     1      -2.776  11.903  19.373  0.00  0.00    +0.000 A 
ATOM     21  C   UNL     1      -3.790  11.447  18.530  0.00  0.00    +0.000 A 
ATOM     22  C   UNL     1      -3.470  10.697  17.397  0.00  0.00    +0.000 A 
ATOM     23  C   UNL     1      -2.137  10.385  17.120  0.00  0.00    +0.000 A 
ATOM     24  C   UNL     1      -1.128  10.822  17.978  0.00  0.00    +0.000 A 
ATOM     25  O   UNL     1       0.149  10.423  17.675  0.00  0.00    +0.000 OA
ENDBRANCH  15  16
ENDBRANCH   8  15
TORSDOF 2
ENDMDL
MODEL 8
REMARK VINA RESULT:      -7.1      1.877      7.172
REMARK  Name = 
REMARK  4 active torsions:
REMARK  status: ('A' for Active; 'I' for Inactive)
REMARK    1  A    between atoms: C_1  and  C_2
REMARK    2  A    between atoms: C_2  and  C_3
REMARK    3  A    between atoms: N_8  and  C_9
REMARK    4  A    between atoms: C_9  and  C_10
REMARK                            x       y       z     vdW  Elec       q    Type
REMARK                         _______ _______ _______ _____ _____    ______ ____
ROOT
ATOM      1  C   UNL     1       6.334   6.110  18.046  0.00  0.00    +0.000 C 
ATOM      2  C   UNL     1       4.988   5.798  17.366  0.00  0.00    +0.000 C 
ATOM      3  C   UNL     1       5.205   5.803  15.848  0.00  0.00    +0.000 C 
ATOM      4  C   UNL     1       3.908   6.808  17.809  0.00  0.00    +0.000 C 
ATOM      5  N   UNL     1       3.206   6.179  18.927  0.00  0.00    +0.000 N 
ATOM      6  C   UNL     1       2.319   6.764  19.805  0.00  0.00    +0.000 C 
ATOM      7  O   UNL     1       1.822   6.156  20.735  0.00  0.00    +0.000 OA
ATOM      8  N   UNL     1       2.049   8.087  19.576  0.00  0.00    +0.000 N 
ATOM      9  C   UNL     1       3.686   4.816  19.168  0.00  0.00    +0.000 C 
ATOM     10  C   UNL     1       2.632   3.714  19.267  0.00  0.00    +0.000 C 
ATOM     11  O   UNL     1       2.516   3.088  17.975  0.00  0.00    +0.000 OA
ATOM     12  C   UNL     1       3.326   3.824  17.061  0.00  0.00    +0.000 C 
ATOM     13  C   UNL     1       4.431   4.463  17.891  0.00  0.00    +0.000 C 
ATOM     14  H   UNL     1       2.087   8.378  18.612  0.00  0.00    +0.000 HD
ENDROOT
BRANCH   8  15
ATOM     15  C   UNL     1       1.118   8.790  20.450  0.00  0.00    +0.000 C 
BRANCH  15  16
ATOM     16  C   UNL     1       0.066   9.616  19.681  0.00  0.00    +0.000 C 
ATOM     17  C   UNL     1       0.583  10.156  18.347  0.00  0.00    +0.000 C 
ATOM     18  O   UNL     1       1.663  11.076  18.526  0.00  0.00    +0.000 OA
ATOM     19  C   UNL     1       1.377  11.995  19.507  0.00  0.00    +0.000 A 
ATOM     20  C   UNL     1       2.184  13.128  19.561  0.00  0.00    +0.000 A 
ATOM     21  C   UNL     1       1.948  14.107  20.527  0.00  0.00    +0.000 A 
ATOM     22  C   UNL     1       0.898  13.951  21.435  0.00  0.00    +0.000 A 
ATOM     23  C   UNL     1       0.100  12.806  21.390  0.00  0.00    +0.000 A 
ATOM     24  C   UNL     1       0.355  11.818  20.440  0.00  0.00    +0.000 A 
ATOM     25  O   UNL     1      -0.430  10.694  20.498  0.00  0.00    +0.000 OA
ENDBRANCH  15  16
ENDBRANCH   8  15
TORSDOF 2
ENDMDL
MODEL 9
REMARK VINA RESULT:      -7.1      1.927      2.597
REMARK  Name = 
REMARK  4 active torsions:
REMARK  status: ('A' for Active; 'I' for Inactive)
REMARK    1  A    between atoms: C_1  and  C_2
REMARK    2  A    between atoms: C_2  and  C_3
REMARK    3  A    between atoms: N_8  and  C_9
REMARK    4  A    between atoms: C_9  and  C_10
REMARK                            x       y       z     vdW  Elec       q    Type
REMARK                         _______ _______ _______ _____ _____    ______ ____
ROOT
ATOM      1  C   UNL     1      -3.171   9.458  17.874  0.00  0.00    +0.000 C 
ATOM      2  C   UNL     1      -2.093  10.527  17.616  0.00  0.00    +0.000 C 
ATOM      3  C   UNL     1      -2.551  11.398  16.441  0.00  0.00    +0.000 C 
ATOM      4  C   UNL     1      -0.722   9.866  17.360  0.00  0.00    +0.000 C 
ATOM      5  N   UNL     1      -0.039   9.844  18.652  0.00  0.00    +0.000 N 
ATOM      6  C   UNL     1       1.107   9.158  18.992  0.00  0.00    +0.000 C 
ATOM      7  O   UNL     1       1.569   9.173  20.118  0.00  0.00    +0.000 OA
ATOM      8  N   UNL     1       1.681   8.434  17.982  0.00  0.00    +0.000 N 
ATOM      9  C   UNL     1      -0.822  10.523  19.688  0.00  0.00    +0.000 C 
ATOM     10  C   UNL     1      -0.104  11.584  20.521  0.00  0.00    +0.000 C 
ATOM     11  O   UNL     1      -0.378  12.872  19.938  0.00  0.00    +0.000 OA
ATOM     12  C   UNL     1      -1.101  12.657  18.728  0.00  0.00    +0.000 C 
ATOM     13  C   UNL     1      -1.837  11.335  18.901  0.00  0.00    +0.000 C 
ATOM     14  H   UNL     1       1.563   8.812  17.055  0.00  0.00    +0.000 HD
ENDROOT
BRANCH   8  15
ATOM     15  C   UNL     1       2.900   7.679  18.245  0.00  0.00    +0.000 C 
BRANCH  15  16
ATOM     16  C   UNL     1       2.658   6.163  18.393  0.00  0.00    +0.000 C 
ATOM     17  C   UNL     1       3.231   5.585  19.687  0.00  0.00    +0.000 C 
ATOM     18  O   UNL     1       4.655   5.701  19.740  0.00  0.00    +0.000 OA
ATOM     19  C   UNL     1       5.232   5.293  18.562  0.00  0.00    +0.000 A 
ATOM     20  C   UNL     1       6.602   5.046  18.585  0.00  0.00    +0.000 A 
ATOM     21  C   UNL     1       7.253   4.621  17.427  0.00  0.00    +0.000 A 
ATOM     22  C   UNL     1       6.530   4.440  16.246  0.00  0.00    +0.000 A 
ATOM     23  C   UNL     1       5.158   4.704  16.220  0.00  0.00    +0.000 A 
ATOM     24  C   UNL     1       4.515   5.152  17.373  0.00  0.00    +0.000 A 
ATOM     25  O   UNL     1       3.181   5.451  17.254  0.00  0.00    +0.000 OA
ENDBRANCH  15  16
ENDBRANCH   8  15
TORSDOF 2
ENDMDL
