MODEL 1
REMARK VINA RESULT:      -7.6      0.000      0.000
REMARK  Name = 
REMARK  4 active torsions:
REMARK  status: ('A' for Active; 'I' for Inactive)
REMARK    1  A    between atoms: C_6  and  C_7
REMARK    2  A    between atoms: C_7  and  S_8
REMARK    3  A    between atoms: S_8  and  C_9
REMARK    4  A    between atoms: C_12  and  C_13
REMARK                            x       y       z     vdW  Elec       q    Type
REMARK                         _______ _______ _______ _____ _____    ______ ____
ROOT
ATOM      1  C   UNL     1       7.375   7.594  17.746  0.00  0.00    +0.000 A 
ATOM      2  C   UNL     1       7.857   6.659  18.646  0.00  0.00    +0.000 A 
ATOM      3  C   UNL     1       7.130   5.481  18.861  0.00  0.00    +0.000 A 
ATOM      4  C   UNL     1       5.945   5.269  18.164  0.00  0.00    +0.000 A 
ATOM      5  N   UNL     1       5.523   6.197  17.272  0.00  0.00    +0.000 NA
ATOM      6  N   UNL     1       6.237   7.360  17.064  0.00  0.00    +0.000 NA
ENDROOT
BRANCH   4   7
ATOM      7  C   UNL     1       5.083   4.083  18.353  0.00  0.00    +0.000 A 
ATOM      8  C   UNL     1       4.190   3.648  17.368  0.00  0.00    +0.000 A 
ATOM      9  C   UNL     1       3.366   2.553  17.615  0.00  0.00    +0.000 A 
ATOM     10  C   UNL     1       3.447   1.904  18.838  0.00  0.00    +0.000 A 
ATOM     11  C   UNL     1       4.358   2.378  19.765  0.00  0.00    +0.000 A 
ATOM     12  N   UNL     1       5.170   3.441  19.553  0.00  0.00    +0.000 NA
ENDBRANCH   4   7
BRANCH   1  13
ATOM     13  S   UNL     1       8.252   9.116  17.455  0.00  0.00    +0.000 S 
BRANCH  13  14
ATOM     14  C   UNL     1       8.945   9.399  19.119  0.00  0.00    +0.000 C 
BRANCH  14  20
ATOM     15 CL   UNL     1      11.510  13.278  16.710  0.00  0.00    +0.000 Cl
ATOM     16  C   UNL     1      10.911  12.525  18.137  0.00  0.00    +0.000 A 
ATOM     17  C   UNL     1      11.151  13.111  19.378  0.00  0.00    +0.000 A 
ATOM     18  C   UNL     1      10.670  12.498  20.534  0.00  0.00    +0.000 A 
ATOM     19  C   UNL     1       9.955  11.303  20.445  0.00  0.00    +0.000 A 
ATOM     20  C   UNL     1       9.712  10.701  19.200  0.00  0.00    +0.000 A 
ATOM     21  C   UNL     1      10.196  11.327  18.042  0.00  0.00    +0.000 A 
ENDBRANCH  14  20
ENDBRANCH  13  14
ENDBRANCH   1  13
TORSDOF 4
ENDMDL
MODEL 2
REMARK VINA RESULT:      -7.4      5.942      8.455
REMARK  Name = 
REMARK  4 active torsions:
REMARK  status: ('A' for Active; 'I' for Inactive)
REMARK    1  A    between atoms: C_6  and  C_7
REMARK    2  A    between atoms: C_7  and  S_8
REMARK    3  A    between atoms: S_8  and  C_9
REMARK    4  A    between atoms: C_12  and  C_13
REMARK                            x       y       z     vdW  Elec       q    Type
REMARK                         _______ _______ _______ _____ _____    ______ ____
ROOT
ATOM      1  C   UNL     1       2.273   6.950  19.435  0.00  0.00    +0.000 A 
ATOM      2  C   UNL     1       2.423   7.492  18.170  0.00  0.00    +0.000 A 
ATOM      3  C   UNL     1       1.930   8.778  17.916  0.00  0.00    +0.000 A 
ATOM      4  C   UNL     1       1.307   9.488  18.938  0.00  0.00    +0.000 A 
ATOM      5  N   UNL     1       1.205   8.931  20.169  0.00  0.00    +0.000 NA
ATOM      6  N   UNL     1       1.687   7.661  20.417  0.00  0.00    +0.000 NA
ENDROOT
BRANCH   4   7
ATOM      7  C   UNL     1       0.712  10.830  18.760  0.00  0.00    +0.000 A 
ATOM      8  C   UNL     1      -0.660  11.013  18.556  0.00  0.00    +0.000 A 
ATOM      9  C   UNL     1      -1.164  12.295  18.347  0.00  0.00    +0.000 A 
ATOM     10  C   UNL     1      -0.293  13.375  18.349  0.00  0.00    +0.000 A 
ATOM     11  C   UNL     1       1.050  13.126  18.567  0.00  0.00    +0.000 A 
ATOM     12  N   UNL     1       1.568  11.891  18.771  0.00  0.00    +0.000 NA
ENDBRANCH   4   7
BRANCH   1  13
ATOM     13  S   UNL     1       2.866   5.310  19.800  0.00  0.00    +0.000 S 
BRANCH  13  14
ATOM     14  C   UNL     1       3.061   4.666  18.104  0.00  0.00    +0.000 C 
BRANCH  14  20
ATOM     15 CL   UNL     1       8.089   5.727  19.117  0.00  0.00    +0.000 Cl
ATOM     16  C   UNL     1       6.855   5.119  18.082  0.00  0.00    +0.000 A 
ATOM     17  C   UNL     1       7.193   4.623  16.825  0.00  0.00    +0.000 A 
ATOM     18  C   UNL     1       6.193   4.135  15.985  0.00  0.00    +0.000 A 
ATOM     19  C   UNL     1       4.861   4.146  16.404  0.00  0.00    +0.000 A 
ATOM     20  C   UNL     1       4.509   4.649  17.667  0.00  0.00    +0.000 A 
ATOM     21  C   UNL     1       5.523   5.133  18.507  0.00  0.00    +0.000 A 
ENDBRANCH  14  20
ENDBRANCH  13  14
ENDBRANCH   1  13
TORSDOF 4
ENDMDL
MODEL 3
REMARK VINA RESULT:      -7.3      7.760      9.391
REMARK  Name = 
REMARK  4 active torsions:
REMARK  status: ('A' for Active; 'I' for Inactive)
REMARK    1  A    between atoms: C_6  and  C_7
REMARK    2  A    between atoms: C_7  and  S_8
REMARK    3  A    between atoms: S_8  and  C_9
REMARK    4  A    between atoms: C_12  and  C_13
REMARK                            x       y       z     vdW  Elec       q    Type
REMARK                         _______ _______ _______ _____ _____    ______ ____
ROOT
ATOM      1  C   UNL     1       1.252   9.718  19.021  0.00  0.00    +0.000 A 
ATOM      2  C   UNL     1       1.896   9.247  17.890  0.00  0.00    +0.000 A 
ATOM      3  C   UNL     1       2.500   7.984  17.927  0.00  0.00    +0.000 A 
ATOM      4  C   UNL     1       2.437   7.225  19.092  0.00  0.00    +0.000 A 
ATOM      5  N   UNL     1       1.773   7.713  20.167  0.00  0.00    +0.000 NA
ATOM      6  N   UNL     1       1.182   8.960  20.132  0.00  0.00    +0.000 NA
ENDROOT
BRANCH   4   7
ATOM      7  C   UNL     1       3.081   5.904  19.246  0.00  0.00    +0.000 A 
ATOM      8  C   UNL     1       2.488   4.870  19.979  0.00  0.00    +0.000 A 
ATOM      9  C   UNL     1       3.159   3.658  20.135  0.00  0.00    +0.000 A 
ATOM     10  C   UNL     1       4.407   3.494  19.552  0.00  0.00    +0.000 A 
ATOM     11  C   UNL     1       4.931   4.552  18.831  0.00  0.00    +0.000 A 
ATOM     12  N   UNL     1       4.303   5.741  18.666  0.00  0.00    +0.000 NA
ENDBRANCH   4   7
BRANCH   1  13
ATOM     13  S   UNL     1       0.487  11.327  19.030  0.00  0.00    +0.000 S 
BRANCH  13  14
ATOM     14  C   UNL     1      -1.221  10.856  19.465  0.00  0.00    +0.000 C 
BRANCH  14  20
ATOM     15 CL   UNL     1      -5.617  12.366  17.050  0.00  0.00    +0.000 Cl
ATOM     16  C   UNL     1      -4.145  11.473  17.084  0.00  0.00    +0.000 A 
ATOM     17  C   UNL     1      -3.792  10.686  15.991  0.00  0.00    +0.000 A 
ATOM     18  C   UNL     1      -2.603   9.959  16.020  0.00  0.00    +0.000 A 
ATOM     19  C   UNL     1      -1.774  10.021  17.142  0.00  0.00    +0.000 A 
ATOM     20  C   UNL     1      -2.123  10.807  18.251  0.00  0.00    +0.000 A 
ATOM     21  C   UNL     1      -3.319  11.538  18.211  0.00  0.00    +0.000 A 
ENDBRANCH  14  20
ENDBRANCH  13  14
ENDBRANCH   1  13
TORSDOF 4
ENDMDL
MODEL 4
REMARK VINA RESULT:      -7.3      3.631      9.032
REMARK  Name = 
REMARK  4 active torsions:
REMARK  status: ('A' for Active; 'I' for Inactive)
REMARK    1  A    between atoms: C_6  and  C_7
REMARK    2  A    between atoms: C_7  and  S_8
REMARK    3  A    between atoms: S_8  and  C_9
REMARK    4  A    between atoms: C_12  and  C_13
REMARK                            x       y       z     vdW  Elec       q    Type
REMARK                         _______ _______ _______ _____ _____    ______ ____
ROOT
ATOM      1  C   UNL     1       7.040   6.141  17.510  0.00  0.00    +0.000 A 
ATOM      2  C   UNL     1       7.852   6.214  18.629  0.00  0.00    +0.000 A 
ATOM      3  C   UNL     1       8.419   7.445  18.982  0.00  0.00    +0.000 A 
ATOM      4  C   UNL     1       8.152   8.571  18.209  0.00  0.00    +0.000 A 
ATOM      5  N   UNL     1       7.330   8.461  17.138  0.00  0.00    +0.000 NA
ATOM      6  N   UNL     1       6.776   7.247  16.788  0.00  0.00    +0.000 NA
ENDROOT
BRANCH   4   7
ATOM      7  C   UNL     1       8.738   9.903  18.470  0.00  0.00    +0.000 A 
ATOM      8  C   UNL     1       9.552  10.152  19.580  0.00  0.00    +0.000 A 
ATOM      9  C   UNL     1      10.041  11.437  19.806  0.00  0.00    +0.000 A 
ATOM     10  C   UNL     1       9.716  12.452  18.919  0.00  0.00    +0.000 A 
ATOM     11  C   UNL     1       8.916  12.136  17.835  0.00  0.00    +0.000 A 
ATOM     12  N   UNL     1       8.425  10.897  17.592  0.00  0.00    +0.000 NA
ENDBRANCH   4   7
BRANCH   1  13
ATOM     13  S   UNL     1       6.313   4.594  17.010  0.00  0.00    +0.000 S 
BRANCH  13  14
ATOM     14  C   UNL     1       4.605   5.145  16.682  0.00  0.00    +0.000 C 
BRANCH  14  20
ATOM     15 CL   UNL     1       1.183   4.810  20.632  0.00  0.00    +0.000 Cl
ATOM     16  C   UNL     1       1.990   4.126  19.274  0.00  0.00    +0.000 A 
ATOM     17  C   UNL     1       1.717   2.813  18.900  0.00  0.00    +0.000 A 
ATOM     18  C   UNL     1       2.374   2.257  17.804  0.00  0.00    +0.000 A 
ATOM     19  C   UNL     1       3.302   3.015  17.088  0.00  0.00    +0.000 A 
ATOM     20  C   UNL     1       3.589   4.338  17.459  0.00  0.00    +0.000 A 
ATOM     21  C   UNL     1       2.919   4.890  18.561  0.00  0.00    +0.000 A 
ENDBRANCH  14  20
ENDBRANCH  13  14
ENDBRANCH   1  13
TORSDOF 4
ENDMDL
MODEL 5
REMARK VINA RESULT:      -7.3      6.154      8.496
REMARK  Name = 
REMARK  4 active torsions:
REMARK  status: ('A' for Active; 'I' for Inactive)
REMARK    1  A    between atoms: C_6  and  C_7
REMARK    2  A    between atoms: C_7  and  S_8
REMARK    3  A    between atoms: S_8  and  C_9
REMARK    4  A    between atoms: C_12  and  C_13
REMARK                            x       y       z     vdW  Elec       q    Type
REMARK                         _______ _______ _______ _____ _____    ______ ____
ROOT
ATOM      1  C   UNL     1       2.536   6.886  19.313  0.00  0.00    +0.000 A 
ATOM      2  C   UNL     1       2.496   7.412  18.034  0.00  0.00    +0.000 A 
ATOM      3  C   UNL     1       1.842   8.633  17.820  0.00  0.00    +0.000 A 
ATOM      4  C   UNL     1       1.255   9.295  18.893  0.00  0.00    +0.000 A 
ATOM      5  N   UNL     1       1.342   8.758  20.134  0.00  0.00    +0.000 NA
ATOM      6  N   UNL     1       1.981   7.552  20.344  0.00  0.00    +0.000 NA
ENDROOT
BRANCH   4   7
ATOM      7  C   UNL     1       0.504  10.562  18.764  0.00  0.00    +0.000 A 
ATOM      8  C   UNL     1      -0.817  10.599  18.305  0.00  0.00    +0.000 A 
ATOM      9  C   UNL     1      -1.465  11.823  18.157  0.00  0.00    +0.000 A 
ATOM     10  C   UNL     1      -0.788  12.991  18.473  0.00  0.00    +0.000 A 
ATOM     11  C   UNL     1       0.513  12.885  18.932  0.00  0.00    +0.000 A 
ATOM     12  N   UNL     1       1.168  11.709  19.084  0.00  0.00    +0.000 NA
ENDBRANCH   4   7
BRANCH   1  13
ATOM     13  S   UNL     1       3.336   5.327  19.632  0.00  0.00    +0.000 S 
BRANCH  13  14
ATOM     14  C   UNL     1       3.291   4.605  17.957  0.00  0.00    +0.000 C 
BRANCH  14  20
ATOM     15 CL   UNL     1       6.274   3.795  13.729  0.00  0.00    +0.000 Cl
ATOM     16  C   UNL     1       6.094   4.199  15.393  0.00  0.00    +0.000 A 
ATOM     17  C   UNL     1       7.223   4.472  16.161  0.00  0.00    +0.000 A 
ATOM     18  C   UNL     1       7.078   4.794  17.509  0.00  0.00    +0.000 A 
ATOM     19  C   UNL     1       5.807   4.841  18.084  0.00  0.00    +0.000 A 
ATOM     20  C   UNL     1       4.662   4.562  17.320  0.00  0.00    +0.000 A 
ATOM     21  C   UNL     1       4.818   4.243  15.963  0.00  0.00    +0.000 A 
ENDBRANCH  14  20
ENDBRANCH  13  14
ENDBRANCH   1  13
TORSDOF 4
ENDMDL
MODEL 6
REMARK VINA RESULT:      -7.2      5.810      7.473
REMARK  Name = 
REMARK  4 active torsions:
REMARK  status: ('A' for Active; 'I' for Inactive)
REMARK    1  A    between atoms: C_6  and  C_7
REMARK    2  A    between atoms: C_7  and  S_8
REMARK    3  A    between atoms: S_8  and  C_9
REMARK    4  A    between atoms: C_12  and  C_13
REMARK                            x       y       z     vdW  Elec       q    Type
REMARK                         _______ _______ _______ _____ _____    ______ ____
ROOT
ATOM      1  C   UNL     1       5.033   4.212  18.312  0.00  0.00    +0.000 A 
ATOM      2  C   UNL     1       6.240   4.866  18.139  0.00  0.00    +0.000 A 
ATOM      3  C   UNL     1       6.769   4.992  16.848  0.00  0.00    +0.000 A 
ATOM      4  C   UNL     1       6.070   4.466  15.765  0.00  0.00    +0.000 A 
ATOM      5  N   UNL     1       4.879   3.857  15.976  0.00  0.00    +0.000 NA
ATOM      6  N   UNL     1       4.361   3.728  17.250  0.00  0.00    +0.000 NA
ENDROOT
BRANCH   4   7
ATOM      7  C   UNL     1       6.564   4.505  14.373  0.00  0.00    +0.000 A 
ATOM      8  C   UNL     1       6.050   3.666  13.378  0.00  0.00    +0.000 A 
ATOM      9  C   UNL     1       6.584   3.710  12.092  0.00  0.00    +0.000 A 
ATOM     10  C   UNL     1       7.617   4.593  11.815  0.00  0.00    +0.000 A 
ATOM     11  C   UNL     1       8.071   5.402  12.840  0.00  0.00    +0.000 A 
ATOM     12  N   UNL     1       7.574   5.380  14.100  0.00  0.00    +0.000 NA
ENDBRANCH   4   7
BRANCH   1  13
ATOM     13  S   UNL     1       4.331   4.008  19.936  0.00  0.00    +0.000 S 
BRANCH  13  14
ATOM     14  C   UNL     1       2.579   4.358  19.564  0.00  0.00    +0.000 C 
BRANCH  14  20
ATOM     15 CL   UNL     1       1.081   8.795  21.908  0.00  0.00    +0.000 Cl
ATOM     16  C   UNL     1       1.614   7.929  20.519  0.00  0.00    +0.000 A 
ATOM     17  C   UNL     1       1.774   8.600  19.309  0.00  0.00    +0.000 A 
ATOM     18  C   UNL     1       2.201   7.898  18.183  0.00  0.00    +0.000 A 
ATOM     19  C   UNL     1       2.465   6.530  18.271  0.00  0.00    +0.000 A 
ATOM     20  C   UNL     1       2.301   5.843  19.484  0.00  0.00    +0.000 A 
ATOM     21  C   UNL     1       1.876   6.559  20.613  0.00  0.00    +0.000 A 
ENDBRANCH  14  20
ENDBRANCH  13  14
ENDBRANCH   1  13
TORSDOF 4
ENDMDL
MODEL 7
REMARK VINA RESULT:      -7.2      7.697      9.427
REMARK  Name = 
REMARK  4 active torsions:
REMARK  status: ('A' for Active; 'I' for Inactive)
REMARK    1  A    between atoms: C_6  and  C_7
REMARK    2  A    between atoms: C_7  and  S_8
REMARK    3  A    between atoms: S_8  and  C_9
REMARK    4  A    between atoms: C_12  and  C_13
REMARK                            x       y       z     vdW  Elec       q    Type
REMARK                         _______ _______ _______ _____ _____    ______ ____
ROOT
ATOM      1  C   UNL     1       1.279   9.874  18.786  0.00  0.00    +0.000 A 
ATOM      2  C   UNL     1       1.344   8.878  19.744  0.00  0.00    +0.000 A 
ATOM      3  C   UNL     1       2.063   7.708  19.465  0.00  0.00    +0.000 A 
ATOM      4  C   UNL     1       2.702   7.572  18.236  0.00  0.00    +0.000 A 
ATOM      5  N   UNL     1       2.635   8.583  17.337  0.00  0.00    +0.000 NA
ATOM      6  N   UNL     1       1.922   9.733  17.611  0.00  0.00    +0.000 NA
ENDROOT
BRANCH   4   7
ATOM      7  C   UNL     1       3.444   6.361  17.828  0.00  0.00    +0.000 A 
ATOM      8  C   UNL     1       3.091   5.085  18.279  0.00  0.00    +0.000 A 
ATOM      9  C   UNL     1       3.852   3.981  17.902  0.00  0.00    +0.000 A 
ATOM     10  C   UNL     1       4.951   4.165  17.076  0.00  0.00    +0.000 A 
ATOM     11  C   UNL     1       5.239   5.451  16.656  0.00  0.00    +0.000 A 
ATOM     12  N   UNL     1       4.519   6.543  17.008  0.00  0.00    +0.000 NA
ENDBRANCH   4   7
BRANCH   1  13
ATOM     13  S   UNL     1       0.360  11.370  19.087  0.00  0.00    +0.000 S 
BRANCH  13  14
ATOM     14  C   UNL     1      -1.285  10.660  19.431  0.00  0.00    +0.000 C 
BRANCH  14  20
ATOM     15 CL   UNL     1      -5.616  12.415  17.066  0.00  0.00    +0.000 Cl
ATOM     16  C   UNL     1      -4.176  11.471  17.068  0.00  0.00    +0.000 A 
ATOM     17  C   UNL     1      -3.846  10.717  15.945  0.00  0.00    +0.000 A 
ATOM     18  C   UNL     1      -2.682   9.949  15.949  0.00  0.00    +0.000 A 
ATOM     19  C   UNL     1      -1.856   9.937  17.075  0.00  0.00    +0.000 A 
ATOM     20  C   UNL     1      -2.183  10.690  18.214  0.00  0.00    +0.000 A 
ATOM     21  C   UNL     1      -3.353  11.463  18.199  0.00  0.00    +0.000 A 
ENDBRANCH  14  20
ENDBRANCH  13  14
ENDBRANCH   1  13
TORSDOF 4
ENDMDL
MODEL 8
REMARK VINA RESULT:      -7.0      7.629      9.195
REMARK  Name = 
REMARK  4 active torsions:
REMARK  status: ('A' for Active; 'I' for Inactive)
REMARK    1  A    between atoms: C_6  and  C_7
REMARK    2  A    between atoms: C_7  and  S_8
REMARK    3  A    between atoms: S_8  and  C_9
REMARK    4  A    between atoms: C_12  and  C_13
REMARK                            x       y       z     vdW  Elec       q    Type
REMARK                         _______ _______ _______ _____ _____    ______ ____
ROOT
ATOM      1  C   UNL     1       1.305   9.688  18.785  0.00  0.00    +0.000 A 
ATOM      2  C   UNL     1       1.292   8.896  19.920  0.00  0.00    +0.000 A 
ATOM      3  C   UNL     1       1.915   7.642  19.885  0.00  0.00    +0.000 A 
ATOM      4  C   UNL     1       2.541   7.219  18.716  0.00  0.00    +0.000 A 
ATOM      5  N   UNL     1       2.554   8.037  17.636  0.00  0.00    +0.000 NA
ATOM      6  N   UNL     1       1.934   9.270  17.670  0.00  0.00    +0.000 NA
ENDROOT
BRANCH   4   7
ATOM      7  C   UNL     1       3.185   5.898  18.562  0.00  0.00    +0.000 A 
ATOM      8  C   UNL     1       4.408   5.592  19.168  0.00  0.00    +0.000 A 
ATOM      9  C   UNL     1       4.996   4.348  18.953  0.00  0.00    +0.000 A 
ATOM     10  C   UNL     1       4.353   3.425  18.142  0.00  0.00    +0.000 A 
ATOM     11  C   UNL     1       3.140   3.785  17.583  0.00  0.00    +0.000 A 
ATOM     12  N   UNL     1       2.547   4.988  17.772  0.00  0.00    +0.000 NA
ENDBRANCH   4   7
BRANCH   1  13
ATOM     13  S   UNL     1       0.507  11.280  18.774  0.00  0.00    +0.000 S 
BRANCH  13  14
ATOM     14  C   UNL     1      -1.136  10.809  19.411  0.00  0.00    +0.000 C 
BRANCH  14  20
ATOM     15 CL   UNL     1      -2.796  10.006  14.510  0.00  0.00    +0.000 Cl
ATOM     16  C   UNL     1      -3.037  10.611  16.103  0.00  0.00    +0.000 A 
ATOM     17  C   UNL     1      -4.229  11.257  16.421  0.00  0.00    +0.000 A 
ATOM     18  C   UNL     1      -4.422  11.752  17.710  0.00  0.00    +0.000 A 
ATOM     19  C   UNL     1      -3.423  11.601  18.673  0.00  0.00    +0.000 A 
ATOM     20  C   UNL     1      -2.216  10.957  18.361  0.00  0.00    +0.000 A 
ATOM     21  C   UNL     1      -2.032  10.457  17.063  0.00  0.00    +0.000 A 
ENDBRANCH  14  20
ENDBRANCH  13  14
ENDBRANCH   1  13
TORSDOF 4
ENDMDL
MODEL 9
REMARK VINA RESULT:      -7.0      6.245      8.025
REMARK  Name = 
REMARK  4 active torsions:
REMARK  status: ('A' for Active; 'I' for Inactive)
REMARK    1  A    between atoms: C_6  and  C_7
REMARK    2  A    between atoms: C_7  and  S_8
REMARK    3  A    between atoms: S_8  and  C_9
REMARK    4  A    between atoms: C_12  and  C_13
REMARK                            x       y       z     vdW  Elec       q    Type
REMARK                         _______ _______ _______ _____ _____    ______ ____
ROOT
ATOM      1  C   UNL     1       4.005   5.047  17.428  0.00  0.00    +0.000 A 
ATOM      2  C   UNL     1       2.988   4.664  18.285  0.00  0.00    +0.000 A 
ATOM      3  C   UNL     1       2.246   5.651  18.946  0.00  0.00    +0.000 A 
ATOM      4  C   UNL     1       2.537   6.994  18.724  0.00  0.00    +0.000 A 
ATOM      5  N   UNL     1       3.522   7.325  17.855  0.00  0.00    +0.000 NA
ATOM      6  N   UNL     1       4.257   6.352  17.208  0.00  0.00    +0.000 NA
ENDROOT
BRANCH   4   7
ATOM      7  C   UNL     1       1.844   8.107  19.406  0.00  0.00    +0.000 A 
ATOM      8  C   UNL     1       1.496   8.047  20.760  0.00  0.00    +0.000 A 
ATOM      9  C   UNL     1       0.802   9.105  21.344  0.00  0.00    +0.000 A 
ATOM     10  C   UNL     1       0.471  10.207  20.572  0.00  0.00    +0.000 A 
ATOM     11  C   UNL     1       0.854  10.208  19.242  0.00  0.00    +0.000 A 
ATOM     12  N   UNL     1       1.527   9.194  18.648  0.00  0.00    +0.000 NA
ENDBRANCH   4   7
BRANCH   1  13
ATOM     13  S   UNL     1       4.990   3.829  16.581  0.00  0.00    +0.000 S 
BRANCH  13  14
ATOM     14  C   UNL     1       6.335   4.894  15.960  0.00  0.00    +0.000 C 
BRANCH  14  20
ATOM     15 CL   UNL     1       5.342   2.247  11.552  0.00  0.00    +0.000 Cl
ATOM     16  C   UNL     1       6.199   3.460  12.421  0.00  0.00    +0.000 A 
ATOM     17  C   UNL     1       7.172   4.215  11.771  0.00  0.00    +0.000 A 
ATOM     18  C   UNL     1       7.870   5.194  12.476  0.00  0.00    +0.000 A 
ATOM     19  C   UNL     1       7.593   5.413  13.827  0.00  0.00    +0.000 A 
ATOM     20  C   UNL     1       6.618   4.654  14.493  0.00  0.00    +0.000 A 
ATOM     21  C   UNL     1       5.918   3.674  13.774  0.00  0.00    +0.000 A 
ENDBRANCH  14  20
ENDBRANCH  13  14
ENDBRANCH   1  13
TORSDOF 4
ENDMDL
