MODEL 1
REMARK VINA RESULT:      -7.7      0.000      0.000
REMARK  Name = 
REMARK  3 active torsions:
REMARK  status: ('A' for Active; 'I' for Inactive)
REMARK    1  A    between atoms: C_1  and  C_2
REMARK    2  A    between atoms: C_2  and  C_3
REMARK    3  A    between atoms: C_14  and  N_15
REMARK                            x       y       z     vdW  Elec       q    Type
REMARK                         _______ _______ _______ _____ _____    ______ ____
ROOT
ATOM      1  C   UNL     1       5.567   4.962  15.037  0.00  0.00    +0.000 C 
ATOM      2  C   UNL     1       5.824   6.200  15.900  0.00  0.00    +0.000 C 
ATOM      3  C   UNL     1       4.577   6.539  16.715  0.00  0.00    +0.000 C 
ATOM      4  C   UNL     1       4.006   5.360  17.457  0.00  0.00    +0.000 A 
ATOM      5  N   UNL     1       3.170   5.664  18.479  0.00  0.00    +0.000 NA
ATOM      6  C   UNL     1       2.637   4.669  19.201  0.00  0.00    +0.000 A 
ATOM      7  C   UNL     1       1.809   5.003  20.270  0.00  0.00    +0.000 A 
ATOM      8  C   UNL     1       1.217   4.032  21.080  0.00  0.00    +0.000 A 
ATOM      9  C   UNL     1       1.454   2.691  20.827  0.00  0.00    +0.000 A 
ATOM     10  C   UNL     1       2.287   2.334  19.768  0.00  0.00    +0.000 A 
ATOM     11  C   UNL     1       2.888   3.309  18.934  0.00  0.00    +0.000 A 
ATOM     12  C   UNL     1       3.728   3.000  17.828  0.00  0.00    +0.000 A 
ATOM     13  C   UNL     1       4.304   4.049  17.086  0.00  0.00    +0.000 A 
ATOM     14  C   UNL     1       5.258   3.764  15.950  0.00  0.00    +0.000 C 
ENDROOT
BRANCH  12  15
ATOM     15  N   UNL     1       4.175   1.669  17.621  0.00  0.00    +0.000 N 
ATOM     16  H   UNL     1       3.935   1.286  16.714  0.00  0.00    +0.000 HD
ATOM     17  H   UNL     1       5.152   1.509  17.836  0.00  0.00    +0.000 HD
ENDBRANCH  12  15
BRANCH   1  19
ATOM     18  C   UNL     1       6.380   3.708  12.947  0.00  0.00    +0.000 C 
ATOM     19  C   UNL     1       6.752   4.599  14.121  0.00  0.00    +0.000 C 
ENDBRANCH   1  19
TORSDOF 2
ENDMDL
MODEL 2
REMARK VINA RESULT:      -7.1      1.672      3.275
REMARK  Name = 
REMARK  3 active torsions:
REMARK  status: ('A' for Active; 'I' for Inactive)
REMARK    1  A    between atoms: C_1  and  C_2
REMARK    2  A    between atoms: C_2  and  C_3
REMARK    3  A    between atoms: C_14  and  N_15
REMARK                            x       y       z     vdW  Elec       q    Type
REMARK                         _______ _______ _______ _____ _____    ______ ____
ROOT
ATOM      1  C   UNL     1       6.926   6.273  17.307  0.00  0.00    +0.000 C 
ATOM      2  C   UNL     1       6.591   5.546  16.002  0.00  0.00    +0.000 C 
ATOM      3  C   UNL     1       5.944   4.196  16.304  0.00  0.00    +0.000 C 
ATOM      4  C   UNL     1       4.806   4.284  17.287  0.00  0.00    +0.000 A 
ATOM      5  N   UNL     1       3.959   3.227  17.293  0.00  0.00    +0.000 NA
ATOM      6  C   UNL     1       2.909   3.239  18.126  0.00  0.00    +0.000 A 
ATOM      7  C   UNL     1       2.029   2.159  18.092  0.00  0.00    +0.000 A 
ATOM      8  C   UNL     1       0.906   2.092  18.919  0.00  0.00    +0.000 A 
ATOM      9  C   UNL     1       0.643   3.126  19.802  0.00  0.00    +0.000 A 
ATOM     10  C   UNL     1       1.505   4.220  19.847  0.00  0.00    +0.000 A 
ATOM     11  C   UNL     1       2.653   4.297  19.019  0.00  0.00    +0.000 A 
ATOM     12  C   UNL     1       3.576   5.380  19.038  0.00  0.00    +0.000 A 
ATOM     13  C   UNL     1       4.664   5.373  18.146  0.00  0.00    +0.000 A 
ATOM     14  C   UNL     1       5.626   6.536  18.086  0.00  0.00    +0.000 C 
ENDROOT
BRANCH  12  15
ATOM     15  N   UNL     1       3.278   6.559  19.769  0.00  0.00    +0.000 N 
ATOM     16  H   UNL     1       4.047   6.908  20.329  0.00  0.00    +0.000 HD
ATOM     17  H   UNL     1       2.858   7.304  19.225  0.00  0.00    +0.000 HD
ENDBRANCH  12  15
BRANCH   1  19
ATOM     18  C   UNL     1       8.273   8.195  18.352  0.00  0.00    +0.000 C 
ATOM     19  C   UNL     1       7.658   7.612  17.091  0.00  0.00    +0.000 C 
ENDBRANCH   1  19
TORSDOF 2
ENDMDL
MODEL 3
REMARK VINA RESULT:      -6.9      1.486      1.510
REMARK  Name = 
REMARK  3 active torsions:
REMARK  status: ('A' for Active; 'I' for Inactive)
REMARK    1  A    between atoms: C_1  and  C_2
REMARK    2  A    between atoms: C_2  and  C_3
REMARK    3  A    between atoms: C_14  and  N_15
REMARK                            x       y       z     vdW  Elec       q    Type
REMARK                         _______ _______ _______ _____ _____    ______ ____
ROOT
ATOM      1  C   UNL     1       6.413   5.081  15.867  0.00  0.00    +0.000 C 
ATOM      2  C   UNL     1       7.279   4.784  17.095  0.00  0.00    +0.000 C 
ATOM      3  C   UNL     1       6.536   5.181  18.369  0.00  0.00    +0.000 C 
ATOM      4  C   UNL     1       5.134   4.637  18.440  0.00  0.00    +0.000 A 
ATOM      5  N   UNL     1       4.580   4.614  19.676  0.00  0.00    +0.000 NA
ATOM      6  C   UNL     1       3.341   4.124  19.825  0.00  0.00    +0.000 A 
ATOM      7  C   UNL     1       2.803   4.075  21.108  0.00  0.00    +0.000 A 
ATOM      8  C   UNL     1       1.523   3.575  21.357  0.00  0.00    +0.000 A 
ATOM      9  C   UNL     1       0.755   3.104  20.304  0.00  0.00    +0.000 A 
ATOM     10  C   UNL     1       1.278   3.134  19.013  0.00  0.00    +0.000 A 
ATOM     11  C   UNL     1       2.572   3.648  18.746  0.00  0.00    +0.000 A 
ATOM     12  C   UNL     1       3.145   3.721  17.446  0.00  0.00    +0.000 A 
ATOM     13  C   UNL     1       4.455   4.215  17.298  0.00  0.00    +0.000 A 
ATOM     14  C   UNL     1       5.125   4.244  15.944  0.00  0.00    +0.000 C 
ENDROOT
BRANCH  12  15
ATOM     15  N   UNL     1       2.508   3.087  16.347  0.00  0.00    +0.000 N 
ATOM     16  H   UNL     1       1.519   2.914  16.483  0.00  0.00    +0.000 HD
ATOM     17  H   UNL     1       2.681   3.518  15.447  0.00  0.00    +0.000 HD
ENDBRANCH  12  15
BRANCH   1  19
ATOM     18  C   UNL     1       6.310   3.929  13.573  0.00  0.00    +0.000 C 
ATOM     19  C   UNL     1       7.123   4.783  14.532  0.00  0.00    +0.000 C 
ENDBRANCH   1  19
TORSDOF 2
ENDMDL
MODEL 4
REMARK VINA RESULT:      -6.8      2.885      4.426
REMARK  Name = 
REMARK  3 active torsions:
REMARK  status: ('A' for Active; 'I' for Inactive)
REMARK    1  A    between atoms: C_1  and  C_2
REMARK    2  A    between atoms: C_2  and  C_3
REMARK    3  A    between atoms: C_14  and  N_15
REMARK                            x       y       z     vdW  Elec       q    Type
REMARK                         _______ _______ _______ _____ _____    ______ ____
ROOT
ATOM      1  C   UNL     1       5.354   3.832  12.252  0.00  0.00    +0.000 C 
ATOM      2  C   UNL     1       6.885   3.842  12.206  0.00  0.00    +0.000 C 
ATOM      3  C   UNL     1       7.430   4.907  13.157  0.00  0.00    +0.000 C 
ATOM      4  C   UNL     1       6.840   4.834  14.541  0.00  0.00    +0.000 A 
ATOM      5  N   UNL     1       7.546   5.465  15.509  0.00  0.00    +0.000 NA
ATOM      6  C   UNL     1       7.096   5.429  16.771  0.00  0.00    +0.000 A 
ATOM      7  C   UNL     1       7.855   6.053  17.758  0.00  0.00    +0.000 A 
ATOM      8  C   UNL     1       7.466   6.058  19.099  0.00  0.00    +0.000 A 
ATOM      9  C   UNL     1       6.295   5.423  19.475  0.00  0.00    +0.000 A 
ATOM     10  C   UNL     1       5.525   4.783  18.506  0.00  0.00    +0.000 A 
ATOM     11  C   UNL     1       5.903   4.778  17.140  0.00  0.00    +0.000 A 
ATOM     12  C   UNL     1       5.145   4.159  16.107  0.00  0.00    +0.000 A 
ATOM     13  C   UNL     1       5.633   4.181  14.787  0.00  0.00    +0.000 A 
ATOM     14  C   UNL     1       4.893   3.476  13.675  0.00  0.00    +0.000 C 
ENDROOT
BRANCH  12  15
ATOM     15  N   UNL     1       4.041   3.328  16.432  0.00  0.00    +0.000 N 
ATOM     16  H   UNL     1       3.863   3.241  17.426  0.00  0.00    +0.000 HD
ATOM     17  H   UNL     1       3.188   3.535  15.926  0.00  0.00    +0.000 HD
ENDBRANCH  12  15
BRANCH   1  19
ATOM     18  C   UNL     1       3.416   3.320  10.644  0.00  0.00    +0.000 C 
ATOM     19  C   UNL     1       4.721   2.839  11.258  0.00  0.00    +0.000 C 
ENDBRANCH   1  19
TORSDOF 2
ENDMDL
MODEL 5
REMARK VINA RESULT:      -6.7      1.584      5.995
REMARK  Name = 
REMARK  3 active torsions:
REMARK  status: ('A' for Active; 'I' for Inactive)
REMARK    1  A    between atoms: C_1  and  C_2
REMARK    2  A    between atoms: C_2  and  C_3
REMARK    3  A    between atoms: C_14  and  N_15
REMARK                            x       y       z     vdW  Elec       q    Type
REMARK                         _______ _______ _______ _____ _____    ______ ____
ROOT
ATOM      1  C   UNL     1       2.161   4.152  20.121  0.00  0.00    +0.000 C 
ATOM      2  C   UNL     1       1.644   3.083  19.154  0.00  0.00    +0.000 C 
ATOM      3  C   UNL     1       1.916   3.505  17.711  0.00  0.00    +0.000 C 
ATOM      4  C   UNL     1       3.339   3.939  17.472  0.00  0.00    +0.000 A 
ATOM      5  N   UNL     1       3.736   3.942  16.177  0.00  0.00    +0.000 NA
ATOM      6  C   UNL     1       4.995   4.297  15.884  0.00  0.00    +0.000 A 
ATOM      7  C   UNL     1       5.396   4.259  14.550  0.00  0.00    +0.000 A 
ATOM      8  C   UNL     1       6.689   4.604  14.155  0.00  0.00    +0.000 A 
ATOM      9  C   UNL     1       7.616   4.995  15.108  0.00  0.00    +0.000 A 
ATOM     10  C   UNL     1       7.239   5.031  16.449  0.00  0.00    +0.000 A 
ATOM     11  C   UNL     1       5.927   4.691  16.863  0.00  0.00    +0.000 A 
ATOM     12  C   UNL     1       5.485   4.730  18.214  0.00  0.00    +0.000 A 
ATOM     13  C   UNL     1       4.168   4.335  18.520  0.00  0.00    +0.000 A 
ATOM     14  C   UNL     1       3.682   4.296  19.949  0.00  0.00    +0.000 C 
ENDROOT
BRANCH  12  15
ATOM     15  N   UNL     1       6.417   4.930  19.266  0.00  0.00    +0.000 N 
ATOM     16  H   UNL     1       6.596   4.105  19.826  0.00  0.00    +0.000 HD
ATOM     17  H   UNL     1       7.283   5.376  18.988  0.00  0.00    +0.000 HD
ENDBRANCH  12  15
BRANCH   1  19
ATOM     18  C   UNL     1       1.435   2.400  21.856  0.00  0.00    +0.000 C 
ATOM     19  C   UNL     1       1.852   3.839  21.598  0.00  0.00    +0.000 C 
ENDBRANCH   1  19
TORSDOF 2
ENDMDL
MODEL 6
REMARK VINA RESULT:      -6.7      3.156      6.422
REMARK  Name = 
REMARK  3 active torsions:
REMARK  status: ('A' for Active; 'I' for Inactive)
REMARK    1  A    between atoms: C_1  and  C_2
REMARK    2  A    between atoms: C_2  and  C_3
REMARK    3  A    between atoms: C_14  and  N_15
REMARK                            x       y       z     vdW  Elec       q    Type
REMARK                         _______ _______ _______ _____ _____    ______ ____
ROOT
ATOM      1  C   UNL     1       0.864   9.333  20.634  0.00  0.00    +0.000 C 
ATOM      2  C   UNL     1       0.529   9.706  19.188  0.00  0.00    +0.000 C 
ATOM      3  C   UNL     1       1.762   9.533  18.302  0.00  0.00    +0.000 C 
ATOM      4  C   UNL     1       2.438   8.198  18.469  0.00  0.00    +0.000 A 
ATOM      5  N   UNL     1       3.268   7.836  17.463  0.00  0.00    +0.000 NA
ATOM      6  C   UNL     1       3.892   6.651  17.528  0.00  0.00    +0.000 A 
ATOM      7  C   UNL     1       4.713   6.281  16.465  0.00  0.00    +0.000 A 
ATOM      8  C   UNL     1       5.396   5.063  16.446  0.00  0.00    +0.000 A 
ATOM      9  C   UNL     1       5.258   4.183  17.507  0.00  0.00    +0.000 A 
ATOM     10  C   UNL     1       4.434   4.529  18.577  0.00  0.00    +0.000 A 
ATOM     11  C   UNL     1       3.742   5.766  18.613  0.00  0.00    +0.000 A 
ATOM     12  C   UNL     1       2.906   6.178  19.687  0.00  0.00    +0.000 A 
ATOM     13  C   UNL     1       2.235   7.413  19.604  0.00  0.00    +0.000 A 
ATOM     14  C   UNL     1       1.284   7.854  20.691  0.00  0.00    +0.000 C 
ENDROOT
BRANCH  12  15
ATOM     15  N   UNL     1       2.560   5.262  20.715  0.00  0.00    +0.000 N 
ATOM     16  H   UNL     1       2.158   4.394  20.381  0.00  0.00    +0.000 HD
ATOM     17  H   UNL     1       3.291   5.086  21.394  0.00  0.00    +0.000 HD
ENDBRANCH  12  15
BRANCH   1  19
ATOM     18  C   UNL     1       0.084   9.490  23.077  0.00  0.00    +0.000 C 
ATOM     19  C   UNL     1      -0.307   9.557  21.610  0.00  0.00    +0.000 C 
ENDBRANCH   1  19
TORSDOF 2
ENDMDL
MODEL 7
REMARK VINA RESULT:      -6.3      1.015      5.619
REMARK  Name = 
REMARK  3 active torsions:
REMARK  status: ('A' for Active; 'I' for Inactive)
REMARK    1  A    between atoms: C_1  and  C_2
REMARK    2  A    between atoms: C_2  and  C_3
REMARK    3  A    between atoms: C_14  and  N_15
REMARK                            x       y       z     vdW  Elec       q    Type
REMARK                         _______ _______ _______ _____ _____    ______ ____
ROOT
ATOM      1  C   UNL     1       2.395   4.371  20.728  0.00  0.00    +0.000 C 
ATOM      2  C   UNL     1       1.795   5.634  20.103  0.00  0.00    +0.000 C 
ATOM      3  C   UNL     1       2.860   6.375  19.296  0.00  0.00    +0.000 C 
ATOM      4  C   UNL     1       3.610   5.490  18.336  0.00  0.00    +0.000 A 
ATOM      5  N   UNL     1       4.265   6.133  17.340  0.00  0.00    +0.000 NA
ATOM      6  C   UNL     1       4.940   5.413  16.434  0.00  0.00    +0.000 A 
ATOM      7  C   UNL     1       5.576   6.092  15.396  0.00  0.00    +0.000 A 
ATOM      8  C   UNL     1       6.295   5.421  14.404  0.00  0.00    +0.000 A 
ATOM      9  C   UNL     1       6.382   4.040  14.436  0.00  0.00    +0.000 A 
ATOM     10  C   UNL     1       5.745   3.340  15.460  0.00  0.00    +0.000 A 
ATOM     11  C   UNL     1       5.020   4.008  16.478  0.00  0.00    +0.000 A 
ATOM     12  C   UNL     1       4.368   3.346  17.555  0.00  0.00    +0.000 A 
ATOM     13  C   UNL     1       3.642   4.105  18.493  0.00  0.00    +0.000 A 
ATOM     14  C   UNL     1       2.879   3.434  19.610  0.00  0.00    +0.000 C 
ENDROOT
BRANCH  12  15
ATOM     15  N   UNL     1       4.247   1.932  17.555  0.00  0.00    +0.000 N 
ATOM     16  H   UNL     1       5.118   1.439  17.401  0.00  0.00    +0.000 HD
ATOM     17  H   UNL     1       3.746   1.547  18.348  0.00  0.00    +0.000 HD
ENDBRANCH  12  15
BRANCH   1  19
ATOM     18  C   UNL     1       1.811   2.171  21.919  0.00  0.00    +0.000 C 
ATOM     19  C   UNL     1       1.404   3.606  21.628  0.00  0.00    +0.000 C 
ENDBRANCH   1  19
TORSDOF 2
ENDMDL
MODEL 8
REMARK VINA RESULT:      -6.3      3.867      5.614
REMARK  Name = 
REMARK  3 active torsions:
REMARK  status: ('A' for Active; 'I' for Inactive)
REMARK    1  A    between atoms: C_1  and  C_2
REMARK    2  A    between atoms: C_2  and  C_3
REMARK    3  A    between atoms: C_14  and  N_15
REMARK                            x       y       z     vdW  Elec       q    Type
REMARK                         _______ _______ _______ _____ _____    ______ ____
ROOT
ATOM      1  C   UNL     1       4.089   6.366  17.811  0.00  0.00    +0.000 C 
ATOM      2  C   UNL     1       3.292   5.281  18.540  0.00  0.00    +0.000 C 
ATOM      3  C   UNL     1       2.850   5.788  19.912  0.00  0.00    +0.000 C 
ATOM      4  C   UNL     1       2.183   7.137  19.867  0.00  0.00    +0.000 A 
ATOM      5  N   UNL     1       1.435   7.454  20.950  0.00  0.00    +0.000 NA
ATOM      6  C   UNL     1       0.793   8.630  20.977  0.00  0.00    +0.000 A 
ATOM      7  C   UNL     1      -0.001   8.921  22.083  0.00  0.00    +0.000 A 
ATOM      8  C   UNL     1      -0.711  10.119  22.191  0.00  0.00    +0.000 A 
ATOM      9  C   UNL     1      -0.637  11.054  21.172  0.00  0.00    +0.000 A 
ATOM     10  C   UNL     1       0.144  10.779  20.051  0.00  0.00    +0.000 A 
ATOM     11  C   UNL     1       0.876   9.571  19.933  0.00  0.00    +0.000 A 
ATOM     12  C   UNL     1       1.704   9.249  18.821  0.00  0.00    +0.000 A 
ATOM     13  C   UNL     1       2.359   8.003  18.788  0.00  0.00    +0.000 A 
ATOM     14  C   UNL     1       3.189   7.594  17.595  0.00  0.00    +0.000 C 
ENDROOT
BRANCH  12  15
ATOM     15  N   UNL     1       1.683  10.060  17.656  0.00  0.00    +0.000 N 
ATOM     16  H   UNL     1       1.073  10.866  17.721  0.00  0.00    +0.000 HD
ATOM     17  H   UNL     1       2.596  10.322  17.302  0.00  0.00    +0.000 HD
ENDBRANCH  12  15
BRANCH   1  19
ATOM     18  C   UNL     1       4.928   4.415  16.364  0.00  0.00    +0.000 C 
ATOM     19  C   UNL     1       4.643   5.906  16.449  0.00  0.00    +0.000 C 
ENDBRANCH   1  19
TORSDOF 2
ENDMDL
MODEL 9
REMARK VINA RESULT:      -6.3      2.519      6.068
REMARK  Name = 
REMARK  3 active torsions:
REMARK  status: ('A' for Active; 'I' for Inactive)
REMARK    1  A    between atoms: C_1  and  C_2
REMARK    2  A    between atoms: C_2  and  C_3
REMARK    3  A    between atoms: C_14  and  N_15
REMARK                            x       y       z     vdW  Elec       q    Type
REMARK                         _______ _______ _______ _____ _____    ______ ____
ROOT
ATOM      1  C   UNL     1       1.512   8.322  20.468  0.00  0.00    +0.000 C 
ATOM      2  C   UNL     1       1.179   9.015  19.144  0.00  0.00    +0.000 C 
ATOM      3  C   UNL     1       2.400   9.005  18.225  0.00  0.00    +0.000 C 
ATOM      4  C   UNL     1       3.033   7.646  18.085  0.00  0.00    +0.000 A 
ATOM      5  N   UNL     1       3.844   7.490  17.011  0.00  0.00    +0.000 NA
ATOM      6  C   UNL     1       4.430   6.302  16.806  0.00  0.00    +0.000 A 
ATOM      7  C   UNL     1       5.231   6.150  15.676  0.00  0.00    +0.000 A 
ATOM      8  C   UNL     1       5.873   4.946  15.380  0.00  0.00    +0.000 A 
ATOM      9  C   UNL     1       5.715   3.859  16.223  0.00  0.00    +0.000 A 
ATOM     10  C   UNL     1       4.910   3.986  17.354  0.00  0.00    +0.000 A 
ATOM     11  C   UNL     1       4.259   5.204  17.671  0.00  0.00    +0.000 A 
ATOM     12  C   UNL     1       3.444   5.394  18.822  0.00  0.00    +0.000 A 
ATOM     13  C   UNL     1       2.813   6.637  19.021  0.00  0.00    +0.000 A 
ATOM     14  C   UNL     1       1.884   6.856  20.192  0.00  0.00    +0.000 C 
ENDROOT
BRANCH  12  15
ATOM     15  N   UNL     1       3.076   4.285  19.627  0.00  0.00    +0.000 N 
ATOM     16  H   UNL     1       2.883   4.518  20.594  0.00  0.00    +0.000 HD
ATOM     17  H   UNL     1       2.342   3.702  19.241  0.00  0.00    +0.000 HD
ENDBRANCH  12  15
BRANCH   1  19
ATOM     18  C   UNL     1       0.551   9.363  22.611  0.00  0.00    +0.000 C 
ATOM     19  C   UNL     1       0.355   8.361  21.486  0.00  0.00    +0.000 C 
ENDBRANCH   1  19
TORSDOF 2
ENDMDL
