MODEL 1
REMARK VINA RESULT:      -8.5      0.000      0.000
REMARK  Name = 
REMARK  4 active torsions:
REMARK  status: ('A' for Active; 'I' for Inactive)
REMARK    1  A    between atoms: C_1  and  C_2
REMARK    2  A    between atoms: C_7  and  C_8
REMARK    3  A    between atoms: N_13  and  C_14
REMARK    4  A    between atoms: C_23  and  C_24
REMARK                            x       y       z     vdW  Elec       q    Type
REMARK                         _______ _______ _______ _____ _____    ______ ____
ROOT
ATOM      1  C   UNL     1       1.729   7.891  19.853  0.00  0.00    +0.000 C 
ATOM      2  O   UNL     1       1.477   8.727  18.989  0.00  0.00    +0.000 OA
ATOM      3  N   UNL     1       1.558   8.111  21.206  0.00  0.00    +0.000 N 
ATOM      4  C   UNL     1       1.207   9.285  21.837  0.00  0.00    +0.000 C 
ATOM      5  O   UNL     1       1.219   9.325  23.064  0.00  0.00    +0.000 OA
ATOM      6  N   UNL     1       0.864  10.318  20.997  0.00  0.00    +0.000 N 
ATOM      7  H   UNL     1       1.803   7.355  21.835  0.00  0.00    +0.000 HD
ATOM      8  H   UNL     1       0.786  10.061  20.013  0.00  0.00    +0.000 HD
ENDROOT
BRANCH   1  15
ATOM      9  C   UNL     1       3.983   1.563  18.561  0.00  0.00    +0.000 C 
ATOM     10  C   UNL     1       3.854   3.000  18.202  0.00  0.00    +0.000 A 
ATOM     11  N   UNL     1       4.458   3.454  17.093  0.00  0.00    +0.000 NA
ATOM     12  N   UNL     1       4.157   4.765  17.072  0.00  0.00    +0.000 N 
ATOM     13  C   UNL     1       3.389   5.173  18.124  0.00  0.00    +0.000 A 
ATOM     14  N   UNL     1       2.959   6.433  18.351  0.00  0.00    +0.000 NA
ATOM     15  C   UNL     1       2.218   6.526  19.486  0.00  0.00    +0.000 A 
ATOM     16  C   UNL     1       1.900   5.469  20.335  0.00  0.00    +0.000 A 
ATOM     17  C   UNL     1       2.371   4.172  20.058  0.00  0.00    +0.000 A 
ATOM     18  C   UNL     1       3.157   4.036  18.892  0.00  0.00    +0.000 A 
ATOM     19  H   UNL     1       4.510   5.335  16.313  0.00  0.00    +0.000 HD
BRANCH  17  20
ATOM     20  C   UNL     1       2.031   3.040  20.985  0.00  0.00    +0.000 C 
ATOM     21  F   UNL     1       1.176   3.403  21.982  0.00  0.00    +0.000 F 
ATOM     22  F   UNL     1       1.433   2.001  20.343  0.00  0.00    +0.000 F 
ATOM     23  F   UNL     1       3.126   2.526  21.606  0.00  0.00    +0.000 F 
ENDBRANCH  17  20
ENDBRANCH   1  15
BRANCH   6  24
ATOM     24  C   UNL     1       0.549  11.644  21.347  0.00  0.00    +0.000 A 
ATOM     25  C   UNL     1      -0.481  11.979  22.220  0.00  0.00    +0.000 A 
ATOM     26  C   UNL     1      -0.689  13.318  22.495  0.00  0.00    +0.000 A 
ATOM     27 CL   UNL     1      -1.924  13.804  23.582  0.00  0.00    +0.000 Cl
ATOM     28  N   UNL     1       0.027  14.331  21.978  0.00  0.00    +0.000 NA
ATOM     29  C   UNL     1       1.016  13.972  21.143  0.00  0.00    +0.000 A 
ATOM     30 CL   UNL     1       1.902  15.285  20.482  0.00  0.00    +0.000 Cl
ATOM     31  C   UNL     1       1.330  12.665  20.806  0.00  0.00    +0.000 A 
ENDBRANCH   6  24
TORSDOF 3
ENDMDL
MODEL 2
REMARK VINA RESULT:      -8.4      0.117      1.633
REMARK  Name = 
REMARK  4 active torsions:
REMARK  status: ('A' for Active; 'I' for Inactive)
REMARK    1  A    between atoms: C_1  and  C_2
REMARK    2  A    between atoms: C_7  and  C_8
REMARK    3  A    between atoms: N_13  and  C_14
REMARK    4  A    between atoms: C_23  and  C_24
REMARK                            x       y       z     vdW  Elec       q    Type
REMARK                         _______ _______ _______ _____ _____    ______ ____
ROOT
ATOM      1  C   UNL     1       1.774   7.881  19.826  0.00  0.00    +0.000 C 
ATOM      2  O   UNL     1       1.509   8.714  18.961  0.00  0.00    +0.000 OA
ATOM      3  N   UNL     1       1.630   8.111  21.180  0.00  0.00    +0.000 N 
ATOM      4  C   UNL     1       1.294   9.290  21.810  0.00  0.00    +0.000 C 
ATOM      5  O   UNL     1       1.330   9.338  23.036  0.00  0.00    +0.000 OA
ATOM      6  N   UNL     1       0.939  10.319  20.970  0.00  0.00    +0.000 N 
ATOM      7  H   UNL     1       1.884   7.358  21.809  0.00  0.00    +0.000 HD
ATOM      8  H   UNL     1       0.842  10.057  19.989  0.00  0.00    +0.000 HD
ENDROOT
BRANCH   1  15
ATOM      9  C   UNL     1       3.972   1.535  18.532  0.00  0.00    +0.000 C 
ATOM     10  C   UNL     1       3.859   2.974  18.175  0.00  0.00    +0.000 A 
ATOM     11  N   UNL     1       4.474   3.423  17.071  0.00  0.00    +0.000 NA
ATOM     12  N   UNL     1       4.187   4.737  17.051  0.00  0.00    +0.000 N 
ATOM     13  C   UNL     1       3.416   5.151  18.100  0.00  0.00    +0.000 A 
ATOM     14  N   UNL     1       2.998   6.415  18.327  0.00  0.00    +0.000 NA
ATOM     15  C   UNL     1       2.251   6.513  19.458  0.00  0.00    +0.000 A 
ATOM     16  C   UNL     1       1.919   5.457  20.302  0.00  0.00    +0.000 A 
ATOM     17  C   UNL     1       2.378   4.156  20.025  0.00  0.00    +0.000 A 
ATOM     18  C   UNL     1       3.169   4.015  18.864  0.00  0.00    +0.000 A 
ATOM     19  H   UNL     1       4.550   5.306  16.295  0.00  0.00    +0.000 HD
BRANCH  17  20
ATOM     20  C   UNL     1       2.021   3.025  20.948  0.00  0.00    +0.000 C 
ATOM     21  F   UNL     1       1.167   3.396  21.943  0.00  0.00    +0.000 F 
ATOM     22  F   UNL     1       1.413   1.995  20.301  0.00  0.00    +0.000 F 
ATOM     23  F   UNL     1       3.108   2.497  21.571  0.00  0.00    +0.000 F 
ENDBRANCH  17  20
ENDBRANCH   1  15
BRANCH   6  24
ATOM     24  C   UNL     1       0.635  11.648  21.318  0.00  0.00    +0.000 A 
ATOM     25  C   UNL     1       1.374  12.740  20.877  0.00  0.00    +0.000 A 
ATOM     26  C   UNL     1       0.972  14.001  21.279  0.00  0.00    +0.000 A 
ATOM     27 CL   UNL     1       1.820  15.397  20.753  0.00  0.00    +0.000 Cl
ATOM     28  N   UNL     1      -0.082  14.257  22.073  0.00  0.00    +0.000 NA
ATOM     29  C   UNL     1      -0.776  13.180  22.476  0.00  0.00    +0.000 A 
ATOM     30 CL   UNL     1      -2.103  13.533  23.505  0.00  0.00    +0.000 Cl
ATOM     31  C   UNL     1      -0.480  11.873  22.126  0.00  0.00    +0.000 A 
ENDBRANCH   6  24
TORSDOF 3
ENDMDL
MODEL 3
REMARK VINA RESULT:      -8.4      1.190      2.268
REMARK  Name = 
REMARK  4 active torsions:
REMARK  status: ('A' for Active; 'I' for Inactive)
REMARK    1  A    between atoms: C_1  and  C_2
REMARK    2  A    between atoms: C_7  and  C_8
REMARK    3  A    between atoms: N_13  and  C_14
REMARK    4  A    between atoms: C_23  and  C_24
REMARK                            x       y       z     vdW  Elec       q    Type
REMARK                         _______ _______ _______ _____ _____    ______ ____
ROOT
ATOM      1  C   UNL     1       1.556   8.023  20.461  0.00  0.00    +0.000 C 
ATOM      2  O   UNL     1       1.504   8.170  21.680  0.00  0.00    +0.000 OA
ATOM      3  N   UNL     1       1.196   9.001  19.555  0.00  0.00    +0.000 N 
ATOM      4  C   UNL     1       0.624  10.229  19.814  0.00  0.00    +0.000 C 
ATOM      5  O   UNL     1       0.260  10.923  18.870  0.00  0.00    +0.000 OA
ATOM      6  N   UNL     1       0.523  10.555  21.146  0.00  0.00    +0.000 N 
ATOM      7  H   UNL     1       1.271   8.774  18.570  0.00  0.00    +0.000 HD
ATOM      8  H   UNL     1       0.996   9.913  21.781  0.00  0.00    +0.000 HD
ENDROOT
BRANCH   1  15
ATOM      9  C   UNL     1       3.878   2.050  18.070  0.00  0.00    +0.000 C 
ATOM     10  C   UNL     1       3.740   3.528  17.975  0.00  0.00    +0.000 A 
ATOM     11  N   UNL     1       4.349   4.178  16.973  0.00  0.00    +0.000 NA
ATOM     12  N   UNL     1       4.037   5.469  17.186  0.00  0.00    +0.000 N 
ATOM     13  C   UNL     1       3.255   5.675  18.286  0.00  0.00    +0.000 A 
ATOM     14  N   UNL     1       2.812   6.870  18.733  0.00  0.00    +0.000 NA
ATOM     15  C   UNL     1       2.060   6.750  19.858  0.00  0.00    +0.000 A 
ATOM     16  C   UNL     1       1.745   5.555  20.498  0.00  0.00    +0.000 A 
ATOM     17  C   UNL     1       2.229   4.333  19.996  0.00  0.00    +0.000 A 
ATOM     18  C   UNL     1       3.027   4.416  18.833  0.00  0.00    +0.000 A 
ATOM     19  H   UNL     1       4.392   6.170  16.546  0.00  0.00    +0.000 HD
BRANCH  17  20
ATOM     20  C   UNL     1       1.892   3.050  20.699  0.00  0.00    +0.000 C 
ATOM     21  F   UNL     1       1.300   2.132  19.883  0.00  0.00    +0.000 F 
ATOM     22  F   UNL     1       2.988   2.434  21.217  0.00  0.00    +0.000 F 
ATOM     23  F   UNL     1       1.031   3.232  21.736  0.00  0.00    +0.000 F 
ENDBRANCH  17  20
ENDBRANCH   1  15
BRANCH   6  24
ATOM     24  C   UNL     1      -0.088  11.690  21.709  0.00  0.00    +0.000 A 
ATOM     25  C   UNL     1       0.426  12.976  21.585  0.00  0.00    +0.000 A 
ATOM     26  C   UNL     1      -0.270  14.014  22.177  0.00  0.00    +0.000 A 
ATOM     27 CL   UNL     1       0.291  15.630  22.042  0.00  0.00    +0.000 Cl
ATOM     28  N   UNL     1      -1.412  13.878  22.873  0.00  0.00    +0.000 NA
ATOM     29  C   UNL     1      -1.883  12.624  22.969  0.00  0.00    +0.000 A 
ATOM     30 CL   UNL     1      -3.330  12.475  23.880  0.00  0.00    +0.000 Cl
ATOM     31  C   UNL     1      -1.284  11.509  22.406  0.00  0.00    +0.000 A 
ENDBRANCH   6  24
TORSDOF 3
ENDMDL
MODEL 4
REMARK VINA RESULT:      -8.4      1.719      2.551
REMARK  Name = 
REMARK  4 active torsions:
REMARK  status: ('A' for Active; 'I' for Inactive)
REMARK    1  A    between atoms: C_1  and  C_2
REMARK    2  A    between atoms: C_7  and  C_8
REMARK    3  A    between atoms: N_13  and  C_14
REMARK    4  A    between atoms: C_23  and  C_24
REMARK                            x       y       z     vdW  Elec       q    Type
REMARK                         _______ _______ _______ _____ _____    ______ ____
ROOT
ATOM      1  C   UNL     1       0.948   8.887  20.320  0.00  0.00    +0.000 C 
ATOM      2  O   UNL     1       0.393   9.747  19.639  0.00  0.00    +0.000 OA
ATOM      3  N   UNL     1       0.870   8.834  21.698  0.00  0.00    +0.000 N 
ATOM      4  C   UNL     1       0.292   9.748  22.552  0.00  0.00    +0.000 C 
ATOM      5  O   UNL     1       0.424   9.595  23.762  0.00  0.00    +0.000 OA
ATOM      6  N   UNL     1      -0.399  10.765  21.936  0.00  0.00    +0.000 N 
ATOM      7  H   UNL     1       1.371   8.085  22.163  0.00  0.00    +0.000 HD
ATOM      8  H   UNL     1      -0.511  10.657  20.928  0.00  0.00    +0.000 HD
ENDROOT
BRANCH   1  15
ATOM      9  C   UNL     1       4.579   3.687  17.760  0.00  0.00    +0.000 C 
ATOM     10  C   UNL     1       4.148   5.110  17.742  0.00  0.00    +0.000 A 
ATOM     11  N   UNL     1       4.672   5.940  16.828  0.00  0.00    +0.000 NA
ATOM     12  N   UNL     1       4.091   7.124  17.093  0.00  0.00    +0.000 N 
ATOM     13  C   UNL     1       3.219   7.089  18.143  0.00  0.00    +0.000 A 
ATOM     14  N   UNL     1       2.515   8.137  18.625  0.00  0.00    +0.000 NA
ATOM     15  C   UNL     1       1.736   7.788  19.683  0.00  0.00    +0.000 A 
ATOM     16  C   UNL     1       1.633   6.511  20.226  0.00  0.00    +0.000 A 
ATOM     17  C   UNL     1       2.386   5.450  19.690  0.00  0.00    +0.000 A 
ATOM     18  C   UNL     1       3.219   5.774  18.597  0.00  0.00    +0.000 A 
ATOM     19  H   UNL     1       4.333   7.926  16.523  0.00  0.00    +0.000 HD
BRANCH  17  20
ATOM     20  C   UNL     1       2.275   4.077  20.290  0.00  0.00    +0.000 C 
ATOM     21  F   UNL     1       1.461   4.035  21.383  0.00  0.00    +0.000 F 
ATOM     22  F   UNL     1       1.772   3.165  19.417  0.00  0.00    +0.000 F 
ATOM     23  F   UNL     1       3.475   3.589  20.705  0.00  0.00    +0.000 F 
ENDBRANCH  17  20
ENDBRANCH   1  15
BRANCH   6  24
ATOM     24  C   UNL     1      -1.012  11.878  22.539  0.00  0.00    +0.000 A 
ATOM     25  C   UNL     1      -0.471  13.159  22.508  0.00  0.00    +0.000 A 
ATOM     26  C   UNL     1      -1.172  14.175  23.131  0.00  0.00    +0.000 A 
ATOM     27 CL   UNL     1      -0.578  15.785  23.110  0.00  0.00    +0.000 Cl
ATOM     28  N   UNL     1      -2.343  14.022  23.774  0.00  0.00    +0.000 NA
ATOM     29  C   UNL     1      -2.839  12.775  23.780  0.00  0.00    +0.000 A 
ATOM     30 CL   UNL     1      -4.323  12.603  24.625  0.00  0.00    +0.000 Cl
ATOM     31  C   UNL     1      -2.237  11.681  23.178  0.00  0.00    +0.000 A 
ENDBRANCH   6  24
TORSDOF 3
ENDMDL
MODEL 5
REMARK VINA RESULT:      -8.4      1.628      2.186
REMARK  Name = 
REMARK  4 active torsions:
REMARK  status: ('A' for Active; 'I' for Inactive)
REMARK    1  A    between atoms: C_1  and  C_2
REMARK    2  A    between atoms: C_7  and  C_8
REMARK    3  A    between atoms: N_13  and  C_14
REMARK    4  A    between atoms: C_23  and  C_24
REMARK                            x       y       z     vdW  Elec       q    Type
REMARK                         _______ _______ _______ _____ _____    ______ ____
ROOT
ATOM      1  C   UNL     1       1.207   8.521  20.759  0.00  0.00    +0.000 C 
ATOM      2  O   UNL     1       1.380   8.694  21.964  0.00  0.00    +0.000 OA
ATOM      3  N   UNL     1       0.468   9.371  19.961  0.00  0.00    +0.000 N 
ATOM      4  C   UNL     1      -0.286  10.459  20.349  0.00  0.00    +0.000 C 
ATOM      5  O   UNL     1      -0.977  11.029  19.511  0.00  0.00    +0.000 OA
ATOM      6  N   UNL     1      -0.176  10.801  21.676  0.00  0.00    +0.000 N 
ATOM      7  H   UNL     1       0.383   9.133  18.980  0.00  0.00    +0.000 HD
ATOM      8  H   UNL     1       0.545  10.293  22.190  0.00  0.00    +0.000 HD
ENDROOT
BRANCH   1  15
ATOM      9  C   UNL     1       4.102   3.045  17.859  0.00  0.00    +0.000 C 
ATOM     10  C   UNL     1       3.831   4.506  17.904  0.00  0.00    +0.000 A 
ATOM     11  N   UNL     1       4.393   5.304  16.984  0.00  0.00    +0.000 NA
ATOM     12  N   UNL     1       3.961   6.534  17.313  0.00  0.00    +0.000 N 
ATOM     13  C   UNL     1       3.147   6.560  18.409  0.00  0.00    +0.000 A 
ATOM     14  N   UNL     1       2.590   7.661  18.958  0.00  0.00    +0.000 NA
ATOM     15  C   UNL     1       1.835   7.365  20.049  0.00  0.00    +0.000 A 
ATOM     16  C   UNL     1       1.621   6.089  20.563  0.00  0.00    +0.000 A 
ATOM     17  C   UNL     1       2.223   4.971  19.957  0.00  0.00    +0.000 A 
ATOM     18  C   UNL     1       3.027   5.238  18.827  0.00  0.00    +0.000 A 
ATOM     19  H   UNL     1       4.259   7.324  16.752  0.00  0.00    +0.000 HD
BRANCH  17  20
ATOM     20  C   UNL     1       1.994   3.599  20.525  0.00  0.00    +0.000 C 
ATOM     21  F   UNL     1       3.147   2.975  20.898  0.00  0.00    +0.000 F 
ATOM     22  F   UNL     1       1.207   3.618  21.634  0.00  0.00    +0.000 F 
ATOM     23  F   UNL     1       1.390   2.761  19.641  0.00  0.00    +0.000 F 
ENDBRANCH  17  20
ENDBRANCH   1  15
BRANCH   6  24
ATOM     24  C   UNL     1      -0.884  11.799  22.370  0.00  0.00    +0.000 A 
ATOM     25  C   UNL     1      -2.072  11.558  23.051  0.00  0.00    +0.000 A 
ATOM     26  C   UNL     1      -2.672  12.620  23.704  0.00  0.00    +0.000 A 
ATOM     27 CL   UNL     1      -4.125  12.391  24.588  0.00  0.00    +0.000 Cl
ATOM     28  N   UNL     1      -2.198  13.877  23.728  0.00  0.00    +0.000 NA
ATOM     29  C   UNL     1      -1.048  14.073  23.064  0.00  0.00    +0.000 A 
ATOM     30 CL   UNL     1      -0.475  15.691  23.093  0.00  0.00    +0.000 Cl
ATOM     31  C   UNL     1      -0.347  13.087  22.388  0.00  0.00    +0.000 A 
ENDBRANCH   6  24
TORSDOF 3
ENDMDL
MODEL 6
REMARK VINA RESULT:      -8.4      5.523      9.308
REMARK  Name = 
REMARK  4 active torsions:
REMARK  status: ('A' for Active; 'I' for Inactive)
REMARK    1  A    between atoms: C_1  and  C_2
REMARK    2  A    between atoms: C_7  and  C_8
REMARK    3  A    between atoms: N_13  and  C_14
REMARK    4  A    between atoms: C_23  and  C_24
REMARK                            x       y       z     vdW  Elec       q    Type
REMARK                         _______ _______ _______ _____ _____    ______ ____
ROOT
ATOM      1  C   UNL     1       1.841   8.870  18.156  0.00  0.00    +0.000 C 
ATOM      2  O   UNL     1       2.539   9.224  17.208  0.00  0.00    +0.000 OA
ATOM      3  N   UNL     1       2.086   7.736  18.905  0.00  0.00    +0.000 N 
ATOM      4  C   UNL     1       3.033   6.759  18.683  0.00  0.00    +0.000 C 
ATOM      5  O   UNL     1       3.026   5.755  19.388  0.00  0.00    +0.000 OA
ATOM      6  N   UNL     1       3.917   7.026  17.664  0.00  0.00    +0.000 N 
ATOM      7  H   UNL     1       1.444   7.531  19.662  0.00  0.00    +0.000 HD
ATOM      8  H   UNL     1       3.850   7.967  17.275  0.00  0.00    +0.000 HD
ENDROOT
BRANCH   1  15
ATOM      9  C   UNL     1      -3.627  12.637  19.795  0.00  0.00    +0.000 C 
ATOM     10  C   UNL     1      -2.247  12.155  20.066  0.00  0.00    +0.000 A 
ATOM     11  N   UNL     1      -1.585  12.632  21.132  0.00  0.00    +0.000 NA
ATOM     12  N   UNL     1      -0.392  12.014  21.077  0.00  0.00    +0.000 N 
ATOM     13  C   UNL     1      -0.258  11.163  20.017  0.00  0.00    +0.000 A 
ATOM     14  N   UNL     1       0.838  10.431  19.721  0.00  0.00    +0.000 NA
ATOM     15  C   UNL     1       0.668   9.685  18.598  0.00  0.00    +0.000 A 
ATOM     16  C   UNL     1      -0.488   9.638  17.824  0.00  0.00    +0.000 A 
ATOM     17  C   UNL     1      -1.606  10.419  18.172  0.00  0.00    +0.000 A 
ATOM     18  C   UNL     1      -1.465  11.219  19.327  0.00  0.00    +0.000 A 
ATOM     19  H   UNL     1       0.297  12.216  21.792  0.00  0.00    +0.000 HD
BRANCH  17  20
ATOM     20  C   UNL     1      -2.845  10.368  17.325  0.00  0.00    +0.000 C 
ATOM     21  F   UNL     1      -2.723   9.544  16.246  0.00  0.00    +0.000 F 
ATOM     22  F   UNL     1      -3.930   9.921  18.012  0.00  0.00    +0.000 F 
ATOM     23  F   UNL     1      -3.185  11.585  16.823  0.00  0.00    +0.000 F 
ENDBRANCH  17  20
ENDBRANCH   1  15
BRANCH   6  24
ATOM     24  C   UNL     1       4.925   6.186  17.157  0.00  0.00    +0.000 A 
ATOM     25  C   UNL     1       4.898   5.647  15.875  0.00  0.00    +0.000 A 
ATOM     26  C   UNL     1       5.953   4.842  15.487  0.00  0.00    +0.000 A 
ATOM     27 CL   UNL     1       5.999   4.164  13.911  0.00  0.00    +0.000 Cl
ATOM     28  N   UNL     1       7.009   4.531  16.258  0.00  0.00    +0.000 NA
ATOM     29  C   UNL     1       7.006   5.071  17.487  0.00  0.00    +0.000 A 
ATOM     30 CL   UNL     1       8.355   4.642  18.457  0.00  0.00    +0.000 Cl
ATOM     31  C   UNL     1       6.016   5.905  17.981  0.00  0.00    +0.000 A 
ENDBRANCH   6  24
TORSDOF 3
ENDMDL
MODEL 7
REMARK VINA RESULT:      -8.3      5.548      9.286
REMARK  Name = 
REMARK  4 active torsions:
REMARK  status: ('A' for Active; 'I' for Inactive)
REMARK    1  A    between atoms: C_1  and  C_2
REMARK    2  A    between atoms: C_7  and  C_8
REMARK    3  A    between atoms: N_13  and  C_14
REMARK    4  A    between atoms: C_23  and  C_24
REMARK                            x       y       z     vdW  Elec       q    Type
REMARK                         _______ _______ _______ _____ _____    ______ ____
ROOT
ATOM      1  C   UNL     1       1.885   8.810  18.197  0.00  0.00    +0.000 C 
ATOM      2  O   UNL     1       2.547   9.124  17.210  0.00  0.00    +0.000 OA
ATOM      3  N   UNL     1       2.171   7.721  18.997  0.00  0.00    +0.000 N 
ATOM      4  C   UNL     1       3.127   6.748  18.796  0.00  0.00    +0.000 C 
ATOM      5  O   UNL     1       3.158   5.782  19.553  0.00  0.00    +0.000 OA
ATOM      6  N   UNL     1       3.974   6.973  17.737  0.00  0.00    +0.000 N 
ATOM      7  H   UNL     1       1.556   7.547  19.784  0.00  0.00    +0.000 HD
ATOM      8  H   UNL     1       3.880   7.891  17.302  0.00  0.00    +0.000 HD
ENDROOT
BRANCH   1  15
ATOM      9  C   UNL     1      -3.575  12.603  19.805  0.00  0.00    +0.000 C 
ATOM     10  C   UNL     1      -2.199  12.112  20.086  0.00  0.00    +0.000 A 
ATOM     11  N   UNL     1      -1.544  12.581  21.158  0.00  0.00    +0.000 NA
ATOM     12  N   UNL     1      -0.354  11.956  21.111  0.00  0.00    +0.000 N 
ATOM     13  C   UNL     1      -0.216  11.108  20.049  0.00  0.00    +0.000 A 
ATOM     14  N   UNL     1       0.878  10.372  19.759  0.00  0.00    +0.000 NA
ATOM     15  C   UNL     1       0.713   9.630  18.632  0.00  0.00    +0.000 A 
ATOM     16  C   UNL     1      -0.437   9.592  17.849  0.00  0.00    +0.000 A 
ATOM     17  C   UNL     1      -1.553  10.378  18.191  0.00  0.00    +0.000 A 
ATOM     18  C   UNL     1      -1.417  11.173  19.350  0.00  0.00    +0.000 A 
ATOM     19  H   UNL     1       0.330  12.153  21.832  0.00  0.00    +0.000 HD
BRANCH  17  20
ATOM     20  C   UNL     1      -2.786  10.338  17.334  0.00  0.00    +0.000 C 
ATOM     21  F   UNL     1      -2.638   9.567  16.219  0.00  0.00    +0.000 F 
ATOM     22  F   UNL     1      -3.864   9.834  17.992  0.00  0.00    +0.000 F 
ATOM     23  F   UNL     1      -3.152  11.568  16.886  0.00  0.00    +0.000 F 
ENDBRANCH  17  20
ENDBRANCH   1  15
BRANCH   6  24
ATOM     24  C   UNL     1       4.980   6.122  17.244  0.00  0.00    +0.000 A 
ATOM     25  C   UNL     1       6.102   5.759  17.980  0.00  0.00    +0.000 A 
ATOM     26  C   UNL     1       7.019   4.908  17.390  0.00  0.00    +0.000 A 
ATOM     27 CL   UNL     1       8.414   4.397  18.249  0.00  0.00    +0.000 Cl
ATOM     28  N   UNL     1       6.914   4.403  16.149  0.00  0.00    +0.000 NA
ATOM     29  C   UNL     1       5.816   4.770  15.468  0.00  0.00    +0.000 A 
ATOM     30 CL   UNL     1       5.716   4.128  13.879  0.00  0.00    +0.000 Cl
ATOM     31  C   UNL     1       4.822   5.602  15.959  0.00  0.00    +0.000 A 
ENDBRANCH   6  24
TORSDOF 3
ENDMDL
MODEL 8
REMARK VINA RESULT:      -8.3      1.169      1.629
REMARK  Name = 
REMARK  4 active torsions:
REMARK  status: ('A' for Active; 'I' for Inactive)
REMARK    1  A    between atoms: C_1  and  C_2
REMARK    2  A    between atoms: C_7  and  C_8
REMARK    3  A    between atoms: N_13  and  C_14
REMARK    4  A    between atoms: C_23  and  C_24
REMARK                            x       y       z     vdW  Elec       q    Type
REMARK                         _______ _______ _______ _____ _____    ______ ____
ROOT
ATOM      1  C   UNL     1       1.517   8.080  20.500  0.00  0.00    +0.000 C 
ATOM      2  O   UNL     1       1.472   8.222  21.720  0.00  0.00    +0.000 OA
ATOM      3  N   UNL     1       1.136   9.055  19.600  0.00  0.00    +0.000 N 
ATOM      4  C   UNL     1       0.546  10.273  19.867  0.00  0.00    +0.000 C 
ATOM      5  O   UNL     1       0.164  10.965  18.929  0.00  0.00    +0.000 OA
ATOM      6  N   UNL     1       0.450  10.593  21.201  0.00  0.00    +0.000 N 
ATOM      7  H   UNL     1       1.207   8.833  18.614  0.00  0.00    +0.000 HD
ATOM      8  H   UNL     1       0.937   9.956  21.830  0.00  0.00    +0.000 HD
ENDROOT
BRANCH   1  15
ATOM      9  C   UNL     1       3.914   2.152  18.071  0.00  0.00    +0.000 C 
ATOM     10  C   UNL     1       3.756   3.628  17.985  0.00  0.00    +0.000 A 
ATOM     11  N   UNL     1       4.356   4.292  16.987  0.00  0.00    +0.000 NA
ATOM     12  N   UNL     1       4.028   5.578  17.208  0.00  0.00    +0.000 N 
ATOM     13  C   UNL     1       3.245   5.767  18.310  0.00  0.00    +0.000 A 
ATOM     14  N   UNL     1       2.787   6.954  18.764  0.00  0.00    +0.000 NA
ATOM     15  C   UNL     1       2.037   6.818  19.889  0.00  0.00    +0.000 A 
ATOM     16  C   UNL     1       1.738   5.615  20.522  0.00  0.00    +0.000 A 
ATOM     17  C   UNL     1       2.238   4.402  20.012  0.00  0.00    +0.000 A 
ATOM     18  C   UNL     1       3.033   4.502  18.850  0.00  0.00    +0.000 A 
ATOM     19  H   UNL     1       4.373   6.287  16.571  0.00  0.00    +0.000 HD
BRANCH  17  20
ATOM     20  C   UNL     1       1.917   3.110  20.708  0.00  0.00    +0.000 C 
ATOM     21  F   UNL     1       1.308   2.201  19.895  0.00  0.00    +0.000 F 
ATOM     22  F   UNL     1       3.025   2.490  21.194  0.00  0.00    +0.000 F 
ATOM     23  F   UNL     1       1.079   3.279  21.765  0.00  0.00    +0.000 F 
ENDBRANCH  17  20
ENDBRANCH   1  15
BRANCH   6  24
ATOM     24  C   UNL     1      -0.175  11.716  21.773  0.00  0.00    +0.000 A 
ATOM     25  C   UNL     1      -1.356  11.643  22.504  0.00  0.00    +0.000 A 
ATOM     26  C   UNL     1      -1.870  12.816  23.026  0.00  0.00    +0.000 A 
ATOM     27 CL   UNL     1      -3.309  12.798  23.961  0.00  0.00    +0.000 Cl
ATOM     28  N   UNL     1      -1.319  14.033  22.876  0.00  0.00    +0.000 NA
ATOM     29  C   UNL     1      -0.178  14.067  22.169  0.00  0.00    +0.000 A 
ATOM     30 CL   UNL     1       0.494  15.634  21.976  0.00  0.00    +0.000 Cl
ATOM     31  C   UNL     1       0.441  12.958  21.614  0.00  0.00    +0.000 A 
ENDBRANCH   6  24
TORSDOF 3
ENDMDL
MODEL 9
REMARK VINA RESULT:      -8.2      2.239      3.087
REMARK  Name = 
REMARK  4 active torsions:
REMARK  status: ('A' for Active; 'I' for Inactive)
REMARK    1  A    between atoms: C_1  and  C_2
REMARK    2  A    between atoms: C_7  and  C_8
REMARK    3  A    between atoms: N_13  and  C_14
REMARK    4  A    between atoms: C_23  and  C_24
REMARK                            x       y       z     vdW  Elec       q    Type
REMARK                         _______ _______ _______ _____ _____    ______ ____
ROOT
ATOM      1  C   UNL     1       1.667   8.022  20.159  0.00  0.00    +0.000 C 
ATOM      2  O   UNL     1       1.554   8.822  19.233  0.00  0.00    +0.000 OA
ATOM      3  N   UNL     1       1.392   8.331  21.477  0.00  0.00    +0.000 N 
ATOM      4  C   UNL     1       1.070   9.560  22.011  0.00  0.00    +0.000 C 
ATOM      5  O   UNL     1       0.976   9.670  23.230  0.00  0.00    +0.000 OA
ATOM      6  N   UNL     1       0.879  10.564  21.091  0.00  0.00    +0.000 N 
ATOM      7  H   UNL     1       1.524   7.598  22.164  0.00  0.00    +0.000 HD
ATOM      8  H   UNL     1       0.872  10.257  20.118  0.00  0.00    +0.000 HD
ENDROOT
BRANCH   1  15
ATOM      9  C   UNL     1       3.597   1.641  18.631  0.00  0.00    +0.000 C 
ATOM     10  C   UNL     1       2.889   2.615  19.503  0.00  0.00    +0.000 A 
ATOM     11  N   UNL     1       2.207   2.166  20.567  0.00  0.00    +0.000 NA
ATOM     12  N   UNL     1       1.690   3.280  21.116  0.00  0.00    +0.000 N 
ATOM     13  C   UNL     1       2.010   4.426  20.446  0.00  0.00    +0.000 A 
ATOM     14  N   UNL     1       1.611   5.674  20.775  0.00  0.00    +0.000 NA
ATOM     15  C   UNL     1       2.087   6.609  19.910  0.00  0.00    +0.000 A 
ATOM     16  C   UNL     1       2.904   6.355  18.813  0.00  0.00    +0.000 A 
ATOM     17  C   UNL     1       3.294   5.037  18.509  0.00  0.00    +0.000 A 
ATOM     18  C   UNL     1       2.809   4.034  19.377  0.00  0.00    +0.000 A 
ATOM     19  H   UNL     1       1.121   3.195  21.950  0.00  0.00    +0.000 HD
BRANCH  17  20
ATOM     20  C   UNL     1       4.168   4.772  17.316  0.00  0.00    +0.000 C 
ATOM     21  F   UNL     1       3.626   3.876  16.444  0.00  0.00    +0.000 F 
ATOM     22  F   UNL     1       4.415   5.894  16.590  0.00  0.00    +0.000 F 
ATOM     23  F   UNL     1       5.381   4.264  17.660  0.00  0.00    +0.000 F 
ENDBRANCH  17  20
ENDBRANCH   1  15
BRANCH   6  24
ATOM     24  C   UNL     1       0.630  11.925  21.342  0.00  0.00    +0.000 A 
ATOM     25  C   UNL     1       1.422  12.952  20.837  0.00  0.00    +0.000 A 
ATOM     26  C   UNL     1       1.071  14.254  21.146  0.00  0.00    +0.000 A 
ATOM     27 CL   UNL     1       1.985  15.571  20.537  0.00  0.00    +0.000 Cl
ATOM     28  N   UNL     1       0.020  14.609  21.905  0.00  0.00    +0.000 NA
ATOM     29  C   UNL     1      -0.725  13.594  22.372  0.00  0.00    +0.000 A 
ATOM     30 CL   UNL     1      -2.047  14.074  23.354  0.00  0.00    +0.000 Cl
ATOM     31  C   UNL     1      -0.483  12.254  22.117  0.00  0.00    +0.000 A 
ENDBRANCH   6  24
TORSDOF 3
ENDMDL
