MODEL 1
REMARK VINA RESULT:      -8.4      0.000      0.000
REMARK  Name = 
REMARK  3 active torsions:
REMARK  status: ('A' for Active; 'I' for Inactive)
REMARK    1  A    between atoms: C_5  and  C_6
REMARK    2  A    between atoms: C_9  and  C_10
REMARK    3  A    between atoms: C_16  and  C_17
REMARK                            x       y       z     vdW  Elec       q    Type
REMARK                         _______ _______ _______ _____ _____    ______ ____
ROOT
ATOM      1  N   UNL     1       2.124   0.993  19.304  0.00  0.00    +0.000 N 
ATOM      2  C   UNL     1       2.203   2.362  19.157  0.00  0.00    +0.000 A 
ATOM      3  N   UNL     1       1.159   3.071  19.528  0.00  0.00    +0.000 NA
ATOM      4  C   UNL     1       1.284   4.397  19.380  0.00  0.00    +0.000 A 
ATOM      5  C   UNL     1       2.390   5.104  18.883  0.00  0.00    +0.000 A 
ATOM      6  C   UNL     1       3.393   4.264  18.439  0.00  0.00    +0.000 A 
ATOM      7  N   UNL     1       3.288   2.896  18.607  0.00  0.00    +0.000 NA
ATOM      8  H   UNL     1       1.151   0.728  19.372  0.00  0.00    +0.000 HD
ATOM      9  H   UNL     1       2.683   0.530  18.604  0.00  0.00    +0.000 HD
ENDROOT
BRANCH   6  10
ATOM     10  C   UNL     1       4.684   4.564  17.777  0.00  0.00    +0.000 A 
ATOM     11  C   UNL     1       5.716   4.967  18.628  0.00  0.00    +0.000 A 
ATOM     12  N   UNL     1       6.427   5.864  17.897  0.00  0.00    +0.000 N 
ATOM     13  C   UNL     1       6.466   5.394  16.615  0.00  0.00    +0.000 A 
ATOM     14  C   UNL     1       7.408   5.675  15.607  0.00  0.00    +0.000 A 
ATOM     15  C   UNL     1       7.213   5.038  14.395  0.00  0.00    +0.000 A 
ATOM     16  C   UNL     1       6.083   4.264  14.178  0.00  0.00    +0.000 A 
ATOM     17 BR   UNL     1       5.908   3.354  12.517  0.00  0.00    +0.000 Br
ATOM     18  C   UNL     1       5.089   4.083  15.169  0.00  0.00    +0.000 A 
ATOM     19  C   UNL     1       5.315   4.590  16.470  0.00  0.00    +0.000 A 
ATOM     20  H   UNL     1       6.919   6.668  18.261  0.00  0.00    +0.000 HD
ENDBRANCH   6  10
BRANCH   5  21
ATOM     21  C   UNL     1       2.288   6.569  18.899  0.00  0.00    +0.000 A 
ATOM     22  C   UNL     1       1.859   7.204  20.089  0.00  0.00    +0.000 A 
ATOM     23  C   UNL     1       1.528   8.558  20.122  0.00  0.00    +0.000 A 
ATOM     24  C   UNL     1       1.664   9.338  18.973  0.00  0.00    +0.000 A 
ATOM     25  C   UNL     1       2.136   8.734  17.797  0.00  0.00    +0.000 A 
ATOM     26  C   UNL     1       2.426   7.363  17.755  0.00  0.00    +0.000 A 
BRANCH  24  27
ATOM     27  C   UNL     1       1.300  10.803  18.995  0.00  0.00    +0.000 C 
ATOM     28  F   UNL     1       1.166  11.308  20.255  0.00  0.00    +0.000 F 
ATOM     29  F   UNL     1       2.229  11.584  18.381  0.00  0.00    +0.000 F 
ATOM     30  F   UNL     1       0.116  11.059  18.369  0.00  0.00    +0.000 F 
ENDBRANCH  24  27
ENDBRANCH   5  21
TORSDOF 3
ENDMDL
MODEL 2
REMARK VINA RESULT:      -8.2      1.385      1.688
REMARK  Name = 
REMARK  3 active torsions:
REMARK  status: ('A' for Active; 'I' for Inactive)
REMARK    1  A    between atoms: C_5  and  C_6
REMARK    2  A    between atoms: C_9  and  C_10
REMARK    3  A    between atoms: C_16  and  C_17
REMARK                            x       y       z     vdW  Elec       q    Type
REMARK                         _______ _______ _______ _____ _____    ______ ____
ROOT
ATOM      1  N   UNL     1       4.961   0.964  20.630  0.00  0.00    +0.000 N 
ATOM      2  C   UNL     1       4.594   2.217  20.186  0.00  0.00    +0.000 A 
ATOM      3  N   UNL     1       3.512   2.751  20.710  0.00  0.00    +0.000 NA
ATOM      4  C   UNL     1       3.199   3.974  20.260  0.00  0.00    +0.000 A 
ATOM      5  C   UNL     1       3.889   4.739  19.308  0.00  0.00    +0.000 A 
ATOM      6  C   UNL     1       4.955   4.053  18.755  0.00  0.00    +0.000 A 
ATOM      7  N   UNL     1       5.303   2.801  19.227  0.00  0.00    +0.000 NA
ATOM      8  H   UNL     1       4.157   0.519  21.053  0.00  0.00    +0.000 HD
ATOM      9  H   UNL     1       5.442   0.458  19.902  0.00  0.00    +0.000 HD
ENDROOT
BRANCH   6  10
ATOM     10  C   UNL     1       5.896   4.433  17.676  0.00  0.00    +0.000 A 
ATOM     11  C   UNL     1       7.117   4.961  18.102  0.00  0.00    +0.000 A 
ATOM     12  N   UNL     1       7.437   5.882  17.157  0.00  0.00    +0.000 N 
ATOM     13  C   UNL     1       7.066   5.362  15.949  0.00  0.00    +0.000 A 
ATOM     14  C   UNL     1       7.563   5.678  14.670  0.00  0.00    +0.000 A 
ATOM     15  C   UNL     1       7.016   4.974  13.613  0.00  0.00    +0.000 A 
ATOM     16  C   UNL     1       5.961   4.097  13.818  0.00  0.00    +0.000 A 
ATOM     17 BR   UNL     1       5.301   3.104  12.336  0.00  0.00    +0.000 Br
ATOM     18  C   UNL     1       5.401   3.875  15.099  0.00  0.00    +0.000 A 
ATOM     19  C   UNL     1       6.021   4.456  16.230  0.00  0.00    +0.000 A 
ATOM     20  H   UNL     1       7.945   6.741  17.314  0.00  0.00    +0.000 HD
ENDBRANCH   6  10
BRANCH   5  21
ATOM     21  C   UNL     1       3.367   6.088  19.051  0.00  0.00    +0.000 A 
ATOM     22  C   UNL     1       2.564   6.701  20.043  0.00  0.00    +0.000 A 
ATOM     23  C   UNL     1       1.855   7.875  19.792  0.00  0.00    +0.000 A 
ATOM     24  C   UNL     1       1.965   8.506  18.553  0.00  0.00    +0.000 A 
ATOM     25  C   UNL     1       2.797   7.937  17.575  0.00  0.00    +0.000 A 
ATOM     26  C   UNL     1       3.474   6.732  17.814  0.00  0.00    +0.000 A 
BRANCH  24  27
ATOM     27  C   UNL     1       1.195   9.772  18.266  0.00  0.00    +0.000 C 
ATOM     28  F   UNL     1       0.253   9.622  17.291  0.00  0.00    +0.000 F 
ATOM     29  F   UNL     1       0.527  10.238  19.355  0.00  0.00    +0.000 F 
ATOM     30  F   UNL     1       1.996  10.792  17.849  0.00  0.00    +0.000 F 
ENDBRANCH  24  27
ENDBRANCH   5  21
TORSDOF 3
ENDMDL
MODEL 3
REMARK VINA RESULT:      -8.0      1.361      1.842
REMARK  Name = 
REMARK  3 active torsions:
REMARK  status: ('A' for Active; 'I' for Inactive)
REMARK    1  A    between atoms: C_5  and  C_6
REMARK    2  A    between atoms: C_9  and  C_10
REMARK    3  A    between atoms: C_16  and  C_17
REMARK                            x       y       z     vdW  Elec       q    Type
REMARK                         _______ _______ _______ _____ _____    ______ ____
ROOT
ATOM      1  N   UNL     1       5.006   0.972  21.026  0.00  0.00    +0.000 N 
ATOM      2  C   UNL     1       4.510   2.165  20.545  0.00  0.00    +0.000 A 
ATOM      3  N   UNL     1       3.326   2.544  20.973  0.00  0.00    +0.000 NA
ATOM      4  C   UNL     1       2.888   3.715  20.490  0.00  0.00    +0.000 A 
ATOM      5  C   UNL     1       3.545   4.571  19.593  0.00  0.00    +0.000 A 
ATOM      6  C   UNL     1       4.736   4.040  19.136  0.00  0.00    +0.000 A 
ATOM      7  N   UNL     1       5.211   2.845  19.644  0.00  0.00    +0.000 NA
ATOM      8  H   UNL     1       4.238   0.419  21.383  0.00  0.00    +0.000 HD
ATOM      9  H   UNL     1       5.611   0.540  20.344  0.00  0.00    +0.000 HD
ENDROOT
BRANCH   6  10
ATOM     10  C   UNL     1       5.704   4.549  18.137  0.00  0.00    +0.000 A 
ATOM     11  C   UNL     1       6.811   5.219  18.661  0.00  0.00    +0.000 A 
ATOM     12  N   UNL     1       7.086   6.187  17.747  0.00  0.00    +0.000 N 
ATOM     13  C   UNL     1       6.880   5.641  16.512  0.00  0.00    +0.000 A 
ATOM     14  C   UNL     1       7.431   6.035  15.278  0.00  0.00    +0.000 A 
ATOM     15  C   UNL     1       7.061   5.282  14.177  0.00  0.00    +0.000 A 
ATOM     16  C   UNL     1       6.113   4.278  14.294  0.00  0.00    +0.000 A 
ATOM     17 BR   UNL     1       5.700   3.231  12.761  0.00  0.00    +0.000 Br
ATOM     18  C   UNL     1       5.486   3.970  15.526  0.00  0.00    +0.000 A 
ATOM     19  C   UNL     1       5.937   4.607  16.705  0.00  0.00    +0.000 A 
ATOM     20  H   UNL     1       7.468   7.100  17.948  0.00  0.00    +0.000 HD
ENDBRANCH   6  10
BRANCH   5  21
ATOM     21  C   UNL     1       2.867   5.837  19.284  0.00  0.00    +0.000 A 
ATOM     22  C   UNL     1       3.058   6.412  18.005  0.00  0.00    +0.000 A 
ATOM     23  C   UNL     1       2.634   7.706  17.709  0.00  0.00    +0.000 A 
ATOM     24  C   UNL     1       1.955   8.455  18.672  0.00  0.00    +0.000 A 
ATOM     25  C   UNL     1       1.713   7.881  19.929  0.00  0.00    +0.000 A 
ATOM     26  C   UNL     1       2.181   6.596  20.239  0.00  0.00    +0.000 A 
BRANCH  24  27
ATOM     27  C   UNL     1       1.500   9.862  18.366  0.00  0.00    +0.000 C 
ATOM     28  F   UNL     1       2.428  10.595  17.687  0.00  0.00    +0.000 F 
ATOM     29  F   UNL     1       0.375   9.895  17.603  0.00  0.00    +0.000 F 
ATOM     30  F   UNL     1       1.217  10.578  19.490  0.00  0.00    +0.000 F 
ENDBRANCH  24  27
ENDBRANCH   5  21
TORSDOF 3
ENDMDL
MODEL 4
REMARK VINA RESULT:      -8.0      1.980      2.418
REMARK  Name = 
REMARK  3 active torsions:
REMARK  status: ('A' for Active; 'I' for Inactive)
REMARK    1  A    between atoms: C_5  and  C_6
REMARK    2  A    between atoms: C_9  and  C_10
REMARK    3  A    between atoms: C_16  and  C_17
REMARK                            x       y       z     vdW  Elec       q    Type
REMARK                         _______ _______ _______ _____ _____    ______ ____
ROOT
ATOM      1  N   UNL     1       2.712   1.514  21.626  0.00  0.00    +0.000 N 
ATOM      2  C   UNL     1       2.596   2.788  21.112  0.00  0.00    +0.000 A 
ATOM      3  N   UNL     1       1.708   3.585  21.667  0.00  0.00    +0.000 NA
ATOM      4  C   UNL     1       1.638   4.818  21.145  0.00  0.00    +0.000 A 
ATOM      5  C   UNL     1       2.398   5.347  20.091  0.00  0.00    +0.000 A 
ATOM      6  C   UNL     1       3.233   4.405  19.521  0.00  0.00    +0.000 A 
ATOM      7  N   UNL     1       3.333   3.137  20.063  0.00  0.00    +0.000 NA
ATOM      8  H   UNL     1       1.869   1.289  22.136  0.00  0.00    +0.000 HD
ATOM      9  H   UNL     1       3.005   0.869  20.907  0.00  0.00    +0.000 HD
ENDROOT
BRANCH   6  10
ATOM     10  C   UNL     1       4.140   4.495  18.353  0.00  0.00    +0.000 A 
ATOM     11  C   UNL     1       3.812   3.671  17.273  0.00  0.00    +0.000 A 
ATOM     12  N   UNL     1       5.011   3.311  16.745  0.00  0.00    +0.000 N 
ATOM     13  C   UNL     1       5.823   4.407  16.812  0.00  0.00    +0.000 A 
ATOM     14  C   UNL     1       6.953   4.709  16.028  0.00  0.00    +0.000 A 
ATOM     15  C   UNL     1       7.581   5.912  16.301  0.00  0.00    +0.000 A 
ATOM     16  C   UNL     1       7.169   6.698  17.366  0.00  0.00    +0.000 A 
ATOM     17 BR   UNL     1       8.024   8.374  17.645  0.00  0.00    +0.000 Br
ATOM     18  C   UNL     1       6.099   6.322  18.214  0.00  0.00    +0.000 A 
ATOM     19  C   UNL     1       5.332   5.180  17.887  0.00  0.00    +0.000 A 
ATOM     20  H   UNL     1       5.221   2.431  16.297  0.00  0.00    +0.000 HD
ENDBRANCH   6  10
BRANCH   5  21
ATOM     21  C   UNL     1       2.168   6.761  19.767  0.00  0.00    +0.000 A 
ATOM     22  C   UNL     1       1.558   7.587  20.742  0.00  0.00    +0.000 A 
ATOM     23  C   UNL     1       1.109   8.871  20.440  0.00  0.00    +0.000 A 
ATOM     24  C   UNL     1       1.301   9.396  19.161  0.00  0.00    +0.000 A 
ATOM     25  C   UNL     1       1.949   8.608  18.197  0.00  0.00    +0.000 A 
ATOM     26  C   UNL     1       2.359   7.299  18.490  0.00  0.00    +0.000 A 
BRANCH  24  27
ATOM     27  C   UNL     1       0.810  10.782  18.820  0.00  0.00    +0.000 C 
ATOM     28  F   UNL     1      -0.331  10.782  18.073  0.00  0.00    +0.000 F 
ATOM     29  F   UNL     1       0.529  11.526  19.924  0.00  0.00    +0.000 F 
ATOM     30  F   UNL     1       1.719  11.500  18.102  0.00  0.00    +0.000 F 
ENDBRANCH  24  27
ENDBRANCH   5  21
TORSDOF 3
ENDMDL
MODEL 5
REMARK VINA RESULT:      -7.8      4.454      7.005
REMARK  Name = 
REMARK  3 active torsions:
REMARK  status: ('A' for Active; 'I' for Inactive)
REMARK    1  A    between atoms: C_5  and  C_6
REMARK    2  A    between atoms: C_9  and  C_10
REMARK    3  A    between atoms: C_16  and  C_17
REMARK                            x       y       z     vdW  Elec       q    Type
REMARK                         _______ _______ _______ _____ _____    ______ ____
ROOT
ATOM      1  N   UNL     1       1.802   2.896  22.308  0.00  0.00    +0.000 N 
ATOM      2  C   UNL     1       2.466   3.387  21.203  0.00  0.00    +0.000 A 
ATOM      3  N   UNL     1       3.434   2.650  20.704  0.00  0.00    +0.000 NA
ATOM      4  C   UNL     1       4.043   3.159  19.623  0.00  0.00    +0.000 A 
ATOM      5  C   UNL     1       3.764   4.370  18.973  0.00  0.00    +0.000 A 
ATOM      6  C   UNL     1       2.796   5.107  19.628  0.00  0.00    +0.000 A 
ATOM      7  N   UNL     1       2.142   4.585  20.729  0.00  0.00    +0.000 NA
ATOM      8  H   UNL     1       2.382   2.198  22.754  0.00  0.00    +0.000 HD
ATOM      9  H   UNL     1       1.464   3.654  22.882  0.00  0.00    +0.000 HD
ENDROOT
BRANCH   6  10
ATOM     10  C   UNL     1       2.253   6.457  19.350  0.00  0.00    +0.000 A 
ATOM     11  C   UNL     1       2.189   6.812  18.001  0.00  0.00    +0.000 A 
ATOM     12  N   UNL     1       2.438   8.148  17.990  0.00  0.00    +0.000 N 
ATOM     13  C   UNL     1       1.810   8.681  19.080  0.00  0.00    +0.000 A 
ATOM     14  C   UNL     1       1.378  10.006  19.281  0.00  0.00    +0.000 A 
ATOM     15  C   UNL     1       0.745  10.265  20.483  0.00  0.00    +0.000 A 
ATOM     16  C   UNL     1       0.659   9.286  21.462  0.00  0.00    +0.000 A 
ATOM     17 BR   UNL     1      -0.286   9.681  23.064  0.00  0.00    +0.000 Br
ATOM     18  C   UNL     1       1.200   7.990  21.284  0.00  0.00    +0.000 A 
ATOM     19  C   UNL     1       1.722   7.631  20.020  0.00  0.00    +0.000 A 
ATOM     20  H   UNL     1       2.910   8.657  17.256  0.00  0.00    +0.000 HD
ENDBRANCH   6  10
BRANCH   5  21
ATOM     21  C   UNL     1       4.540   4.652  17.758  0.00  0.00    +0.000 A 
ATOM     22  C   UNL     1       4.152   4.025  16.549  0.00  0.00    +0.000 A 
ATOM     23  C   UNL     1       4.955   4.065  15.410  0.00  0.00    +0.000 A 
ATOM     24  C   UNL     1       6.154   4.778  15.426  0.00  0.00    +0.000 A 
ATOM     25  C   UNL     1       6.529   5.446  16.602  0.00  0.00    +0.000 A 
ATOM     26  C   UNL     1       5.742   5.368  17.760  0.00  0.00    +0.000 A 
BRANCH  24  27
ATOM     27  C   UNL     1       7.037   4.819  14.201  0.00  0.00    +0.000 C 
ATOM     28  F   UNL     1       6.592   5.684  13.244  0.00  0.00    +0.000 F 
ATOM     29  F   UNL     1       8.309   5.206  14.485  0.00  0.00    +0.000 F 
ATOM     30  F   UNL     1       7.137   3.608  13.584  0.00  0.00    +0.000 F 
ENDBRANCH  24  27
ENDBRANCH   5  21
TORSDOF 3
ENDMDL
MODEL 6
REMARK VINA RESULT:      -7.7      1.995      2.593
REMARK  Name = 
REMARK  3 active torsions:
REMARK  status: ('A' for Active; 'I' for Inactive)
REMARK    1  A    between atoms: C_5  and  C_6
REMARK    2  A    between atoms: C_9  and  C_10
REMARK    3  A    between atoms: C_16  and  C_17
REMARK                            x       y       z     vdW  Elec       q    Type
REMARK                         _______ _______ _______ _____ _____    ______ ____
ROOT
ATOM      1  N   UNL     1       3.321   1.328  21.794  0.00  0.00    +0.000 N 
ATOM      2  C   UNL     1       3.017   2.553  21.237  0.00  0.00    +0.000 A 
ATOM      3  N   UNL     1       2.044   3.244  21.791  0.00  0.00    +0.000 NA
ATOM      4  C   UNL     1       1.791   4.432  21.227  0.00  0.00    +0.000 A 
ATOM      5  C   UNL     1       2.440   5.015  20.128  0.00  0.00    +0.000 A 
ATOM      6  C   UNL     1       3.381   4.173  19.566  0.00  0.00    +0.000 A 
ATOM      7  N   UNL     1       3.670   2.954  20.152  0.00  0.00    +0.000 NA
ATOM      8  H   UNL     1       2.531   1.013  22.340  0.00  0.00    +0.000 HD
ATOM      9  H   UNL     1       3.680   0.700  21.091  0.00  0.00    +0.000 HD
ENDROOT
BRANCH   6  10
ATOM     10  C   UNL     1       4.234   4.337  18.366  0.00  0.00    +0.000 A 
ATOM     11  C   UNL     1       3.888   3.543  17.271  0.00  0.00    +0.000 A 
ATOM     12  N   UNL     1       5.074   3.244  16.681  0.00  0.00    +0.000 N 
ATOM     13  C   UNL     1       5.852   4.364  16.756  0.00  0.00    +0.000 A 
ATOM     14  C   UNL     1       6.937   4.734  15.938  0.00  0.00    +0.000 A 
ATOM     15  C   UNL     1       7.536   5.946  16.230  0.00  0.00    +0.000 A 
ATOM     16  C   UNL     1       7.144   6.678  17.340  0.00  0.00    +0.000 A 
ATOM     17 BR   UNL     1       7.955   8.371  17.647  0.00  0.00    +0.000 Br
ATOM     18  C   UNL     1       6.125   6.235  18.217  0.00  0.00    +0.000 A 
ATOM     19  C   UNL     1       5.382   5.080  17.878  0.00  0.00    +0.000 A 
ATOM     20  H   UNL     1       5.294   2.389  16.190  0.00  0.00    +0.000 HD
ENDBRANCH   6  10
BRANCH   5  21
ATOM     21  C   UNL     1       2.010   6.370  19.760  0.00  0.00    +0.000 A 
ATOM     22  C   UNL     1       2.270   6.829  18.445  0.00  0.00    +0.000 A 
ATOM     23  C   UNL     1       2.094   8.163  18.084  0.00  0.00    +0.000 A 
ATOM     24  C   UNL     1       1.601   9.079  19.013  0.00  0.00    +0.000 A 
ATOM     25  C   UNL     1       1.290   8.630  20.306  0.00  0.00    +0.000 A 
ATOM     26  C   UNL     1       1.510   7.297  20.681  0.00  0.00    +0.000 A 
BRANCH  24  27
ATOM     27  C   UNL     1       1.415  10.529  18.635  0.00  0.00    +0.000 C 
ATOM     28  F   UNL     1       0.205  10.786  18.061  0.00  0.00    +0.000 F 
ATOM     29  F   UNL     1       1.501  11.365  19.704  0.00  0.00    +0.000 F 
ATOM     30  F   UNL     1       2.346  10.962  17.740  0.00  0.00    +0.000 F 
ENDBRANCH  24  27
ENDBRANCH   5  21
TORSDOF 3
ENDMDL
MODEL 7
REMARK VINA RESULT:      -7.7      6.448     10.011
REMARK  Name = 
REMARK  3 active torsions:
REMARK  status: ('A' for Active; 'I' for Inactive)
REMARK    1  A    between atoms: C_5  and  C_6
REMARK    2  A    between atoms: C_9  and  C_10
REMARK    3  A    between atoms: C_16  and  C_17
REMARK                            x       y       z     vdW  Elec       q    Type
REMARK                         _______ _______ _______ _____ _____    ______ ____
ROOT
ATOM      1  N   UNL     1       0.513  15.842  19.020  0.00  0.00    +0.000 N 
ATOM      2  C   UNL     1       0.596  14.467  18.974  0.00  0.00    +0.000 A 
ATOM      3  N   UNL     1       1.778  13.926  19.175  0.00  0.00    +0.000 NA
ATOM      4  C   UNL     1       1.811  12.586  19.134  0.00  0.00    +0.000 A 
ATOM      5  C   UNL     1       0.740  11.709  18.908  0.00  0.00    +0.000 A 
ATOM      6  C   UNL     1      -0.435  12.378  18.619  0.00  0.00    +0.000 A 
ATOM      7  N   UNL     1      -0.489  13.758  18.681  0.00  0.00    +0.000 NA
ATOM      8  H   UNL     1       1.436  16.230  18.879  0.00  0.00    +0.000 HD
ATOM      9  H   UNL     1      -0.226  16.172  18.417  0.00  0.00    +0.000 HD
ENDROOT
BRANCH   6  10
ATOM     10  C   UNL     1      -1.773  11.867  18.244  0.00  0.00    +0.000 A 
ATOM     11  C   UNL     1      -1.797  10.989  17.157  0.00  0.00    +0.000 A 
ATOM     12  N   UNL     1      -2.973  11.258  16.531  0.00  0.00    +0.000 N 
ATOM     13  C   UNL     1      -3.901  11.491  17.505  0.00  0.00    +0.000 A 
ATOM     14  C   UNL     1      -5.301  11.365  17.429  0.00  0.00    +0.000 A 
ATOM     15  C   UNL     1      -6.003  11.649  18.587  0.00  0.00    +0.000 A 
ATOM     16  C   UNL     1      -5.349  12.138  19.707  0.00  0.00    +0.000 A 
ATOM     17 BR   UNL     1      -6.358  12.440  21.291  0.00  0.00    +0.000 Br
ATOM     18  C   UNL     1      -3.952  12.365  19.728  0.00  0.00    +0.000 A 
ATOM     19  C   UNL     1      -3.172  11.950  18.624  0.00  0.00    +0.000 A 
ATOM     20  H   UNL     1      -3.143  11.193  15.537  0.00  0.00    +0.000 HD
ENDBRANCH   6  10
BRANCH   5  21
ATOM     21  C   UNL     1       1.043  10.274  18.991  0.00  0.00    +0.000 A 
ATOM     22  C   UNL     1       0.870   9.618  20.234  0.00  0.00    +0.000 A 
ATOM     23  C   UNL     1       1.337   8.324  20.453  0.00  0.00    +0.000 A 
ATOM     24  C   UNL     1       1.952   7.619  19.417  0.00  0.00    +0.000 A 
ATOM     25  C   UNL     1       2.086   8.237  18.164  0.00  0.00    +0.000 A 
ATOM     26  C   UNL     1       1.655   9.556  17.959  0.00  0.00    +0.000 A 
BRANCH  24  27
ATOM     27  C   UNL     1       2.471   6.219  19.646  0.00  0.00    +0.000 C 
ATOM     28  F   UNL     1       2.066   5.331  18.693  0.00  0.00    +0.000 F 
ATOM     29  F   UNL     1       3.829   6.159  19.653  0.00  0.00    +0.000 F 
ATOM     30  F   UNL     1       2.061   5.695  20.835  0.00  0.00    +0.000 F 
ENDBRANCH  24  27
ENDBRANCH   5  21
TORSDOF 3
ENDMDL
MODEL 8
REMARK VINA RESULT:      -7.7      6.543     10.201
REMARK  Name = 
REMARK  3 active torsions:
REMARK  status: ('A' for Active; 'I' for Inactive)
REMARK    1  A    between atoms: C_5  and  C_6
REMARK    2  A    between atoms: C_9  and  C_10
REMARK    3  A    between atoms: C_16  and  C_17
REMARK                            x       y       z     vdW  Elec       q    Type
REMARK                         _______ _______ _______ _____ _____    ______ ____
ROOT
ATOM      1  N   UNL     1       1.104  15.995  18.699  0.00  0.00    +0.000 N 
ATOM      2  C   UNL     1       1.071  14.617  18.728  0.00  0.00    +0.000 A 
ATOM      3  N   UNL     1       2.223  13.984  18.669  0.00  0.00    +0.000 NA
ATOM      4  C   UNL     1       2.146  12.647  18.713  0.00  0.00    +0.000 A 
ATOM      5  C   UNL     1       0.991  11.857  18.817  0.00  0.00    +0.000 A 
ATOM      6  C   UNL     1      -0.166  12.613  18.780  0.00  0.00    +0.000 A 
ATOM      7  N   UNL     1      -0.102  13.994  18.759  0.00  0.00    +0.000 NA
ATOM      8  H   UNL     1       1.988  16.293  18.310  0.00  0.00    +0.000 HD
ATOM      9  H   UNL     1       0.264  16.359  18.274  0.00  0.00    +0.000 HD
ENDROOT
BRANCH   6  10
ATOM     10  C   UNL     1      -1.590  12.204  18.780  0.00  0.00    +0.000 A 
ATOM     11  C   UNL     1      -1.973  11.364  17.732  0.00  0.00    +0.000 A 
ATOM     12  N   UNL     1      -3.252  11.729  17.454  0.00  0.00    +0.000 N 
ATOM     13  C   UNL     1      -3.860  11.995  18.648  0.00  0.00    +0.000 A 
ATOM     14  C   UNL     1      -5.234  11.965  18.957  0.00  0.00    +0.000 A 
ATOM     15  C   UNL     1      -5.571  12.260  20.266  0.00  0.00    +0.000 A 
ATOM     16  C   UNL     1      -4.602  12.670  21.170  0.00  0.00    +0.000 A 
ATOM     17 BR   UNL     1      -5.117  12.990  22.973  0.00  0.00    +0.000 Br
ATOM     18  C   UNL     1      -3.240  12.801  20.810  0.00  0.00    +0.000 A 
ATOM     19  C   UNL     1      -2.822  12.369  19.530  0.00  0.00    +0.000 A 
ATOM     20  H   UNL     1      -3.691  11.706  16.545  0.00  0.00    +0.000 HD
ENDBRANCH   6  10
BRANCH   5  21
ATOM     21  C   UNL     1       1.198  10.407  18.921  0.00  0.00    +0.000 A 
ATOM     22  C   UNL     1       0.980   9.781  20.172  0.00  0.00    +0.000 A 
ATOM     23  C   UNL     1       1.361   8.463  20.411  0.00  0.00    +0.000 A 
ATOM     24  C   UNL     1       1.930   7.704  19.387  0.00  0.00    +0.000 A 
ATOM     25  C   UNL     1       2.108   8.294  18.126  0.00  0.00    +0.000 A 
ATOM     26  C   UNL     1       1.765   9.635  17.901  0.00  0.00    +0.000 A 
BRANCH  24  27
ATOM     27  C   UNL     1       2.356   6.277  19.637  0.00  0.00    +0.000 C 
ATOM     28  F   UNL     1       3.709   6.124  19.719  0.00  0.00    +0.000 F 
ATOM     29  F   UNL     1       1.857   5.776  20.799  0.00  0.00    +0.000 F 
ATOM     30  F   UNL     1       1.949   5.427  18.652  0.00  0.00    +0.000 F 
ENDBRANCH  24  27
ENDBRANCH   5  21
TORSDOF 3
ENDMDL
MODEL 9
REMARK VINA RESULT:      -7.5      4.323      6.784
REMARK  Name = 
REMARK  3 active torsions:
REMARK  status: ('A' for Active; 'I' for Inactive)
REMARK    1  A    between atoms: C_5  and  C_6
REMARK    2  A    between atoms: C_9  and  C_10
REMARK    3  A    between atoms: C_16  and  C_17
REMARK                            x       y       z     vdW  Elec       q    Type
REMARK                         _______ _______ _______ _____ _____    ______ ____
ROOT
ATOM      1  N   UNL     1       1.157   2.657  22.661  0.00  0.00    +0.000 N 
ATOM      2  C   UNL     1       1.948   3.001  21.584  0.00  0.00    +0.000 A 
ATOM      3  N   UNL     1       2.878   2.146  21.220  0.00  0.00    +0.000 NA
ATOM      4  C   UNL     1       3.614   2.514  20.162  0.00  0.00    +0.000 A 
ATOM      5  C   UNL     1       3.502   3.692  19.408  0.00  0.00    +0.000 A 
ATOM      6  C   UNL     1       2.560   4.560  19.927  0.00  0.00    +0.000 A 
ATOM      7  N   UNL     1       1.777   4.183  21.003  0.00  0.00    +0.000 NA
ATOM      8  H   UNL     1       1.632   1.946  23.201  0.00  0.00    +0.000 HD
ATOM      9  H   UNL     1       0.849   3.483  23.150  0.00  0.00    +0.000 HD
ENDROOT
BRANCH   6  10
ATOM     10  C   UNL     1       2.170   5.927  19.511  0.00  0.00    +0.000 A 
ATOM     11  C   UNL     1       2.224   6.175  18.138  0.00  0.00    +0.000 A 
ATOM     12  N   UNL     1       2.602   7.476  18.043  0.00  0.00    +0.000 N 
ATOM     13  C   UNL     1       1.965   8.153  19.044  0.00  0.00    +0.000 A 
ATOM     14  C   UNL     1       1.653   9.524  19.115  0.00  0.00    +0.000 A 
ATOM     15  C   UNL     1       0.977   9.938  20.249  0.00  0.00    +0.000 A 
ATOM     16  C   UNL     1       0.736   9.055  21.290  0.00  0.00    +0.000 A 
ATOM     17 BR   UNL     1      -0.261   9.665  22.789  0.00  0.00    +0.000 Br
ATOM     18  C   UNL     1       1.157   7.704  21.248  0.00  0.00    +0.000 A 
ATOM     19  C   UNL     1       1.717   7.196  20.053  0.00  0.00    +0.000 A 
ATOM     20  H   UNL     1       3.166   7.878  17.307  0.00  0.00    +0.000 HD
ENDBRANCH   6  10
BRANCH   5  21
ATOM     21  C   UNL     1       4.392   3.810  18.246  0.00  0.00    +0.000 A 
ATOM     22  C   UNL     1       5.584   4.563  18.381  0.00  0.00    +0.000 A 
ATOM     23  C   UNL     1       6.366   4.904  17.279  0.00  0.00    +0.000 A 
ATOM     24  C   UNL     1       6.010   4.459  16.005  0.00  0.00    +0.000 A 
ATOM     25  C   UNL     1       4.858   3.670  15.861  0.00  0.00    +0.000 A 
ATOM     26  C   UNL     1       4.048   3.365  16.965  0.00  0.00    +0.000 A 
BRANCH  24  27
ATOM     27  C   UNL     1       6.844   4.831  14.803  0.00  0.00    +0.000 C 
ATOM     28  F   UNL     1       6.372   5.923  14.135  0.00  0.00    +0.000 F 
ATOM     29  F   UNL     1       8.131   5.126  15.128  0.00  0.00    +0.000 F 
ATOM     30  F   UNL     1       6.907   3.833  13.877  0.00  0.00    +0.000 F 
ENDBRANCH  24  27
ENDBRANCH   5  21
TORSDOF 3
ENDMDL
