MODEL 1
REMARK VINA RESULT:      -8.3      0.000      0.000
REMARK  Name = 
REMARK  6 active torsions:
REMARK  status: ('A' for Active; 'I' for Inactive)
REMARK    1  A    between atoms: N_1  and  C_2
REMARK    2  A    between atoms: C_2  and  C_3
REMARK    3  A    between atoms: C_2  and  C_24
REMARK    4  A    between atoms: C_3  and  O_4
REMARK    5  A    between atoms: O_4  and  C_5
REMARK    6  A    between atoms: C_7  and  C_8
REMARK                            x       y       z     vdW  Elec       q    Type
REMARK                         _______ _______ _______ _____ _____    ______ ____
ROOT
ATOM      1  C   UNL     1       2.755   6.352  19.960  0.00  0.00    +0.000 A 
ATOM      2  N   UNL     1       3.718   5.826  19.165  0.00  0.00    +0.000 NA
ATOM      3  C   UNL     1       4.050   6.425  18.014  0.00  0.00    +0.000 A 
ATOM      4  N   UNL     1       3.518   7.560  17.567  0.00  0.00    +0.000 NA
ATOM      5  C   UNL     1       2.612   8.095  18.397  0.00  0.00    +0.000 A 
ATOM      6  S   UNL     1       1.858   9.552  17.956  0.00  0.00    +0.000 S 
ATOM      7  C   UNL     1       0.970   9.588  19.396  0.00  0.00    +0.000 A 
ATOM      8  C   UNL     1       1.206   8.491  20.212  0.00  0.00    +0.000 A 
ATOM      9  C   UNL     1       2.173   7.587  19.617  0.00  0.00    +0.000 A 
ATOM     10  C   UNL     1       0.546   8.380  21.562  0.00  0.00    +0.000 C 
ATOM     11  C   UNL     1      -0.584   9.415  21.759  0.00  0.00    +0.000 C 
ATOM     12  C   UNL     1      -0.237  10.798  21.190  0.00  0.00    +0.000 C 
ATOM     13  C   UNL     1       0.033  10.718  19.686  0.00  0.00    +0.000 C 
ENDROOT
BRANCH   3  14
ATOM     14  C   UNL     1       5.045   5.744  17.168  0.00  0.00    +0.000 A 
ATOM     15  C   UNL     1       6.086   4.982  17.724  0.00  0.00    +0.000 A 
ATOM     16  C   UNL     1       7.001   4.360  16.891  0.00  0.00    +0.000 A 
ATOM     17  N   UNL     1       6.952   4.430  15.545  0.00  0.00    +0.000 NA
ATOM     18  C   UNL     1       5.951   5.162  15.015  0.00  0.00    +0.000 A 
ATOM     19  C   UNL     1       4.992   5.822  15.770  0.00  0.00    +0.000 A 
ENDBRANCH   3  14
BRANCH   1  20
ATOM     20  O   UNL     1       2.352   5.583  21.059  0.00  0.00    +0.000 OA
BRANCH  20  21
ATOM     21  C   UNL     1       1.106   4.921  20.726  0.00  0.00    +0.000 C 
BRANCH  21  22
ATOM     22  C   UNL     1       1.185   3.375  20.643  0.00  0.00    +0.000 C 
BRANCH  22  23
ATOM     23  C   UNL     1       2.067   2.880  19.492  0.00  0.00    +0.000 A 
ATOM     24  C   UNL     1       1.755   3.271  18.177  0.00  0.00    +0.000 A 
ATOM     25  C   UNL     1       2.550   2.875  17.095  0.00  0.00    +0.000 A 
ATOM     26  C   UNL     1       3.678   2.087  17.303  0.00  0.00    +0.000 A 
ATOM     27  C   UNL     1       4.002   1.676  18.592  0.00  0.00    +0.000 A 
ATOM     28  C   UNL     1       3.201   2.062  19.672  0.00  0.00    +0.000 A 
ENDBRANCH  22  23
BRANCH  22  29
ATOM     29  N   UNL     1       1.643   2.789  21.913  0.00  0.00    +0.000 NA
ATOM     30  H   UNL     1       2.641   2.968  22.014  0.00  0.00    +0.000 HD
ATOM     31  H   UNL     1       1.536   1.778  21.872  0.00  0.00    +0.000 HD
ENDBRANCH  22  29
ENDBRANCH  21  22
ENDBRANCH  20  21
ENDBRANCH   1  20
TORSDOF 6
ENDMDL
MODEL 2
REMARK VINA RESULT:      -8.3      0.415      1.252
REMARK  Name = 
REMARK  6 active torsions:
REMARK  status: ('A' for Active; 'I' for Inactive)
REMARK    1  A    between atoms: N_1  and  C_2
REMARK    2  A    between atoms: C_2  and  C_3
REMARK    3  A    between atoms: C_2  and  C_24
REMARK    4  A    between atoms: C_3  and  O_4
REMARK    5  A    between atoms: O_4  and  C_5
REMARK    6  A    between atoms: C_7  and  C_8
REMARK                            x       y       z     vdW  Elec       q    Type
REMARK                         _______ _______ _______ _____ _____    ______ ____
ROOT
ATOM      1  C   UNL     1       2.698   6.281  20.015  0.00  0.00    +0.000 A 
ATOM      2  N   UNL     1       3.655   5.685  19.263  0.00  0.00    +0.000 NA
ATOM      3  C   UNL     1       4.033   6.223  18.097  0.00  0.00    +0.000 A 
ATOM      4  N   UNL     1       3.555   7.358  17.592  0.00  0.00    +0.000 NA
ATOM      5  C   UNL     1       2.655   7.961  18.380  0.00  0.00    +0.000 A 
ATOM      6  S   UNL     1       1.967   9.427  17.864  0.00  0.00    +0.000 S 
ATOM      7  C   UNL     1       1.053   9.557  19.283  0.00  0.00    +0.000 A 
ATOM      8  C   UNL     1       1.230   8.487  20.148  0.00  0.00    +0.000 A 
ATOM      9  C   UNL     1       2.172   7.521  19.610  0.00  0.00    +0.000 A 
ATOM     10  C   UNL     1       0.540   8.457  21.486  0.00  0.00    +0.000 C 
ATOM     11  C   UNL     1      -0.552   9.542  21.617  0.00  0.00    +0.000 C 
ATOM     12  C   UNL     1      -0.139  10.886  21.000  0.00  0.00    +0.000 C 
ATOM     13  C   UNL     1       0.156  10.733  19.507  0.00  0.00    +0.000 C 
ENDROOT
BRANCH   3  14
ATOM     14  C   UNL     1       5.016   5.469  17.300  0.00  0.00    +0.000 A 
ATOM     15  C   UNL     1       4.691   4.942  16.038  0.00  0.00    +0.000 A 
ATOM     16  C   UNL     1       5.647   4.238  15.323  0.00  0.00    +0.000 A 
ATOM     17  N   UNL     1       6.904   4.029  15.763  0.00  0.00    +0.000 NA
ATOM     18  C   UNL     1       7.211   4.537  16.974  0.00  0.00    +0.000 A 
ATOM     19  C   UNL     1       6.320   5.251  17.762  0.00  0.00    +0.000 A 
ENDBRANCH   3  14
BRANCH   1  20
ATOM     20  O   UNL     1       2.244   5.574  21.136  0.00  0.00    +0.000 OA
BRANCH  20  21
ATOM     21  C   UNL     1       1.049   4.842  20.767  0.00  0.00    +0.000 C 
BRANCH  21  22
ATOM     22  C   UNL     1       1.191   3.298  20.786  0.00  0.00    +0.000 C 
BRANCH  22  23
ATOM     23  C   UNL     1       2.126   2.768  19.695  0.00  0.00    +0.000 A 
ATOM     24  C   UNL     1       3.404   2.303  20.058  0.00  0.00    +0.000 A 
ATOM     25  C   UNL     1       4.282   1.776  19.105  0.00  0.00    +0.000 A 
ATOM     26  C   UNL     1       3.901   1.695  17.768  0.00  0.00    +0.000 A 
ATOM     27  C   UNL     1       2.649   2.159  17.379  0.00  0.00    +0.000 A 
ATOM     28  C   UNL     1       1.775   2.697  18.332  0.00  0.00    +0.000 A 
ENDBRANCH  22  23
BRANCH  22  29
ATOM     29  N   UNL     1       1.632   2.815  22.105  0.00  0.00    +0.000 NA
ATOM     30  H   UNL     1       2.557   3.196  22.299  0.00  0.00    +0.000 HD
ATOM     31  H   UNL     1       1.742   1.803  22.069  0.00  0.00    +0.000 HD
ENDBRANCH  22  29
ENDBRANCH  21  22
ENDBRANCH  20  21
ENDBRANCH   1  20
TORSDOF 6
ENDMDL
MODEL 3
REMARK VINA RESULT:      -7.3      1.042      1.091
REMARK  Name = 
REMARK  6 active torsions:
REMARK  status: ('A' for Active; 'I' for Inactive)
REMARK    1  A    between atoms: N_1  and  C_2
REMARK    2  A    between atoms: C_2  and  C_3
REMARK    3  A    between atoms: C_2  and  C_24
REMARK    4  A    between atoms: C_3  and  O_4
REMARK    5  A    between atoms: O_4  and  C_5
REMARK    6  A    between atoms: C_7  and  C_8
REMARK                            x       y       z     vdW  Elec       q    Type
REMARK                         _______ _______ _______ _____ _____    ______ ____
ROOT
ATOM      1  C   UNL     1       1.959   6.951  20.070  0.00  0.00    +0.000 A 
ATOM      2  N   UNL     1       2.812   6.342  19.211  0.00  0.00    +0.000 NA
ATOM      3  C   UNL     1       3.225   6.974  18.105  0.00  0.00    +0.000 A 
ATOM      4  N   UNL     1       2.884   8.215  17.765  0.00  0.00    +0.000 NA
ATOM      5  C   UNL     1       2.089   8.819  18.659  0.00  0.00    +0.000 A 
ATOM      6  S   UNL     1       1.582  10.413  18.357  0.00  0.00    +0.000 S 
ATOM      7  C   UNL     1       0.729  10.472  19.819  0.00  0.00    +0.000 A 
ATOM      8  C   UNL     1       0.790   9.287  20.536  0.00  0.00    +0.000 A 
ATOM      9  C   UNL     1       1.586   8.289  19.845  0.00  0.00    +0.000 A 
ATOM     10  C   UNL     1       0.137   9.171  21.889  0.00  0.00    +0.000 C 
ATOM     11  C   UNL     1      -0.803  10.357  22.199  0.00  0.00    +0.000 C 
ATOM     12  C   UNL     1      -0.238  11.708  21.736  0.00  0.00    +0.000 C 
ATOM     13  C   UNL     1      -0.003  11.712  20.224  0.00  0.00    +0.000 C 
ENDROOT
BRANCH   3  14
ATOM     14  C   UNL     1       4.083   6.213  17.180  0.00  0.00    +0.000 A 
ATOM     15  C   UNL     1       4.208   4.817  17.274  0.00  0.00    +0.000 A 
ATOM     16  C   UNL     1       5.028   4.141  16.385  0.00  0.00    +0.000 A 
ATOM     17  N   UNL     1       5.723   4.748  15.402  0.00  0.00    +0.000 NA
ATOM     18  C   UNL     1       5.599   6.088  15.315  0.00  0.00    +0.000 A 
ATOM     19  C   UNL     1       4.806   6.848  16.162  0.00  0.00    +0.000 A 
ENDBRANCH   3  14
BRANCH   1  20
ATOM     20  O   UNL     1       1.448   6.168  21.113  0.00  0.00    +0.000 OA
BRANCH  20  21
ATOM     21  C   UNL     1       2.308   5.015  21.289  0.00  0.00    +0.000 C 
BRANCH  21  22
ATOM     22  C   UNL     1       1.633   3.644  21.031  0.00  0.00    +0.000 C 
BRANCH  22  23
ATOM     23  C   UNL     1       2.365   2.803  19.981  0.00  0.00    +0.000 A 
ATOM     24  C   UNL     1       1.712   2.501  18.771  0.00  0.00    +0.000 A 
ATOM     25  C   UNL     1       2.350   1.766  17.766  0.00  0.00    +0.000 A 
ATOM     26  C   UNL     1       3.657   1.323  17.942  0.00  0.00    +0.000 A 
ATOM     27  C   UNL     1       4.323   1.596  19.134  0.00  0.00    +0.000 A 
ATOM     28  C   UNL     1       3.680   2.321  20.143  0.00  0.00    +0.000 A 
ENDBRANCH  22  23
BRANCH  22  29
ATOM     29  N   UNL     1       1.484   2.874  22.276  0.00  0.00    +0.000 NA
ATOM     30  H   UNL     1       0.531   2.516  22.326  0.00  0.00    +0.000 HD
ATOM     31  H   UNL     1       1.596   3.501  23.071  0.00  0.00    +0.000 HD
ENDBRANCH  22  29
ENDBRANCH  21  22
ENDBRANCH  20  21
ENDBRANCH   1  20
TORSDOF 6
ENDMDL
MODEL 4
REMARK VINA RESULT:      -7.0      4.693      9.807
REMARK  Name = 
REMARK  6 active torsions:
REMARK  status: ('A' for Active; 'I' for Inactive)
REMARK    1  A    between atoms: N_1  and  C_2
REMARK    2  A    between atoms: C_2  and  C_3
REMARK    3  A    between atoms: C_2  and  C_24
REMARK    4  A    between atoms: C_3  and  O_4
REMARK    5  A    between atoms: O_4  and  C_5
REMARK    6  A    between atoms: C_7  and  C_8
REMARK                            x       y       z     vdW  Elec       q    Type
REMARK                         _______ _______ _______ _____ _____    ______ ____
ROOT
ATOM      1  C   UNL     1       0.009  11.499  19.745  0.00  0.00    +0.000 A 
ATOM      2  N   UNL     1      -0.621  12.241  20.689  0.00  0.00    +0.000 NA
ATOM      3  C   UNL     1      -0.836  11.740  21.912  0.00  0.00    +0.000 A 
ATOM      4  N   UNL     1      -0.448  10.534  22.319  0.00  0.00    +0.000 NA
ATOM      5  C   UNL     1       0.225   9.842  21.390  0.00  0.00    +0.000 A 
ATOM      6  S   UNL     1       0.789   8.286  21.777  0.00  0.00    +0.000 S 
ATOM      7  C   UNL     1       1.499   8.108  20.251  0.00  0.00    +0.000 A 
ATOM      8  C   UNL     1       1.295   9.201  19.421  0.00  0.00    +0.000 A 
ATOM      9  C   UNL     1       0.522  10.235  20.087  0.00  0.00    +0.000 A 
ATOM     10  C   UNL     1       1.901   9.246  18.044  0.00  0.00    +0.000 C 
ATOM     11  C   UNL     1       2.470   7.879  17.599  0.00  0.00    +0.000 C 
ATOM     12  C   UNL     1       3.195   7.135  18.729  0.00  0.00    +0.000 C 
ATOM     13  C   UNL     1       2.247   6.861  19.899  0.00  0.00    +0.000 C 
ENDROOT
BRANCH   3  14
ATOM     14  C   UNL     1      -1.602  12.577  22.852  0.00  0.00    +0.000 A 
ATOM     15  C   UNL     1      -1.079  13.778  23.360  0.00  0.00    +0.000 A 
ATOM     16  C   UNL     1      -1.832  14.534  24.244  0.00  0.00    +0.000 A 
ATOM     17  N   UNL     1      -3.070  14.189  24.652  0.00  0.00    +0.000 NA
ATOM     18  C   UNL     1      -3.568  13.036  24.162  0.00  0.00    +0.000 A 
ATOM     19  C   UNL     1      -2.886  12.214  23.276  0.00  0.00    +0.000 A 
ENDBRANCH   3  14
BRANCH   1  20
ATOM     20  O   UNL     1       0.050  12.029  18.449  0.00  0.00    +0.000 OA
BRANCH  20  21
ATOM     21  C   UNL     1      -1.265  12.540  18.118  0.00  0.00    +0.000 C 
BRANCH  21  22
ATOM     22  C   UNL     1      -2.272  11.480  17.603  0.00  0.00    +0.000 C 
BRANCH  22  23
ATOM     23  C   UNL     1      -3.654  11.600  18.252  0.00  0.00    +0.000 A 
ATOM     24  C   UNL     1      -4.743  10.927  17.669  0.00  0.00    +0.000 A 
ATOM     25  C   UNL     1      -6.018  10.976  18.243  0.00  0.00    +0.000 A 
ATOM     26  C   UNL     1      -6.233  11.692  19.417  0.00  0.00    +0.000 A 
ATOM     27  C   UNL     1      -5.176  12.379  20.008  0.00  0.00    +0.000 A 
ATOM     28  C   UNL     1      -3.904  12.339  19.427  0.00  0.00    +0.000 A 
ENDBRANCH  22  23
BRANCH  22  29
ATOM     29  N   UNL     1      -2.400  11.526  16.137  0.00  0.00    +0.000 NA
ATOM     30  H   UNL     1      -2.601  12.484  15.857  0.00  0.00    +0.000 HD
ATOM     31  H   UNL     1      -3.206  10.970  15.856  0.00  0.00    +0.000 HD
ENDBRANCH  22  29
ENDBRANCH  21  22
ENDBRANCH  20  21
ENDBRANCH   1  20
TORSDOF 6
ENDMDL
MODEL 5
REMARK VINA RESULT:      -7.0      4.774      9.911
REMARK  Name = 
REMARK  6 active torsions:
REMARK  status: ('A' for Active; 'I' for Inactive)
REMARK    1  A    between atoms: N_1  and  C_2
REMARK    2  A    between atoms: C_2  and  C_3
REMARK    3  A    between atoms: C_2  and  C_24
REMARK    4  A    between atoms: C_3  and  O_4
REMARK    5  A    between atoms: O_4  and  C_5
REMARK    6  A    between atoms: C_7  and  C_8
REMARK                            x       y       z     vdW  Elec       q    Type
REMARK                         _______ _______ _______ _____ _____    ______ ____
ROOT
ATOM      1  C   UNL     1      -0.082  11.647  19.812  0.00  0.00    +0.000 A 
ATOM      2  N   UNL     1      -0.707  12.385  20.762  0.00  0.00    +0.000 NA
ATOM      3  C   UNL     1      -0.927  11.874  21.980  0.00  0.00    +0.000 A 
ATOM      4  N   UNL     1      -0.548  10.662  22.377  0.00  0.00    +0.000 NA
ATOM      5  C   UNL     1       0.121   9.973  21.441  0.00  0.00    +0.000 A 
ATOM      6  S   UNL     1       0.673   8.410  21.814  0.00  0.00    +0.000 S 
ATOM      7  C   UNL     1       1.383   8.241  20.286  0.00  0.00    +0.000 A 
ATOM      8  C   UNL     1       1.187   9.343  19.467  0.00  0.00    +0.000 A 
ATOM      9  C   UNL     1       0.421  10.376  20.142  0.00  0.00    +0.000 A 
ATOM     10  C   UNL     1       1.794   9.396  18.090  0.00  0.00    +0.000 C 
ATOM     11  C   UNL     1       2.353   8.030  17.633  0.00  0.00    +0.000 C 
ATOM     12  C   UNL     1       3.072   7.269  18.756  0.00  0.00    +0.000 C 
ATOM     13  C   UNL     1       2.121   6.992  19.923  0.00  0.00    +0.000 C 
ENDROOT
BRANCH   3  14
ATOM     14  C   UNL     1      -1.686  12.708  22.928  0.00  0.00    +0.000 A 
ATOM     15  C   UNL     1      -2.967  12.336  23.372  0.00  0.00    +0.000 A 
ATOM     16  C   UNL     1      -3.647  13.150  24.262  0.00  0.00    +0.000 A 
ATOM     17  N   UNL     1      -3.144  14.301  24.753  0.00  0.00    +0.000 NA
ATOM     18  C   UNL     1      -1.915  14.654  24.326  0.00  0.00    +0.000 A 
ATOM     19  C   UNL     1      -1.162  13.904  23.434  0.00  0.00    +0.000 A 
ENDBRANCH   3  14
BRANCH   1  20
ATOM     20  O   UNL     1      -0.036  12.189  18.521  0.00  0.00    +0.000 OA
BRANCH  20  21
ATOM     21  C   UNL     1      -1.373  12.609  18.149  0.00  0.00    +0.000 C 
BRANCH  21  22
ATOM     22  C   UNL     1      -2.302  11.476  17.644  0.00  0.00    +0.000 C 
BRANCH  22  23
ATOM     23  C   UNL     1      -3.717  11.556  18.227  0.00  0.00    +0.000 A 
ATOM     24  C   UNL     1      -3.917  12.238  19.441  0.00  0.00    +0.000 A 
ATOM     25  C   UNL     1      -5.195  12.370  19.996  0.00  0.00    +0.000 A 
ATOM     26  C   UNL     1      -6.302  11.831  19.347  0.00  0.00    +0.000 A 
ATOM     27  C   UNL     1      -6.130  11.139  18.152  0.00  0.00    +0.000 A 
ATOM     28  C   UNL     1      -4.851  10.998  17.603  0.00  0.00    +0.000 A 
ENDBRANCH  22  23
BRANCH  22  29
ATOM     29  N   UNL     1      -2.365  11.446  16.174  0.00  0.00    +0.000 NA
ATOM     30  H   UNL     1      -2.667  12.360  15.841  0.00  0.00    +0.000 HD
ATOM     31  H   UNL     1      -3.083  10.784  15.885  0.00  0.00    +0.000 HD
ENDBRANCH  22  29
ENDBRANCH  21  22
ENDBRANCH  20  21
ENDBRANCH   1  20
TORSDOF 6
ENDMDL
MODEL 6
REMARK VINA RESULT:      -6.9      0.975      1.237
REMARK  Name = 
REMARK  6 active torsions:
REMARK  status: ('A' for Active; 'I' for Inactive)
REMARK    1  A    between atoms: N_1  and  C_2
REMARK    2  A    between atoms: C_2  and  C_3
REMARK    3  A    between atoms: C_2  and  C_24
REMARK    4  A    between atoms: C_3  and  O_4
REMARK    5  A    between atoms: O_4  and  C_5
REMARK    6  A    between atoms: C_7  and  C_8
REMARK                            x       y       z     vdW  Elec       q    Type
REMARK                         _______ _______ _______ _____ _____    ______ ____
ROOT
ATOM      1  C   UNL     1       2.793   6.163  19.777  0.00  0.00    +0.000 A 
ATOM      2  N   UNL     1       3.700   5.633  18.921  0.00  0.00    +0.000 NA
ATOM      3  C   UNL     1       3.998   6.261  17.776  0.00  0.00    +0.000 A 
ATOM      4  N   UNL     1       3.485   7.427  17.392  0.00  0.00    +0.000 NA
ATOM      5  C   UNL     1       2.636   7.961  18.281  0.00  0.00    +0.000 A 
ATOM      6  S   UNL     1       1.911   9.455  17.923  0.00  0.00    +0.000 S 
ATOM      7  C   UNL     1       1.092   9.471  19.405  0.00  0.00    +0.000 A 
ATOM      8  C   UNL     1       1.329   8.340  20.172  0.00  0.00    +0.000 A 
ATOM      9  C   UNL     1       2.237   7.426  19.503  0.00  0.00    +0.000 A 
ATOM     10  C   UNL     1       0.729   8.203  21.547  0.00  0.00    +0.000 C 
ATOM     11  C   UNL     1      -0.356   9.266  21.831  0.00  0.00    +0.000 C 
ATOM     12  C   UNL     1       0.010  10.656  21.292  0.00  0.00    +0.000 C 
ATOM     13  C   UNL     1       0.207  10.619  19.775  0.00  0.00    +0.000 C 
ENDROOT
BRANCH   3  14
ATOM     14  C   UNL     1       4.930   5.578  16.862  0.00  0.00    +0.000 A 
ATOM     15  C   UNL     1       6.169   6.144  16.518  0.00  0.00    +0.000 A 
ATOM     16  C   UNL     1       7.014   5.468  15.652  0.00  0.00    +0.000 A 
ATOM     17  N   UNL     1       6.724   4.268  15.112  0.00  0.00    +0.000 NA
ATOM     18  C   UNL     1       5.534   3.728  15.446  0.00  0.00    +0.000 A 
ATOM     19  C   UNL     1       4.623   4.332  16.301  0.00  0.00    +0.000 A 
ENDBRANCH   3  14
BRANCH   1  20
ATOM     20  O   UNL     1       2.416   5.369  20.869  0.00  0.00    +0.000 OA
BRANCH  20  21
ATOM     21  C   UNL     1       1.132   4.763  20.577  0.00  0.00    +0.000 C 
BRANCH  21  22
ATOM     22  C   UNL     1       1.159   3.656  19.492  0.00  0.00    +0.000 C 
BRANCH  22  23
ATOM     23  C   UNL     1       2.406   2.770  19.571  0.00  0.00    +0.000 A 
ATOM     24  C   UNL     1       2.800   2.044  18.432  0.00  0.00    +0.000 A 
ATOM     25  C   UNL     1       3.951   1.248  18.441  0.00  0.00    +0.000 A 
ATOM     26  C   UNL     1       4.738   1.165  19.586  0.00  0.00    +0.000 A 
ATOM     27  C   UNL     1       4.364   1.861  20.731  0.00  0.00    +0.000 A 
ATOM     28  C   UNL     1       3.207   2.648  20.725  0.00  0.00    +0.000 A 
ENDBRANCH  22  23
BRANCH  22  29
ATOM     29  N   UNL     1      -0.053   2.823  19.543  0.00  0.00    +0.000 NA
ATOM     30  H   UNL     1       0.223   1.853  19.689  0.00  0.00    +0.000 HD
ATOM     31  H   UNL     1      -0.517   2.856  18.637  0.00  0.00    +0.000 HD
ENDBRANCH  22  29
ENDBRANCH  21  22
ENDBRANCH  20  21
ENDBRANCH   1  20
TORSDOF 6
ENDMDL
MODEL 7
REMARK VINA RESULT:      -6.9      3.427      7.651
REMARK  Name = 
REMARK  6 active torsions:
REMARK  status: ('A' for Active; 'I' for Inactive)
REMARK    1  A    between atoms: N_1  and  C_2
REMARK    2  A    between atoms: C_2  and  C_3
REMARK    3  A    between atoms: C_2  and  C_24
REMARK    4  A    between atoms: C_3  and  O_4
REMARK    5  A    between atoms: O_4  and  C_5
REMARK    6  A    between atoms: C_7  and  C_8
REMARK                            x       y       z     vdW  Elec       q    Type
REMARK                         _______ _______ _______ _____ _____    ______ ____
ROOT
ATOM      1  C   UNL     1       0.886  10.404  19.159  0.00  0.00    +0.000 A 
ATOM      2  N   UNL     1       1.556   9.282  18.801  0.00  0.00    +0.000 NA
ATOM      3  C   UNL     1       1.676   8.261  19.659  0.00  0.00    +0.000 A 
ATOM      4  N   UNL     1       1.150   8.229  20.881  0.00  0.00    +0.000 NA
ATOM      5  C   UNL     1       0.442   9.323  21.192  0.00  0.00    +0.000 A 
ATOM      6  S   UNL     1      -0.294   9.414  22.721  0.00  0.00    +0.000 S 
ATOM      7  C   UNL     1      -0.966  10.926  22.365  0.00  0.00    +0.000 A 
ATOM      8  C   UNL     1      -0.620  11.395  21.106  0.00  0.00    +0.000 A 
ATOM      9  C   UNL     1       0.232  10.452  20.404  0.00  0.00    +0.000 A 
ATOM     10  C   UNL     1      -1.171  12.700  20.593  0.00  0.00    +0.000 C 
ATOM     11  C   UNL     1      -1.862  13.530  21.698  0.00  0.00    +0.000 C 
ATOM     12  C   UNL     1      -2.699  12.672  22.657  0.00  0.00    +0.000 C 
ATOM     13  C   UNL     1      -1.826  11.633  23.363  0.00  0.00    +0.000 C 
ENDROOT
BRANCH   3  14
ATOM     14  C   UNL     1       2.491   7.113  19.224  0.00  0.00    +0.000 A 
ATOM     15  C   UNL     1       2.584   5.943  19.996  0.00  0.00    +0.000 A 
ATOM     16  C   UNL     1       3.363   4.888  19.550  0.00  0.00    +0.000 A 
ATOM     17  N   UNL     1       4.048   4.906  18.389  0.00  0.00    +0.000 NA
ATOM     18  C   UNL     1       3.956   6.030  17.650  0.00  0.00    +0.000 A 
ATOM     19  C   UNL     1       3.203   7.137  18.018  0.00  0.00    +0.000 A 
ENDBRANCH   3  14
BRANCH   1  20
ATOM     20  O   UNL     1       0.945  11.486  18.271  0.00  0.00    +0.000 OA
BRANCH  20  21
ATOM     21  C   UNL     1       2.302  11.995  18.254  0.00  0.00    +0.000 C 
BRANCH  21  22
ATOM     22  C   UNL     1       2.426  13.530  18.075  0.00  0.00    +0.000 C 
BRANCH  22  23
ATOM     23  C   UNL     1       1.895  14.319  19.276  0.00  0.00    +0.000 A 
ATOM     24  C   UNL     1       2.301  13.947  20.570  0.00  0.00    +0.000 A 
ATOM     25  C   UNL     1       1.873  14.657  21.697  0.00  0.00    +0.000 A 
ATOM     26  C   UNL     1       1.036  15.760  21.556  0.00  0.00    +0.000 A 
ATOM     27  C   UNL     1       0.609  16.143  20.288  0.00  0.00    +0.000 A 
ATOM     28  C   UNL     1       1.028  15.425  19.162  0.00  0.00    +0.000 A 
ENDBRANCH  22  23
BRANCH  22  29
ATOM     29  N   UNL     1       3.813  13.928  17.786  0.00  0.00    +0.000 NA
ATOM     30  H   UNL     1       4.115  14.596  18.493  0.00  0.00    +0.000 HD
ATOM     31  H   UNL     1       3.839  14.421  16.896  0.00  0.00    +0.000 HD
ENDBRANCH  22  29
ENDBRANCH  21  22
ENDBRANCH  20  21
ENDBRANCH   1  20
TORSDOF 6
ENDMDL
MODEL 8
REMARK VINA RESULT:      -6.8      2.325      6.841
REMARK  Name = 
REMARK  6 active torsions:
REMARK  status: ('A' for Active; 'I' for Inactive)
REMARK    1  A    between atoms: N_1  and  C_2
REMARK    2  A    between atoms: C_2  and  C_3
REMARK    3  A    between atoms: C_2  and  C_24
REMARK    4  A    between atoms: C_3  and  O_4
REMARK    5  A    between atoms: O_4  and  C_5
REMARK    6  A    between atoms: C_7  and  C_8
REMARK                            x       y       z     vdW  Elec       q    Type
REMARK                         _______ _______ _______ _____ _____    ______ ____
ROOT
ATOM      1  C   UNL     1       2.713   6.728  18.468  0.00  0.00    +0.000 A 
ATOM      2  N   UNL     1       2.285   7.824  19.141  0.00  0.00    +0.000 NA
ATOM      3  C   UNL     1       1.571   7.693  20.266  0.00  0.00    +0.000 A 
ATOM      4  N   UNL     1       1.250   6.532  20.832  0.00  0.00    +0.000 NA
ATOM      5  C   UNL     1       1.735   5.464  20.184  0.00  0.00    +0.000 A 
ATOM      6  S   UNL     1       1.409   3.914  20.801  0.00  0.00    +0.000 S 
ATOM      7  C   UNL     1       2.307   3.179  19.569  0.00  0.00    +0.000 A 
ATOM      8  C   UNL     1       2.837   4.085  18.662  0.00  0.00    +0.000 A 
ATOM      9  C   UNL     1       2.488   5.450  19.012  0.00  0.00    +0.000 A 
ATOM     10  C   UNL     1       3.713   3.617  17.530  0.00  0.00    +0.000 C 
ATOM     11  C   UNL     1       3.681   2.083  17.346  0.00  0.00    +0.000 C 
ATOM     12  C   UNL     1       3.682   1.320  18.678  0.00  0.00    +0.000 C 
ATOM     13  C   UNL     1       2.460   1.691  19.521  0.00  0.00    +0.000 C 
ENDROOT
BRANCH   3  14
ATOM     14  C   UNL     1       1.071   8.930  20.890  0.00  0.00    +0.000 A 
ATOM     15  C   UNL     1       0.516   8.930  22.181  0.00  0.00    +0.000 A 
ATOM     16  C   UNL     1       0.056  10.116  22.728  0.00  0.00    +0.000 A 
ATOM     17  N   UNL     1       0.117  11.304  22.093  0.00  0.00    +0.000 NA
ATOM     18  C   UNL     1       0.651  11.300  20.855  0.00  0.00    +0.000 A 
ATOM     19  C   UNL     1       1.134  10.162  20.225  0.00  0.00    +0.000 A 
ENDBRANCH   3  14
BRANCH   1  20
ATOM     20  O   UNL     1       3.309   6.946  17.219  0.00  0.00    +0.000 OA
BRANCH  20  21
ATOM     21  C   UNL     1       4.462   7.805  17.401  0.00  0.00    +0.000 C 
BRANCH  21  22
ATOM     22  C   UNL     1       5.824   7.069  17.482  0.00  0.00    +0.000 C 
BRANCH  22  23
ATOM     23  C   UNL     1       5.976   5.972  16.423  0.00  0.00    +0.000 A 
ATOM     24  C   UNL     1       6.851   4.898  16.674  0.00  0.00    +0.000 A 
ATOM     25  C   UNL     1       6.998   3.854  15.755  0.00  0.00    +0.000 A 
ATOM     26  C   UNL     1       6.271   3.854  14.568  0.00  0.00    +0.000 A 
ATOM     27  C   UNL     1       5.409   4.910  14.288  0.00  0.00    +0.000 A 
ATOM     28  C   UNL     1       5.271   5.960  15.203  0.00  0.00    +0.000 A 
ENDBRANCH  22  23
BRANCH  22  29
ATOM     29  N   UNL     1       6.951   8.011  17.394  0.00  0.00    +0.000 NA
ATOM     30  H   UNL     1       6.646   8.919  17.743  0.00  0.00    +0.000 HD
ATOM     31  H   UNL     1       7.195   8.148  16.415  0.00  0.00    +0.000 HD
ENDBRANCH  22  29
ENDBRANCH  21  22
ENDBRANCH  20  21
ENDBRANCH   1  20
TORSDOF 6
ENDMDL
MODEL 9
REMARK VINA RESULT:      -6.8      3.448      7.673
REMARK  Name = 
REMARK  6 active torsions:
REMARK  status: ('A' for Active; 'I' for Inactive)
REMARK    1  A    between atoms: N_1  and  C_2
REMARK    2  A    between atoms: C_2  and  C_3
REMARK    3  A    between atoms: C_2  and  C_24
REMARK    4  A    between atoms: C_3  and  O_4
REMARK    5  A    between atoms: O_4  and  C_5
REMARK    6  A    between atoms: C_7  and  C_8
REMARK                            x       y       z     vdW  Elec       q    Type
REMARK                         _______ _______ _______ _____ _____    ______ ____
ROOT
ATOM      1  C   UNL     1       0.846  10.426  19.189  0.00  0.00    +0.000 A 
ATOM      2  N   UNL     1       1.515   9.301  18.835  0.00  0.00    +0.000 NA
ATOM      3  C   UNL     1       1.632   8.283  19.696  0.00  0.00    +0.000 A 
ATOM      4  N   UNL     1       1.105   8.256  20.918  0.00  0.00    +0.000 NA
ATOM      5  C   UNL     1       0.398   9.353  21.225  0.00  0.00    +0.000 A 
ATOM      6  S   UNL     1      -0.340   9.450  22.752  0.00  0.00    +0.000 S 
ATOM      7  C   UNL     1      -1.008  10.963  22.390  0.00  0.00    +0.000 A 
ATOM      8  C   UNL     1      -0.660  11.427  21.130  0.00  0.00    +0.000 A 
ATOM      9  C   UNL     1       0.191  10.479  20.433  0.00  0.00    +0.000 A 
ATOM     10  C   UNL     1      -1.208  12.731  20.612  0.00  0.00    +0.000 C 
ATOM     11  C   UNL     1      -1.899  13.566  21.713  0.00  0.00    +0.000 C 
ATOM     12  C   UNL     1      -2.739  12.712  22.674  0.00  0.00    +0.000 C 
ATOM     13  C   UNL     1      -1.868  11.674  23.385  0.00  0.00    +0.000 C 
ENDROOT
BRANCH   3  14
ATOM     14  C   UNL     1       2.445   7.133  19.266  0.00  0.00    +0.000 A 
ATOM     15  C   UNL     1       3.172   7.155  18.064  0.00  0.00    +0.000 A 
ATOM     16  C   UNL     1       3.923   6.050  17.697  0.00  0.00    +0.000 A 
ATOM     17  N   UNL     1       4.013   4.929  18.441  0.00  0.00    +0.000 NA
ATOM     18  C   UNL     1       3.314   4.912  19.594  0.00  0.00    +0.000 A 
ATOM     19  C   UNL     1       2.534   5.969  20.041  0.00  0.00    +0.000 A 
ENDBRANCH   3  14
BRANCH   1  20
ATOM     20  O   UNL     1       0.908  11.505  18.297  0.00  0.00    +0.000 OA
BRANCH  20  21
ATOM     21  C   UNL     1       2.264  12.018  18.288  0.00  0.00    +0.000 C 
BRANCH  21  22
ATOM     22  C   UNL     1       2.384  13.553  18.108  0.00  0.00    +0.000 C 
BRANCH  22  23
ATOM     23  C   UNL     1       1.919  14.340  19.337  0.00  0.00    +0.000 A 
ATOM     24  C   UNL     1       1.083  15.457  19.157  0.00  0.00    +0.000 A 
ATOM     25  C   UNL     1       0.603  16.188  20.249  0.00  0.00    +0.000 A 
ATOM     26  C   UNL     1       0.941  15.814  21.547  0.00  0.00    +0.000 A 
ATOM     27  C   UNL     1       1.777  14.721  21.754  0.00  0.00    +0.000 A 
ATOM     28  C   UNL     1       2.266  13.998  20.661  0.00  0.00    +0.000 A 
ENDBRANCH  22  23
BRANCH  22  29
ATOM     29  N   UNL     1       3.756  13.947  17.749  0.00  0.00    +0.000 NA
ATOM     30  H   UNL     1       4.410  13.368  18.274  0.00  0.00    +0.000 HD
ATOM     31  H   UNL     1       3.917  14.906  18.051  0.00  0.00    +0.000 HD
ENDBRANCH  22  29
ENDBRANCH  21  22
ENDBRANCH  20  21
ENDBRANCH   1  20
TORSDOF 6
ENDMDL
