MODEL 1
REMARK VINA RESULT:      -6.2      0.000      0.000
REMARK  Name = 
REMARK  7 active torsions:
REMARK  status: ('A' for Active; 'I' for Inactive)
REMARK    1  A    between atoms: C_1  and  O_2
REMARK    2  A    between atoms: O_2  and  C_3
REMARK    3  A    between atoms: C_3  and  C_4
REMARK    4  A    between atoms: C_4  and  N_5
REMARK    5  A    between atoms: C_8  and  C_9
REMARK    6  A    between atoms: C_9  and  N_10
REMARK    7  A    between atoms: N_10  and  C_11
REMARK                            x       y       z     vdW  Elec       q    Type
REMARK                         _______ _______ _______ _____ _____    ______ ____
ROOT
ATOM      1  N   UNL     1       3.465   5.203  20.049  0.00  0.00    +0.000 NA
ATOM      2  C   UNL     1       2.563   6.103  19.306  0.00  0.00    +0.000 C 
ATOM      3  C   UNL     1       2.909   5.871  17.846  0.00  0.00    +0.000 C 
ATOM      4  C   UNL     1       4.430   5.766  17.883  0.00  0.00    +0.000 C 
ATOM      5  C   UNL     1       4.738   5.264  19.305  0.00  0.00    +0.000 C 
ENDROOT
BRANCH   1   6
ATOM      6  C   UNL     1       2.898   3.838  20.108  0.00  0.00    +0.000 C 
BRANCH   6   7
ATOM      7  C   UNL     1       1.497   3.755  20.734  0.00  0.00    +0.000 C 
BRANCH   7   9
ATOM      8  C   UNL     1       1.056   2.694  18.674  0.00  0.00    +0.000 C 
ATOM      9  O   UNL     1       0.756   2.730  20.064  0.00  0.00    +0.000 OA
ENDBRANCH   7   9
ENDBRANCH   6   7
ENDBRANCH   1   6
BRANCH   4  10
ATOM     10  C   UNL     1       5.040   4.840  16.827  0.00  0.00    +0.000 C 
BRANCH  10  11
ATOM     11  N   UNL     1       6.196   5.371  16.102  0.00  0.00    +0.000 N 
ATOM     12  C   UNL     1       7.264   6.089  16.789  0.00  0.00    +0.000 C 
ATOM     13  C   UNL     1       6.486   4.955  14.803  0.00  0.00    +0.000 A 
ATOM     14  C   UNL     1       5.719   4.014  14.132  0.00  0.00    +0.000 A 
ATOM     15  C   UNL     1       6.093   3.670  12.850  0.00  0.00    +0.000 A 
ATOM     16  N   UNL     1       7.153   4.193  12.220  0.00  0.00    +0.000 NA
ATOM     17  C   UNL     1       7.837   5.091  12.934  0.00  0.00    +0.000 A 
ATOM     18  N   UNL     1       7.555   5.494  14.183  0.00  0.00    +0.000 NA
ENDBRANCH  10  11
ENDBRANCH   4  10
TORSDOF 5
ENDMDL
MODEL 2
REMARK VINA RESULT:      -6.1      2.802      6.938
REMARK  Name = 
REMARK  7 active torsions:
REMARK  status: ('A' for Active; 'I' for Inactive)
REMARK    1  A    between atoms: C_1  and  O_2
REMARK    2  A    between atoms: O_2  and  C_3
REMARK    3  A    between atoms: C_3  and  C_4
REMARK    4  A    between atoms: C_4  and  N_5
REMARK    5  A    between atoms: C_8  and  C_9
REMARK    6  A    between atoms: C_9  and  N_10
REMARK    7  A    between atoms: N_10  and  C_11
REMARK                            x       y       z     vdW  Elec       q    Type
REMARK                         _______ _______ _______ _____ _____    ______ ____
ROOT
ATOM      1  N   UNL     1       6.552   5.833  15.666  0.00  0.00    +0.000 NA
ATOM      2  C   UNL     1       7.122   5.809  17.026  0.00  0.00    +0.000 C 
ATOM      3  C   UNL     1       6.232   4.848  17.796  0.00  0.00    +0.000 C 
ATOM      4  C   UNL     1       4.842   5.211  17.287  0.00  0.00    +0.000 C 
ATOM      5  C   UNL     1       5.093   5.781  15.879  0.00  0.00    +0.000 C 
ENDROOT
BRANCH   1   6
ATOM      6  C   UNL     1       7.060   4.693  14.873  0.00  0.00    +0.000 C 
BRANCH   6   7
ATOM      7  C   UNL     1       6.009   4.020  13.977  0.00  0.00    +0.000 C 
BRANCH   7   9
ATOM      8  C   UNL     1       5.902   2.780  11.974  0.00  0.00    +0.000 C 
ATOM      9  O   UNL     1       6.578   3.813  12.680  0.00  0.00    +0.000 OA
ENDBRANCH   7   9
ENDBRANCH   6   7
ENDBRANCH   1   6
BRANCH   4  10
ATOM     10  C   UNL     1       3.845   4.049  17.242  0.00  0.00    +0.000 C 
BRANCH  10  11
ATOM     11  N   UNL     1       2.686   4.166  18.129  0.00  0.00    +0.000 N 
ATOM     12  C   UNL     1       1.385   4.597  17.632  0.00  0.00    +0.000 C 
ATOM     13  C   UNL     1       2.686   3.582  19.396  0.00  0.00    +0.000 A 
ATOM     14  C   UNL     1       3.761   2.852  19.882  0.00  0.00    +0.000 A 
ATOM     15  C   UNL     1       3.658   2.315  21.148  0.00  0.00    +0.000 A 
ATOM     16  N   UNL     1       2.581   2.459  21.931  0.00  0.00    +0.000 NA
ATOM     17  C   UNL     1       1.592   3.176  21.389  0.00  0.00    +0.000 A 
ATOM     18  N   UNL     1       1.595   3.741  20.172  0.00  0.00    +0.000 NA
ENDBRANCH  10  11
ENDBRANCH   4  10
TORSDOF 5
ENDMDL
MODEL 3
REMARK VINA RESULT:      -6.0      1.481      1.727
REMARK  Name = 
REMARK  7 active torsions:
REMARK  status: ('A' for Active; 'I' for Inactive)
REMARK    1  A    between atoms: C_1  and  O_2
REMARK    2  A    between atoms: O_2  and  C_3
REMARK    3  A    between atoms: C_3  and  C_4
REMARK    4  A    between atoms: C_4  and  N_5
REMARK    5  A    between atoms: C_8  and  C_9
REMARK    6  A    between atoms: C_9  and  N_10
REMARK    7  A    between atoms: N_10  and  C_11
REMARK                            x       y       z     vdW  Elec       q    Type
REMARK                         _______ _______ _______ _____ _____    ______ ____
ROOT
ATOM      1  N   UNL     1       2.142   5.210  19.662  0.00  0.00    +0.000 NA
ATOM      2  C   UNL     1       2.369   6.530  19.044  0.00  0.00    +0.000 C 
ATOM      3  C   UNL     1       3.687   6.383  18.303  0.00  0.00    +0.000 C 
ATOM      4  C   UNL     1       4.523   5.566  19.282  0.00  0.00    +0.000 C 
ATOM      5  C   UNL     1       3.484   4.772  20.094  0.00  0.00    +0.000 C 
ENDROOT
BRANCH   1   6
ATOM      6  C   UNL     1       1.519   4.285  18.691  0.00  0.00    +0.000 C 
BRANCH   6   7
ATOM      7  C   UNL     1       1.738   2.795  18.996  0.00  0.00    +0.000 C 
BRANCH   7   9
ATOM      8  C   UNL     1       3.573   1.552  18.192  0.00  0.00    +0.000 C 
ATOM      9  O   UNL     1       2.342   2.178  17.854  0.00  0.00    +0.000 OA
ENDBRANCH   7   9
ENDBRANCH   6   7
ENDBRANCH   1   6
BRANCH   4  10
ATOM     10  C   UNL     1       5.548   4.632  18.634  0.00  0.00    +0.000 C 
BRANCH  10  11
ATOM     11  N   UNL     1       6.481   5.259  17.696  0.00  0.00    +0.000 N 
ATOM     12  C   UNL     1       7.641   6.011  18.160  0.00  0.00    +0.000 C 
ATOM     13  C   UNL     1       6.488   4.911  16.344  0.00  0.00    +0.000 A 
ATOM     14  C   UNL     1       5.635   3.953  15.816  0.00  0.00    +0.000 A 
ATOM     15  C   UNL     1       5.723   3.683  14.467  0.00  0.00    +0.000 A 
ATOM     16  N   UNL     1       6.584   4.292  13.642  0.00  0.00    +0.000 NA
ATOM     17  C   UNL     1       7.369   5.201  14.229  0.00  0.00    +0.000 A 
ATOM     18  N   UNL     1       7.359   5.538  15.529  0.00  0.00    +0.000 NA
ENDBRANCH  10  11
ENDBRANCH   4  10
TORSDOF 5
ENDMDL
MODEL 4
REMARK VINA RESULT:      -6.0      1.010      1.020
REMARK  Name = 
REMARK  7 active torsions:
REMARK  status: ('A' for Active; 'I' for Inactive)
REMARK    1  A    between atoms: C_1  and  O_2
REMARK    2  A    between atoms: O_2  and  C_3
REMARK    3  A    between atoms: C_3  and  C_4
REMARK    4  A    between atoms: C_4  and  N_5
REMARK    5  A    between atoms: C_8  and  C_9
REMARK    6  A    between atoms: C_9  and  N_10
REMARK    7  A    between atoms: N_10  and  C_11
REMARK                            x       y       z     vdW  Elec       q    Type
REMARK                         _______ _______ _______ _____ _____    ______ ____
ROOT
ATOM      1  N   UNL     1       3.026   5.002  19.898  0.00  0.00    +0.000 NA
ATOM      2  C   UNL     1       2.732   6.379  19.459  0.00  0.00    +0.000 C 
ATOM      3  C   UNL     1       3.251   6.444  18.033  0.00  0.00    +0.000 C 
ATOM      4  C   UNL     1       4.560   5.668  18.126  0.00  0.00    +0.000 C 
ATOM      5  C   UNL     1       4.342   4.700  19.302  0.00  0.00    +0.000 C 
ENDROOT
BRANCH   1   6
ATOM      6  C   UNL     1       1.964   4.078  19.446  0.00  0.00    +0.000 C 
BRANCH   6   7
ATOM      7  C   UNL     1       2.160   2.617  19.878  0.00  0.00    +0.000 C 
BRANCH   7   9
ATOM      8  C   UNL     1       3.662   1.493  18.451  0.00  0.00    +0.000 C 
ATOM      9  O   UNL     1       2.299   1.807  18.707  0.00  0.00    +0.000 OA
ENDBRANCH   7   9
ENDBRANCH   6   7
ENDBRANCH   1   6
BRANCH   4  10
ATOM     10  C   UNL     1       4.955   4.912  16.854  0.00  0.00    +0.000 C 
BRANCH  10  11
ATOM     11  N   UNL     1       6.136   5.415  16.152  0.00  0.00    +0.000 N 
ATOM     12  C   UNL     1       7.187   6.146  16.851  0.00  0.00    +0.000 C 
ATOM     13  C   UNL     1       6.465   4.960  14.874  0.00  0.00    +0.000 A 
ATOM     14  C   UNL     1       5.712   4.005  14.206  0.00  0.00    +0.000 A 
ATOM     15  C   UNL     1       6.124   3.623  12.947  0.00  0.00    +0.000 A 
ATOM     16  N   UNL     1       7.206   4.121  12.336  0.00  0.00    +0.000 NA
ATOM     17  C   UNL     1       7.874   5.036  13.046  0.00  0.00    +0.000 A 
ATOM     18  N   UNL     1       7.556   5.476  14.274  0.00  0.00    +0.000 NA
ENDBRANCH  10  11
ENDBRANCH   4  10
TORSDOF 5
ENDMDL
MODEL 5
REMARK VINA RESULT:      -5.9      0.777      1.001
REMARK  Name = 
REMARK  7 active torsions:
REMARK  status: ('A' for Active; 'I' for Inactive)
REMARK    1  A    between atoms: C_1  and  O_2
REMARK    2  A    between atoms: O_2  and  C_3
REMARK    3  A    between atoms: C_3  and  C_4
REMARK    4  A    between atoms: C_4  and  N_5
REMARK    5  A    between atoms: C_8  and  C_9
REMARK    6  A    between atoms: C_9  and  N_10
REMARK    7  A    between atoms: N_10  and  C_11
REMARK                            x       y       z     vdW  Elec       q    Type
REMARK                         _______ _______ _______ _____ _____    ______ ____
ROOT
ATOM      1  N   UNL     1       3.201   4.447  19.673  0.00  0.00    +0.000 NA
ATOM      2  C   UNL     1       2.719   5.764  19.217  0.00  0.00    +0.000 C 
ATOM      3  C   UNL     1       3.216   5.878  17.786  0.00  0.00    +0.000 C 
ATOM      4  C   UNL     1       4.620   5.291  17.880  0.00  0.00    +0.000 C 
ATOM      5  C   UNL     1       4.543   4.320  19.071  0.00  0.00    +0.000 C 
ENDROOT
BRANCH   1   6
ATOM      6  C   UNL     1       2.274   3.380  19.241  0.00  0.00    +0.000 C 
BRANCH   6   7
ATOM      7  C   UNL     1       0.911   3.391  19.951  0.00  0.00    +0.000 C 
BRANCH   7   9
ATOM      8  C   UNL     1       2.011   2.330  21.747  0.00  0.00    +0.000 C 
ATOM      9  O   UNL     1       1.131   3.379  21.365  0.00  0.00    +0.000 OA
ENDBRANCH   7   9
ENDBRANCH   6   7
ENDBRANCH   1   6
BRANCH   4  10
ATOM     10  C   UNL     1       5.108   4.577  16.616  0.00  0.00    +0.000 C 
BRANCH  10  11
ATOM     11  N   UNL     1       6.238   5.201  15.925  0.00  0.00    +0.000 N 
ATOM     12  C   UNL     1       7.261   5.944  16.651  0.00  0.00    +0.000 C 
ATOM     13  C   UNL     1       6.558   4.858  14.611  0.00  0.00    +0.000 A 
ATOM     14  C   UNL     1       5.847   3.907  13.893  0.00  0.00    +0.000 A 
ATOM     15  C   UNL     1       6.247   3.640  12.601  0.00  0.00    +0.000 A 
ATOM     16  N   UNL     1       7.281   4.246  12.003  0.00  0.00    +0.000 NA
ATOM     17  C   UNL     1       7.911   5.148  12.762  0.00  0.00    +0.000 A 
ATOM     18  N   UNL     1       7.600   5.481  14.024  0.00  0.00    +0.000 NA
ENDBRANCH  10  11
ENDBRANCH   4  10
TORSDOF 5
ENDMDL
MODEL 6
REMARK VINA RESULT:      -5.9      3.071      7.012
REMARK  Name = 
REMARK  7 active torsions:
REMARK  status: ('A' for Active; 'I' for Inactive)
REMARK    1  A    between atoms: C_1  and  O_2
REMARK    2  A    between atoms: O_2  and  C_3
REMARK    3  A    between atoms: C_3  and  C_4
REMARK    4  A    between atoms: C_4  and  N_5
REMARK    5  A    between atoms: C_8  and  C_9
REMARK    6  A    between atoms: C_9  and  N_10
REMARK    7  A    between atoms: N_10  and  C_11
REMARK                            x       y       z     vdW  Elec       q    Type
REMARK                         _______ _______ _______ _____ _____    ______ ____
ROOT
ATOM      1  N   UNL     1       7.147   5.256  16.722  0.00  0.00    +0.000 NA
ATOM      2  C   UNL     1       6.980   4.936  15.292  0.00  0.00    +0.000 C 
ATOM      3  C   UNL     1       5.504   4.609  15.144  0.00  0.00    +0.000 C 
ATOM      4  C   UNL     1       5.221   3.797  16.404  0.00  0.00    +0.000 C 
ATOM      5  C   UNL     1       6.265   4.300  17.418  0.00  0.00    +0.000 C 
ENDROOT
BRANCH   1   6
ATOM      6  C   UNL     1       6.785   6.666  16.981  0.00  0.00    +0.000 C 
BRANCH   6   7
ATOM      7  C   UNL     1       7.777   7.428  17.873  0.00  0.00    +0.000 C 
BRANCH   7   9
ATOM      8  C   UNL     1       8.569   9.606  18.308  0.00  0.00    +0.000 C 
ATOM      9  O   UNL     1       7.921   8.759  17.368  0.00  0.00    +0.000 OA
ENDBRANCH   7   9
ENDBRANCH   6   7
ENDBRANCH   1   6
BRANCH   4  10
ATOM     10  C   UNL     1       3.801   3.937  16.957  0.00  0.00    +0.000 C 
BRANCH  10  11
ATOM     11  N   UNL     1       3.404   2.945  17.958  0.00  0.00    +0.000 N 
ATOM     12  C   UNL     1       3.775   1.540  17.830  0.00  0.00    +0.000 C 
ATOM     13  C   UNL     1       2.936   3.334  19.214  0.00  0.00    +0.000 A 
ATOM     14  C   UNL     1       2.833   4.665  19.592  0.00  0.00    +0.000 A 
ATOM     15  C   UNL     1       2.359   4.942  20.857  0.00  0.00    +0.000 A 
ATOM     16  N   UNL     1       1.994   4.001  21.737  0.00  0.00    +0.000 NA
ATOM     17  C   UNL     1       2.123   2.746  21.294  0.00  0.00    +0.000 A 
ATOM     18  N   UNL     1       2.569   2.373  20.085  0.00  0.00    +0.000 NA
ENDBRANCH  10  11
ENDBRANCH   4  10
TORSDOF 5
ENDMDL
MODEL 7
REMARK VINA RESULT:      -5.9      2.624      6.346
REMARK  Name = 
REMARK  7 active torsions:
REMARK  status: ('A' for Active; 'I' for Inactive)
REMARK    1  A    between atoms: C_1  and  O_2
REMARK    2  A    between atoms: O_2  and  C_3
REMARK    3  A    between atoms: C_3  and  C_4
REMARK    4  A    between atoms: C_4  and  N_5
REMARK    5  A    between atoms: C_8  and  C_9
REMARK    6  A    between atoms: C_9  and  N_10
REMARK    7  A    between atoms: N_10  and  C_11
REMARK                            x       y       z     vdW  Elec       q    Type
REMARK                         _______ _______ _______ _____ _____    ______ ____
ROOT
ATOM      1  N   UNL     1       7.241   5.644  16.749  0.00  0.00    +0.000 NA
ATOM      2  C   UNL     1       7.383   5.554  18.214  0.00  0.00    +0.000 C 
ATOM      3  C   UNL     1       5.957   5.481  18.732  0.00  0.00    +0.000 C 
ATOM      4  C   UNL     1       5.234   6.489  17.844  0.00  0.00    +0.000 C 
ATOM      5  C   UNL     1       6.062   6.510  16.547  0.00  0.00    +0.000 C 
ENDROOT
BRANCH   1   6
ATOM      6  C   UNL     1       7.072   4.297  16.163  0.00  0.00    +0.000 C 
BRANCH   6   7
ATOM      7  C   UNL     1       5.894   4.167  15.186  0.00  0.00    +0.000 C 
BRANCH   7   9
ATOM      8  C   UNL     1       7.246   4.785  13.355  0.00  0.00    +0.000 C 
ATOM      9  O   UNL     1       6.401   3.782  13.904  0.00  0.00    +0.000 OA
ENDBRANCH   7   9
ENDBRANCH   6   7
ENDBRANCH   1   6
BRANCH   4  10
ATOM     10  C   UNL     1       3.766   6.163  17.558  0.00  0.00    +0.000 C 
BRANCH  10  11
ATOM     11  N   UNL     1       2.934   5.879  18.728  0.00  0.00    +0.000 N 
ATOM     12  C   UNL     1       2.451   6.946  19.598  0.00  0.00    +0.000 C 
ATOM     13  C   UNL     1       2.311   4.641  18.887  0.00  0.00    +0.000 A 
ATOM     14  C   UNL     1       2.427   3.622  17.953  0.00  0.00    +0.000 A 
ATOM     15  C   UNL     1       1.769   2.436  18.206  0.00  0.00    +0.000 A 
ATOM     16  N   UNL     1       1.028   2.216  19.299  0.00  0.00    +0.000 NA
ATOM     17  C   UNL     1       0.969   3.247  20.148  0.00  0.00    +0.000 A 
ATOM     18  N   UNL     1       1.571   4.436  19.996  0.00  0.00    +0.000 NA
ENDBRANCH  10  11
ENDBRANCH   4  10
TORSDOF 5
ENDMDL
MODEL 8
REMARK VINA RESULT:      -5.9      1.454      1.710
REMARK  Name = 
REMARK  7 active torsions:
REMARK  status: ('A' for Active; 'I' for Inactive)
REMARK    1  A    between atoms: C_1  and  O_2
REMARK    2  A    between atoms: O_2  and  C_3
REMARK    3  A    between atoms: C_3  and  C_4
REMARK    4  A    between atoms: C_4  and  N_5
REMARK    5  A    between atoms: C_8  and  C_9
REMARK    6  A    between atoms: C_9  and  N_10
REMARK    7  A    between atoms: N_10  and  C_11
REMARK                            x       y       z     vdW  Elec       q    Type
REMARK                         _______ _______ _______ _____ _____    ______ ____
ROOT
ATOM      1  N   UNL     1       2.014   4.192  19.112  0.00  0.00    +0.000 NA
ATOM      2  C   UNL     1       1.637   4.169  17.687  0.00  0.00    +0.000 C 
ATOM      3  C   UNL     1       2.939   3.904  16.951  0.00  0.00    +0.000 C 
ATOM      4  C   UNL     1       3.932   4.766  17.722  0.00  0.00    +0.000 C 
ATOM      5  C   UNL     1       3.326   4.867  19.133  0.00  0.00    +0.000 C 
ENDROOT
BRANCH   1   6
ATOM      6  C   UNL     1       2.066   2.817  19.654  0.00  0.00    +0.000 C 
BRANCH   6   7
ATOM      7  C   UNL     1       3.278   2.529  20.553  0.00  0.00    +0.000 C 
BRANCH   7   9
ATOM      8  C   UNL     1       1.434   2.488  22.022  0.00  0.00    +0.000 C 
ATOM      9  O   UNL     1       2.851   2.550  21.919  0.00  0.00    +0.000 OA
ENDBRANCH   7   9
ENDBRANCH   6   7
ENDBRANCH   1   6
BRANCH   4  10
ATOM     10  C   UNL     1       5.361   4.218  17.773  0.00  0.00    +0.000 C 
BRANCH  10  11
ATOM     11  N   UNL     1       6.363   4.975  17.022  0.00  0.00    +0.000 N 
ATOM     12  C   UNL     1       7.410   5.734  17.696  0.00  0.00    +0.000 C 
ATOM     13  C   UNL     1       6.557   4.760  15.657  0.00  0.00    +0.000 A 
ATOM     14  C   UNL     1       5.834   3.818  14.940  0.00  0.00    +0.000 A 
ATOM     15  C   UNL     1       6.104   3.682  13.594  0.00  0.00    +0.000 A 
ATOM     16  N   UNL     1       7.023   4.408  12.945  0.00  0.00    +0.000 NA
ATOM     17  C   UNL     1       7.674   5.293  13.706  0.00  0.00    +0.000 A 
ATOM     18  N   UNL     1       7.484   5.502  15.018  0.00  0.00    +0.000 NA
ENDBRANCH  10  11
ENDBRANCH   4  10
TORSDOF 5
ENDMDL
MODEL 9
REMARK VINA RESULT:      -5.8      2.189      3.570
REMARK  Name = 
REMARK  7 active torsions:
REMARK  status: ('A' for Active; 'I' for Inactive)
REMARK    1  A    between atoms: C_1  and  O_2
REMARK    2  A    between atoms: O_2  and  C_3
REMARK    3  A    between atoms: C_3  and  C_4
REMARK    4  A    between atoms: C_4  and  N_5
REMARK    5  A    between atoms: C_8  and  C_9
REMARK    6  A    between atoms: C_9  and  N_10
REMARK    7  A    between atoms: N_10  and  C_11
REMARK                            x       y       z     vdW  Elec       q    Type
REMARK                         _______ _______ _______ _____ _____    ______ ____
ROOT
ATOM      1  N   UNL     1       2.039   4.546  18.932  0.00  0.00    +0.000 NA
ATOM      2  C   UNL     1       1.502   3.284  18.388  0.00  0.00    +0.000 C 
ATOM      3  C   UNL     1       2.680   2.645  17.673  0.00  0.00    +0.000 C 
ATOM      4  C   UNL     1       3.340   3.841  16.995  0.00  0.00    +0.000 C 
ATOM      5  C   UNL     1       2.954   5.037  17.883  0.00  0.00    +0.000 C 
ENDROOT
BRANCH   1   6
ATOM      6  C   UNL     1       2.719   4.303  20.222  0.00  0.00    +0.000 C 
BRANCH   6   7
ATOM      7  C   UNL     1       1.862   3.576  21.270  0.00  0.00    +0.000 C 
BRANCH   7   9
ATOM      8  C   UNL     1       3.734   2.151  21.113  0.00  0.00    +0.000 C 
ATOM      9  O   UNL     1       2.680   2.617  21.947  0.00  0.00    +0.000 OA
ENDBRANCH   7   9
ENDBRANCH   6   7
ENDBRANCH   1   6
BRANCH   4  10
ATOM     10  C   UNL     1       4.859   3.737  16.837  0.00  0.00    +0.000 C 
BRANCH  10  11
ATOM     11  N   UNL     1       5.539   4.953  16.387  0.00  0.00    +0.000 N 
ATOM     12  C   UNL     1       5.090   5.688  15.210  0.00  0.00    +0.000 C 
ATOM     13  C   UNL     1       6.432   5.630  17.219  0.00  0.00    +0.000 A 
ATOM     14  C   UNL     1       6.714   5.210  18.510  0.00  0.00    +0.000 A 
ATOM     15  C   UNL     1       7.610   5.953  19.250  0.00  0.00    +0.000 A 
ATOM     16  N   UNL     1       8.220   7.053  18.791  0.00  0.00    +0.000 NA
ATOM     17  C   UNL     1       7.895   7.388  17.539  0.00  0.00    +0.000 A 
ATOM     18  N   UNL     1       7.039   6.734  16.739  0.00  0.00    +0.000 NA
ENDBRANCH  10  11
ENDBRANCH   4  10
TORSDOF 5
ENDMDL
