MODEL 1
REMARK VINA RESULT:      -7.6      0.000      0.000
REMARK  Name = 
REMARK  6 active torsions:
REMARK  status: ('A' for Active; 'I' for Inactive)
REMARK    1  A    between atoms: C_1  and  C_2
REMARK    2  A    between atoms: N_4  and  C_5
REMARK    3  A    between atoms: N_12  and  C_13
REMARK    4  A    between atoms: C_16  and  C_17
REMARK    5  A    between atoms: C_17  and  C_18
REMARK    6  A    between atoms: C_17  and  C_19
REMARK                            x       y       z     vdW  Elec       q    Type
REMARK                         _______ _______ _______ _____ _____    ______ ____
ROOT
ATOM      1  C   UNL     1       3.528   5.522  18.071  0.00  0.00    +0.000 A 
ATOM      2  C   UNL     1       3.296   5.006  19.346  0.00  0.00    +0.000 A 
ATOM      3  N   UNL     1       2.657   5.683  20.341  0.00  0.00    +0.000 NA
ATOM      4  C   UNL     1       2.208   6.917  20.045  0.00  0.00    +0.000 A 
ATOM      5  N   UNL     1       1.459   7.573  20.996  0.00  0.00    +0.000 N 
ATOM      6  C   UNL     1       0.858   8.778  20.809  0.00  0.00    +0.000 A 
ATOM      7  O   UNL     1       0.100   9.194  21.683  0.00  0.00    +0.000 OA
ATOM      8  N   UNL     1       1.136   9.453  19.620  0.00  0.00    +0.000 N 
ATOM      9  C   UNL     1       1.845   8.844  18.582  0.00  0.00    +0.000 A 
ATOM     10  O   UNL     1       2.020   9.280  17.447  0.00  0.00    +0.000 OA
ATOM     11  C   UNL     1       2.416   7.520  18.828  0.00  0.00    +0.000 A 
ATOM     12  C   UNL     1       3.109   6.826  17.830  0.00  0.00    +0.000 A 
ATOM     13  H   UNL     1       1.277   7.081  21.859  0.00  0.00    +0.000 HD
ENDROOT
BRANCH   8  14
ATOM     14  C   UNL     1       0.513  10.809  19.457  0.00  0.00    +0.000 C 
ATOM     15  C   UNL     1      -1.030  10.704  19.332  0.00  0.00    +0.000 C 
ATOM     16  C   UNL     1      -1.727  12.065  19.288  0.00  0.00    +0.000 C 
ATOM     17  C   UNL     1      -1.382  12.933  20.508  0.00  0.00    +0.000 C 
ATOM     18  C   UNL     1       0.136  13.171  20.446  0.00  0.00    +0.000 C 
ATOM     19  C   UNL     1       0.910  11.861  20.522  0.00  0.00    +0.000 C 
BRANCH  17  20
ATOM     20  C   UNL     1      -1.877  12.312  21.855  0.00  0.00    +0.000 C 
ATOM     21  C   UNL     1      -1.169  12.912  23.075  0.00  0.00    +0.000 C 
ATOM     22  C   UNL     1      -3.391  12.466  22.036  0.00  0.00    +0.000 C 
ENDBRANCH  17  20
ENDBRANCH   8  14
BRANCH   1  26
ATOM     23  C   UNL     1       5.789   3.813  15.594  0.00  0.00    +0.000 C 
ATOM     24  C   UNL     1       5.480   4.629  16.821  0.00  0.00    +0.000 C 
ATOM     25  O   UNL     1       6.371   5.049  17.553  0.00  0.00    +0.000 OA
ATOM     26  N   UNL     1       4.124   4.822  17.002  0.00  0.00    +0.000 N 
ATOM     27  H   UNL     1       3.504   4.302  16.396  0.00  0.00    +0.000 HD
ENDBRANCH   1  26
TORSDOF 3
ENDMDL
MODEL 2
REMARK VINA RESULT:      -7.5      2.285      7.885
REMARK  Name = 
REMARK  6 active torsions:
REMARK  status: ('A' for Active; 'I' for Inactive)
REMARK    1  A    between atoms: C_1  and  C_2
REMARK    2  A    between atoms: N_4  and  C_5
REMARK    3  A    between atoms: N_12  and  C_13
REMARK    4  A    between atoms: C_16  and  C_17
REMARK    5  A    between atoms: C_17  and  C_18
REMARK    6  A    between atoms: C_17  and  C_19
REMARK                            x       y       z     vdW  Elec       q    Type
REMARK                         _______ _______ _______ _____ _____    ______ ____
ROOT
ATOM      1  C   UNL     1       1.322  11.217  18.873  0.00  0.00    +0.000 A 
ATOM      2  C   UNL     1       0.536  11.023  20.008  0.00  0.00    +0.000 A 
ATOM      3  N   UNL     1       0.390   9.826  20.644  0.00  0.00    +0.000 NA
ATOM      4  C   UNL     1       1.078   8.784  20.140  0.00  0.00    +0.000 A 
ATOM      5  N   UNL     1       1.037   7.594  20.832  0.00  0.00    +0.000 N 
ATOM      6  C   UNL     1       1.754   6.486  20.504  0.00  0.00    +0.000 A 
ATOM      7  O   UNL     1       1.742   5.532  21.281  0.00  0.00    +0.000 OA
ATOM      8  N   UNL     1       2.469   6.519  19.306  0.00  0.00    +0.000 N 
ATOM      9  C   UNL     1       2.604   7.696  18.567  0.00  0.00    +0.000 A 
ATOM     10  O   UNL     1       3.323   7.880  17.588  0.00  0.00    +0.000 OA
ATOM     11  C   UNL     1       1.852   8.871  19.009  0.00  0.00    +0.000 A 
ATOM     12  C   UNL     1       1.959  10.098  18.346  0.00  0.00    +0.000 A 
ATOM     13  H   UNL     1       0.504   7.577  21.690  0.00  0.00    +0.000 HD
ENDROOT
BRANCH   8  14
ATOM     14  C   UNL     1       3.204   5.265  18.929  0.00  0.00    +0.000 C 
ATOM     15  C   UNL     1       2.764   4.757  17.531  0.00  0.00    +0.000 C 
ATOM     16  C   UNL     1       3.571   3.553  17.044  0.00  0.00    +0.000 C 
ATOM     17  C   UNL     1       5.081   3.837  17.020  0.00  0.00    +0.000 C 
ATOM     18  C   UNL     1       5.483   4.125  18.476  0.00  0.00    +0.000 C 
ATOM     19  C   UNL     1       4.748   5.340  19.028  0.00  0.00    +0.000 C 
BRANCH  17  20
ATOM     20  C   UNL     1       5.470   4.969  16.014  0.00  0.00    +0.000 C 
ATOM     21  C   UNL     1       6.849   5.570  16.309  0.00  0.00    +0.000 C 
ATOM     22  C   UNL     1       5.444   4.480  14.561  0.00  0.00    +0.000 C 
ENDBRANCH  17  20
ENDBRANCH   8  14
BRANCH   1  26
ATOM     23  C   UNL     1       2.378  14.665  17.793  0.00  0.00    +0.000 C 
ATOM     24  C   UNL     1       2.319  13.487  18.730  0.00  0.00    +0.000 C 
ATOM     25  O   UNL     1       2.915  13.490  19.802  0.00  0.00    +0.000 OA
ATOM     26  N   UNL     1       1.546  12.454  18.236  0.00  0.00    +0.000 N 
ATOM     27  H   UNL     1       1.228  12.539  17.280  0.00  0.00    +0.000 HD
ENDBRANCH   1  26
TORSDOF 3
ENDMDL
MODEL 3
REMARK VINA RESULT:      -7.4      2.321      7.934
REMARK  Name = 
REMARK  6 active torsions:
REMARK  status: ('A' for Active; 'I' for Inactive)
REMARK    1  A    between atoms: C_1  and  C_2
REMARK    2  A    between atoms: N_4  and  C_5
REMARK    3  A    between atoms: N_12  and  C_13
REMARK    4  A    between atoms: C_16  and  C_17
REMARK    5  A    between atoms: C_17  and  C_18
REMARK    6  A    between atoms: C_17  and  C_19
REMARK                            x       y       z     vdW  Elec       q    Type
REMARK                         _______ _______ _______ _____ _____    ______ ____
ROOT
ATOM      1  C   UNL     1       0.686  11.701  19.818  0.00  0.00    +0.000 A 
ATOM      2  C   UNL     1       0.349  11.248  21.093  0.00  0.00    +0.000 A 
ATOM      3  N   UNL     1       0.494   9.959  21.512  0.00  0.00    +0.000 NA
ATOM      4  C   UNL     1       1.022   9.091  20.629  0.00  0.00    +0.000 A 
ATOM      5  N   UNL     1       1.285   7.811  21.066  0.00  0.00    +0.000 N 
ATOM      6  C   UNL     1       1.903   6.854  20.324  0.00  0.00    +0.000 A 
ATOM      7  O   UNL     1       2.209   5.797  20.873  0.00  0.00    +0.000 OA
ATOM      8  N   UNL     1       2.160   7.150  18.985  0.00  0.00    +0.000 N 
ATOM      9  C   UNL     1       1.971   8.435  18.471  0.00  0.00    +0.000 A 
ATOM     10  O   UNL     1       2.299   8.846  17.361  0.00  0.00    +0.000 OA
ATOM     11  C   UNL     1       1.355   9.436  19.342  0.00  0.00    +0.000 A 
ATOM     12  C   UNL     1       1.163  10.755  18.916  0.00  0.00    +0.000 A 
ATOM     13  H   UNL     1       1.080   7.603  22.033  0.00  0.00    +0.000 HD
ENDROOT
BRANCH   8  14
ATOM     14  C   UNL     1       2.787   6.060  18.165  0.00  0.00    +0.000 C 
ATOM     15  C   UNL     1       4.132   5.597  18.785  0.00  0.00    +0.000 C 
ATOM     16  C   UNL     1       4.752   4.402  18.058  0.00  0.00    +0.000 C 
ATOM     17  C   UNL     1       3.794   3.202  17.990  0.00  0.00    +0.000 C 
ATOM     18  C   UNL     1       2.577   3.676  17.179  0.00  0.00    +0.000 C 
ATOM     19  C   UNL     1       1.875   4.847  17.856  0.00  0.00    +0.000 C 
BRANCH  17  20
ATOM     20  C   UNL     1       3.437   2.629  19.401  0.00  0.00    +0.000 C 
ATOM     21  C   UNL     1       2.194   1.732  19.374  0.00  0.00    +0.000 C 
ATOM     22  C   UNL     1       4.602   1.842  20.012  0.00  0.00    +0.000 C 
ENDBRANCH  17  20
ENDBRANCH   8  14
BRANCH   1  26
ATOM     23  C   UNL     1       1.238  15.304  18.879  0.00  0.00    +0.000 C 
ATOM     24  C   UNL     1       1.628  13.971  19.460  0.00  0.00    +0.000 C 
ATOM     25  O   UNL     1       2.743  13.782  19.938  0.00  0.00    +0.000 OA
ATOM     26  N   UNL     1       0.612  13.039  19.380  0.00  0.00    +0.000 N 
ATOM     27  H   UNL     1      -0.202  13.297  18.839  0.00  0.00    +0.000 HD
ENDBRANCH   1  26
TORSDOF 3
ENDMDL
MODEL 4
REMARK VINA RESULT:      -7.3      1.871      8.408
REMARK  Name = 
REMARK  6 active torsions:
REMARK  status: ('A' for Active; 'I' for Inactive)
REMARK    1  A    between atoms: C_1  and  C_2
REMARK    2  A    between atoms: N_4  and  C_5
REMARK    3  A    between atoms: N_12  and  C_13
REMARK    4  A    between atoms: C_16  and  C_17
REMARK    5  A    between atoms: C_17  and  C_18
REMARK    6  A    between atoms: C_17  and  C_19
REMARK                            x       y       z     vdW  Elec       q    Type
REMARK                         _______ _______ _______ _____ _____    ______ ____
ROOT
ATOM      1  C   UNL     1      -0.337  10.983  20.532  0.00  0.00    +0.000 A 
ATOM      2  C   UNL     1       0.134  11.685  19.423  0.00  0.00    +0.000 A 
ATOM      3  N   UNL     1       1.050  11.198  18.540  0.00  0.00    +0.000 NA
ATOM      4  C   UNL     1       1.497   9.947  18.758  0.00  0.00    +0.000 A 
ATOM      5  N   UNL     1       2.335   9.391  17.817  0.00  0.00    +0.000 N 
ATOM      6  C   UNL     1       2.789   8.110  17.849  0.00  0.00    +0.000 A 
ATOM      7  O   UNL     1       3.415   7.688  16.878  0.00  0.00    +0.000 OA
ATOM      8  N   UNL     1       2.495   7.355  18.985  0.00  0.00    +0.000 N 
ATOM      9  C   UNL     1       1.615   7.821  19.965  0.00  0.00    +0.000 A 
ATOM     10  O   UNL     1       1.170   7.193  20.922  0.00  0.00    +0.000 OA
ATOM     11  C   UNL     1       1.115   9.190  19.840  0.00  0.00    +0.000 A 
ATOM     12  C   UNL     1       0.203   9.722  20.758  0.00  0.00    +0.000 A 
ATOM     13  H   UNL     1       2.554   9.952  17.006  0.00  0.00    +0.000 HD
ENDROOT
BRANCH   8  14
ATOM     14  C   UNL     1       3.056   5.963  19.030  0.00  0.00    +0.000 C 
ATOM     15  C   UNL     1       2.717   5.181  17.734  0.00  0.00    +0.000 C 
ATOM     16  C   UNL     1       3.370   3.800  17.674  0.00  0.00    +0.000 C 
ATOM     17  C   UNL     1       4.897   3.872  17.828  0.00  0.00    +0.000 C 
ATOM     18  C   UNL     1       5.156   4.462  19.224  0.00  0.00    +0.000 C 
ATOM     19  C   UNL     1       4.566   5.861  19.357  0.00  0.00    +0.000 C 
BRANCH  17  20
ATOM     20  C   UNL     1       5.589   4.655  16.665  0.00  0.00    +0.000 C 
ATOM     21  C   UNL     1       7.108   4.751  16.843  0.00  0.00    +0.000 C 
ATOM     22  C   UNL     1       5.288   4.033  15.297  0.00  0.00    +0.000 C 
ENDBRANCH  17  20
ENDBRANCH   8  14
BRANCH   1  26
ATOM     23  C   UNL     1      -2.505  11.930  23.460  0.00  0.00    +0.000 C 
ATOM     24  C   UNL     1      -1.296  11.323  22.798  0.00  0.00    +0.000 C 
ATOM     25  O   UNL     1      -0.398  10.804  23.454  0.00  0.00    +0.000 OA
ATOM     26  N   UNL     1      -1.334  11.434  21.421  0.00  0.00    +0.000 N 
ATOM     27  H   UNL     1      -2.070  12.006  21.029  0.00  0.00    +0.000 HD
ENDBRANCH   1  26
TORSDOF 3
ENDMDL
MODEL 5
REMARK VINA RESULT:      -7.3      2.243      7.996
REMARK  Name = 
REMARK  6 active torsions:
REMARK  status: ('A' for Active; 'I' for Inactive)
REMARK    1  A    between atoms: C_1  and  C_2
REMARK    2  A    between atoms: N_4  and  C_5
REMARK    3  A    between atoms: N_12  and  C_13
REMARK    4  A    between atoms: C_16  and  C_17
REMARK    5  A    between atoms: C_17  and  C_18
REMARK    6  A    between atoms: C_17  and  C_19
REMARK                            x       y       z     vdW  Elec       q    Type
REMARK                         _______ _______ _______ _____ _____    ______ ____
ROOT
ATOM      1  C   UNL     1       0.706  10.526  19.765  0.00  0.00    +0.000 A 
ATOM      2  C   UNL     1       0.055  10.080  20.914  0.00  0.00    +0.000 A 
ATOM      3  N   UNL     1       0.156   8.815  21.410  0.00  0.00    +0.000 NA
ATOM      4  C   UNL     1       0.962   7.966  20.745  0.00  0.00    +0.000 A 
ATOM      5  N   UNL     1       1.171   6.719  21.291  0.00  0.00    +0.000 N 
ATOM      6  C   UNL     1       2.031   5.791  20.790  0.00  0.00    +0.000 A 
ATOM      7  O   UNL     1       2.235   4.771  21.447  0.00  0.00    +0.000 OA
ATOM      8  N   UNL     1       2.633   6.074  19.564  0.00  0.00    +0.000 N 
ATOM      9  C   UNL     1       2.516   7.330  18.965  0.00  0.00    +0.000 A 
ATOM     10  O   UNL     1       3.116   7.738  17.973  0.00  0.00    +0.000 OA
ATOM     11  C   UNL     1       1.620   8.304  19.588  0.00  0.00    +0.000 A 
ATOM     12  C   UNL     1       1.473   9.597  19.071  0.00  0.00    +0.000 A 
ATOM     13  H   UNL     1       0.718   6.519  22.171  0.00  0.00    +0.000 HD
ENDROOT
BRANCH   8  14
ATOM     14  C   UNL     1       3.531   5.013  18.997  0.00  0.00    +0.000 C 
ATOM     15  C   UNL     1       3.143   4.676  17.533  0.00  0.00    +0.000 C 
ATOM     16  C   UNL     1       4.102   3.690  16.865  0.00  0.00    +0.000 C 
ATOM     17  C   UNL     1       5.557   4.184  16.895  0.00  0.00    +0.000 C 
ATOM     18  C   UNL     1       5.939   4.292  18.381  0.00  0.00    +0.000 C 
ATOM     19  C   UNL     1       5.050   5.287  19.116  0.00  0.00    +0.000 C 
BRANCH  17  20
ATOM     20  C   UNL     1       5.766   5.505  16.085  0.00  0.00    +0.000 C 
ATOM     21  C   UNL     1       7.023   6.268  16.519  0.00  0.00    +0.000 C 
ATOM     22  C   UNL     1       5.840   5.247  14.576  0.00  0.00    +0.000 C 
ENDBRANCH  17  20
ENDBRANCH   8  14
BRANCH   1  26
ATOM     23  C   UNL     1      -0.137  13.893  18.308  0.00  0.00    +0.000 C 
ATOM     24  C   UNL     1      -0.426  12.473  18.718  0.00  0.00    +0.000 C 
ATOM     25  O   UNL     1      -1.538  11.975  18.565  0.00  0.00    +0.000 OA
ATOM     26  N   UNL     1       0.674  11.845  19.268  0.00  0.00    +0.000 N 
ATOM     27  H   UNL     1       1.483  12.423  19.456  0.00  0.00    +0.000 HD
ENDBRANCH   1  26
TORSDOF 3
ENDMDL
MODEL 6
REMARK VINA RESULT:      -7.2      5.721      7.545
REMARK  Name = 
REMARK  6 active torsions:
REMARK  status: ('A' for Active; 'I' for Inactive)
REMARK    1  A    between atoms: C_1  and  C_2
REMARK    2  A    between atoms: N_4  and  C_5
REMARK    3  A    between atoms: N_12  and  C_13
REMARK    4  A    between atoms: C_16  and  C_17
REMARK    5  A    between atoms: C_17  and  C_18
REMARK    6  A    between atoms: C_17  and  C_19
REMARK                            x       y       z     vdW  Elec       q    Type
REMARK                         _______ _______ _______ _____ _____    ______ ____
ROOT
ATOM      1  C   UNL     1       6.477   3.819  13.901  0.00  0.00    +0.000 A 
ATOM      2  C   UNL     1       7.462   4.779  14.131  0.00  0.00    +0.000 A 
ATOM      3  N   UNL     1       7.607   5.462  15.301  0.00  0.00    +0.000 NA
ATOM      4  C   UNL     1       6.749   5.156  16.293  0.00  0.00    +0.000 A 
ATOM      5  N   UNL     1       6.949   5.749  17.519  0.00  0.00    +0.000 N 
ATOM      6  C   UNL     1       6.229   5.468  18.639  0.00  0.00    +0.000 A 
ATOM      7  O   UNL     1       6.595   5.958  19.706  0.00  0.00    +0.000 OA
ATOM      8  N   UNL     1       5.126   4.625  18.494  0.00  0.00    +0.000 N 
ATOM      9  C   UNL     1       4.878   3.943  17.301  0.00  0.00    +0.000 A 
ATOM     10  O   UNL     1       4.035   3.071  17.105  0.00  0.00    +0.000 OA
ATOM     11  C   UNL     1       5.728   4.248  16.150  0.00  0.00    +0.000 A 
ATOM     12  C   UNL     1       5.569   3.585  14.928  0.00  0.00    +0.000 A 
ATOM     13  H   UNL     1       7.741   6.369  17.609  0.00  0.00    +0.000 HD
ENDROOT
BRANCH   8  14
ATOM     14  C   UNL     1       4.307   4.375  19.728  0.00  0.00    +0.000 C 
ATOM     15  C   UNL     1       3.032   5.259  19.741  0.00  0.00    +0.000 C 
ATOM     16  C   UNL     1       2.099   4.955  20.914  0.00  0.00    +0.000 C 
ATOM     17  C   UNL     1       1.682   3.476  20.956  0.00  0.00    +0.000 C 
ATOM     18  C   UNL     1       2.979   2.674  21.157  0.00  0.00    +0.000 C 
ATOM     19  C   UNL     1       3.955   2.893  20.007  0.00  0.00    +0.000 C 
BRANCH  17  20
ATOM     20  C   UNL     1       0.851   3.043  19.704  0.00  0.00    +0.000 C 
ATOM     21  C   UNL     1       0.986   4.030  18.539  0.00  0.00    +0.000 C 
ATOM     22  C   UNL     1       1.239   1.643  19.215  0.00  0.00    +0.000 C 
ENDBRANCH  17  20
ENDBRANCH   8  14
BRANCH   1  26
ATOM     23  C   UNL     1       5.426   2.113  10.714  0.00  0.00    +0.000 C 
ATOM     24  C   UNL     1       5.237   3.018  11.903  0.00  0.00    +0.000 C 
ATOM     25  O   UNL     1       4.195   3.643  12.074  0.00  0.00    +0.000 OA
ATOM     26  N   UNL     1       6.346   3.049  12.727  0.00  0.00    +0.000 N 
ATOM     27  H   UNL     1       7.180   2.589  12.388  0.00  0.00    +0.000 HD
ENDBRANCH   1  26
TORSDOF 3
ENDMDL
MODEL 7
REMARK VINA RESULT:      -7.2      2.160      3.280
REMARK  Name = 
REMARK  6 active torsions:
REMARK  status: ('A' for Active; 'I' for Inactive)
REMARK    1  A    between atoms: C_1  and  C_2
REMARK    2  A    between atoms: N_4  and  C_5
REMARK    3  A    between atoms: N_12  and  C_13
REMARK    4  A    between atoms: C_16  and  C_17
REMARK    5  A    between atoms: C_17  and  C_18
REMARK    6  A    between atoms: C_17  and  C_19
REMARK                            x       y       z     vdW  Elec       q    Type
REMARK                         _______ _______ _______ _____ _____    ______ ____
ROOT
ATOM      1  C   UNL     1       6.195   5.621  16.673  0.00  0.00    +0.000 A 
ATOM      2  C   UNL     1       6.268   4.686  17.705  0.00  0.00    +0.000 A 
ATOM      3  N   UNL     1       5.435   4.670  18.784  0.00  0.00    +0.000 NA
ATOM      4  C   UNL     1       4.474   5.611  18.822  0.00  0.00    +0.000 A 
ATOM      5  N   UNL     1       3.550   5.544  19.842  0.00  0.00    +0.000 N 
ATOM      6  C   UNL     1       2.469   6.360  19.958  0.00  0.00    +0.000 A 
ATOM      7  O   UNL     1       1.641   6.110  20.833  0.00  0.00    +0.000 OA
ATOM      8  N   UNL     1       2.371   7.424  19.060  0.00  0.00    +0.000 N 
ATOM      9  C   UNL     1       3.234   7.540  17.968  0.00  0.00    +0.000 A 
ATOM     10  O   UNL     1       3.152   8.339  17.039  0.00  0.00    +0.000 OA
ATOM     11  C   UNL     1       4.343   6.591  17.869  0.00  0.00    +0.000 A 
ATOM     12  C   UNL     1       5.232   6.617  16.788  0.00  0.00    +0.000 A 
ATOM     13  H   UNL     1       3.640   4.779  20.495  0.00  0.00    +0.000 HD
ENDROOT
BRANCH   8  14
ATOM     14  C   UNL     1       1.204   8.351  19.243  0.00  0.00    +0.000 C 
ATOM     15  C   UNL     1       1.311   9.128  20.582  0.00  0.00    +0.000 C 
ATOM     16  C   UNL     1       0.213  10.177  20.761  0.00  0.00    +0.000 C 
ATOM     17  C   UNL     1       0.177  11.184  19.600  0.00  0.00    +0.000 C 
ATOM     18  C   UNL     1      -0.143  10.367  18.338  0.00  0.00    +0.000 C 
ATOM     19  C   UNL     1       0.927   9.317  18.065  0.00  0.00    +0.000 C 
BRANCH  17  20
ATOM     20  C   UNL     1       1.485  12.035  19.495  0.00  0.00    +0.000 C 
ATOM     21  C   UNL     1       1.488  12.960  18.272  0.00  0.00    +0.000 C 
ATOM     22  C   UNL     1       1.723  12.878  20.753  0.00  0.00    +0.000 C 
ENDBRANCH  17  20
ENDBRANCH   8  14
BRANCH   1  26
ATOM     23  C   UNL     1       7.816   5.092  13.317  0.00  0.00    +0.000 C 
ATOM     24  C   UNL     1       6.799   4.831  14.397  0.00  0.00    +0.000 C 
ATOM     25  O   UNL     1       5.907   4.001  14.250  0.00  0.00    +0.000 OA
ATOM     26  N   UNL     1       6.997   5.621  15.513  0.00  0.00    +0.000 N 
ATOM     27  H   UNL     1       7.688   6.355  15.437  0.00  0.00    +0.000 HD
ENDBRANCH   1  26
TORSDOF 3
ENDMDL
MODEL 8
REMARK VINA RESULT:      -7.2      2.133      8.106
REMARK  Name = 
REMARK  6 active torsions:
REMARK  status: ('A' for Active; 'I' for Inactive)
REMARK    1  A    between atoms: C_1  and  C_2
REMARK    2  A    between atoms: N_4  and  C_5
REMARK    3  A    between atoms: N_12  and  C_13
REMARK    4  A    between atoms: C_16  and  C_17
REMARK    5  A    between atoms: C_17  and  C_18
REMARK    6  A    between atoms: C_17  and  C_19
REMARK                            x       y       z     vdW  Elec       q    Type
REMARK                         _______ _______ _______ _____ _____    ______ ____
ROOT
ATOM      1  C   UNL     1      -0.555  11.066  20.897  0.00  0.00    +0.000 A 
ATOM      2  C   UNL     1      -0.187  11.903  19.843  0.00  0.00    +0.000 A 
ATOM      3  N   UNL     1       0.690  11.556  18.860  0.00  0.00    +0.000 NA
ATOM      4  C   UNL     1       1.203  10.313  18.915  0.00  0.00    +0.000 A 
ATOM      5  N   UNL     1       2.001   9.900  17.871  0.00  0.00    +0.000 N 
ATOM      6  C   UNL     1       2.510   8.646  17.738  0.00  0.00    +0.000 A 
ATOM      7  O   UNL     1       3.089   8.360  16.691  0.00  0.00    +0.000 OA
ATOM      8  N   UNL     1       2.323   7.764  18.802  0.00  0.00    +0.000 N 
ATOM      9  C   UNL     1       1.490   8.081  19.877  0.00  0.00    +0.000 A 
ATOM     10  O   UNL     1       1.135   7.335  20.787  0.00  0.00    +0.000 OA
ATOM     11  C   UNL     1       0.925   9.429  19.930  0.00  0.00    +0.000 A 
ATOM     12  C   UNL     1       0.052   9.816  20.953  0.00  0.00    +0.000 A 
ATOM     13  H   UNL     1       2.142  10.552  17.113  0.00  0.00    +0.000 HD
ENDROOT
BRANCH   8  14
ATOM     14  C   UNL     1       2.945   6.404  18.664  0.00  0.00    +0.000 C 
ATOM     15  C   UNL     1       3.337   5.824  20.048  0.00  0.00    +0.000 C 
ATOM     16  C   UNL     1       3.861   4.389  19.976  0.00  0.00    +0.000 C 
ATOM     17  C   UNL     1       2.860   3.439  19.301  0.00  0.00    +0.000 C 
ATOM     18  C   UNL     1       2.684   3.956  17.864  0.00  0.00    +0.000 C 
ATOM     19  C   UNL     1       2.127   5.375  17.846  0.00  0.00    +0.000 C 
BRANCH  17  20
ATOM     20  C   UNL     1       1.521   3.301  20.099  0.00  0.00    +0.000 C 
ATOM     21  C   UNL     1       0.476   2.463  19.353  0.00  0.00    +0.000 C 
ATOM     22  C   UNL     1       1.742   2.694  21.489  0.00  0.00    +0.000 C 
ENDBRANCH  17  20
ENDBRANCH   8  14
BRANCH   1  26
ATOM     23  C   UNL     1      -2.571  12.407  23.779  0.00  0.00    +0.000 C 
ATOM     24  C   UNL     1      -1.352  12.297  22.901  0.00  0.00    +0.000 C 
ATOM     25  O   UNL     1      -0.353  12.981  23.102  0.00  0.00    +0.000 OA
ATOM     26  N   UNL     1      -1.510  11.372  21.887  0.00  0.00    +0.000 N 
ATOM     27  H   UNL     1      -2.435  10.983  21.764  0.00  0.00    +0.000 HD
ENDBRANCH   1  26
TORSDOF 3
ENDMDL
MODEL 9
REMARK VINA RESULT:      -7.2      1.603      2.501
REMARK  Name = 
REMARK  6 active torsions:
REMARK  status: ('A' for Active; 'I' for Inactive)
REMARK    1  A    between atoms: C_1  and  C_2
REMARK    2  A    between atoms: N_4  and  C_5
REMARK    3  A    between atoms: N_12  and  C_13
REMARK    4  A    between atoms: C_16  and  C_17
REMARK    5  A    between atoms: C_17  and  C_18
REMARK    6  A    between atoms: C_17  and  C_19
REMARK                            x       y       z     vdW  Elec       q    Type
REMARK                         _______ _______ _______ _____ _____    ______ ____
ROOT
ATOM      1  C   UNL     1       4.573   5.491  17.151  0.00  0.00    +0.000 A 
ATOM      2  C   UNL     1       4.491   4.660  18.268  0.00  0.00    +0.000 A 
ATOM      3  N   UNL     1       3.782   4.957  19.394  0.00  0.00    +0.000 NA
ATOM      4  C   UNL     1       3.106   6.121  19.396  0.00  0.00    +0.000 A 
ATOM      5  N   UNL     1       2.291   6.388  20.473  0.00  0.00    +0.000 N 
ATOM      6  C   UNL     1       1.474   7.471  20.573  0.00  0.00    +0.000 A 
ATOM      7  O   UNL     1       0.691   7.525  21.520  0.00  0.00    +0.000 OA
ATOM      8  N   UNL     1       1.576   8.443  19.577  0.00  0.00    +0.000 N 
ATOM      9  C   UNL     1       2.339   8.233  18.426  0.00  0.00    +0.000 A 
ATOM     10  O   UNL     1       2.385   8.945  17.426  0.00  0.00    +0.000 OA
ATOM     11  C   UNL     1       3.150   7.017  18.356  0.00  0.00    +0.000 A 
ATOM     12  C   UNL     1       3.915   6.714  17.223  0.00  0.00    +0.000 A 
ATOM     13  H   UNL     1       2.237   5.685  21.196  0.00  0.00    +0.000 HD
ENDROOT
BRANCH   8  14
ATOM     14  C   UNL     1       0.712   9.660  19.736  0.00  0.00    +0.000 C 
ATOM     15  C   UNL     1       1.119  10.475  20.992  0.00  0.00    +0.000 C 
ATOM     16  C   UNL     1       0.352  11.791  21.133  0.00  0.00    +0.000 C 
ATOM     17  C   UNL     1       0.496  12.683  19.890  0.00  0.00    +0.000 C 
ATOM     18  C   UNL     1      -0.122  11.892  18.725  0.00  0.00    +0.000 C 
ATOM     19  C   UNL     1       0.611  10.576  18.492  0.00  0.00    +0.000 C 
BRANCH  17  20
ATOM     20  C   UNL     1       1.969  13.142  19.639  0.00  0.00    +0.000 C 
ATOM     21  C   UNL     1       2.114  13.986  18.367  0.00  0.00    +0.000 C 
ATOM     22  C   UNL     1       2.533  13.934  20.825  0.00  0.00    +0.000 C 
ENDBRANCH  17  20
ENDBRANCH   8  14
BRANCH   1  26
ATOM     23  C   UNL     1       7.003   4.735  14.378  0.00  0.00    +0.000 C 
ATOM     24  C   UNL     1       6.610   5.123  15.779  0.00  0.00    +0.000 C 
ATOM     25  O   UNL     1       7.453   5.347  16.643  0.00  0.00    +0.000 OA
ATOM     26  N   UNL     1       5.240   5.180  15.949  0.00  0.00    +0.000 N 
ATOM     27  H   UNL     1       4.671   4.837  15.187  0.00  0.00    +0.000 HD
ENDBRANCH   1  26
TORSDOF 3
ENDMDL
