MODEL 1
REMARK VINA RESULT:     -10.6      0.000      0.000
REMARK  Name = 
REMARK  5 active torsions:
REMARK  status: ('A' for Active; 'I' for Inactive)
REMARK    1  A    between atoms: C_1  and  C_2
REMARK    2  A    between atoms: C_13  and  N_14
REMARK    3  A    between atoms: N_14  and  C_15
REMARK    4  A    between atoms: C_19  and  C_20
REMARK    5  A    between atoms: C_23  and  C_24
REMARK                            x       y       z     vdW  Elec       q    Type
REMARK                         _______ _______ _______ _____ _____    ______ ____
ROOT
ATOM      1  C   UNL     1       0.722   9.856  19.594  0.00  0.00    +0.000 A 
ATOM      2  C   UNL     1       0.534   9.397  20.903  0.00  0.00    +0.000 A 
ATOM      3  C   UNL     1       1.077   8.183  21.315  0.00  0.00    +0.000 A 
ATOM      4  C   UNL     1       1.816   7.411  20.414  0.00  0.00    +0.000 A 
ATOM      5  C   UNL     1       2.010   7.847  19.099  0.00  0.00    +0.000 A 
ATOM      6  C   UNL     1       1.493   9.081  18.715  0.00  0.00    +0.000 A 
ENDROOT
BRANCH   5   7
ATOM      7  C   UNL     1       2.818   7.051  18.189  0.00  0.00    +0.000 A 
ATOM      8  N   UNL     1       2.685   5.751  18.075  0.00  0.00    +0.000 NA
ATOM      9  C   UNL     1       3.789   5.335  17.384  0.00  0.00    +0.000 A 
ATOM     10  C   UNL     1       4.395   4.080  17.374  0.00  0.00    +0.000 A 
ATOM     11  C   UNL     1       5.477   3.887  16.513  0.00  0.00    +0.000 A 
ATOM     12  C   UNL     1       5.966   4.939  15.718  0.00  0.00    +0.000 A 
ATOM     13  C   UNL     1       5.478   6.244  15.871  0.00  0.00    +0.000 A 
ATOM     14  C   UNL     1       4.425   6.402  16.773  0.00  0.00    +0.000 A 
ATOM     15  N   UNL     1       3.894   7.484  17.438  0.00  0.00    +0.000 N 
ATOM     16  H   UNL     1       4.351   8.379  17.535  0.00  0.00    +0.000 HD
BRANCH  10  17
ATOM     17  C   UNL     1       4.073   3.144  18.477  0.00  0.00    +0.000 C 
ATOM     18  N   UNL     1       5.032   2.967  19.443  0.00  0.00    +0.000 N 
ATOM     19  O   UNL     1       3.052   2.469  18.456  0.00  0.00    +0.000 OA
ATOM     20  H   UNL     1       5.963   3.347  19.274  0.00  0.00    +0.000 HD
ATOM     21  H   UNL     1       4.995   2.106  19.970  0.00  0.00    +0.000 HD
ENDBRANCH  10  17
ENDBRANCH   5   7
BRANCH   1  22
ATOM     22  N   UNL     1       0.184  11.089  19.174  0.00  0.00    +0.000 N 
ATOM     23  H   UNL     1       0.859  11.819  18.974  0.00  0.00    +0.000 HD
BRANCH  22  36
ATOM     24  C   UNL     1      -2.775   9.819  15.039  0.00  0.00    +0.000 C 
ATOM     25  C   UNL     1      -3.010  10.524  16.343  0.00  0.00    +0.000 A 
ATOM     26  C   UNL     1      -4.269  11.008  16.681  0.00  0.00    +0.000 A 
ATOM     27  C   UNL     1      -4.469  11.649  17.902  0.00  0.00    +0.000 A 
ATOM     28  C   UNL     1      -3.438  11.825  18.819  0.00  0.00    +0.000 A 
ATOM     29  N   UNL     1      -3.735  12.420  19.975  0.00  0.00    +0.000 NA
ATOM     30  C   UNL     1      -2.757  12.652  20.867  0.00  0.00    +0.000 A 
ATOM     31  C   UNL     1      -3.111  13.263  22.063  0.00  0.00    +0.000 A 
ATOM     32  C   UNL     1      -2.173  13.560  23.047  0.00  0.00    +0.000 A 
ATOM     33  C   UNL     1      -0.835  13.286  22.824  0.00  0.00    +0.000 A 
ATOM     34  C   UNL     1      -0.460  12.679  21.632  0.00  0.00    +0.000 A 
ATOM     35  C   UNL     1      -1.416  12.309  20.647  0.00  0.00    +0.000 A 
ATOM     36  C   UNL     1      -1.125  11.593  19.448  0.00  0.00    +0.000 A 
ATOM     37  C   UNL     1      -2.146  11.374  18.485  0.00  0.00    +0.000 A 
ATOM     38  C   UNL     1      -1.956  10.706  17.249  0.00  0.00    +0.000 A 
ENDBRANCH  22  36
ENDBRANCH   1  22
TORSDOF 4
ENDMDL
MODEL 2
REMARK VINA RESULT:     -10.5      0.840      3.589
REMARK  Name = 
REMARK  5 active torsions:
REMARK  status: ('A' for Active; 'I' for Inactive)
REMARK    1  A    between atoms: C_1  and  C_2
REMARK    2  A    between atoms: C_13  and  N_14
REMARK    3  A    between atoms: N_14  and  C_15
REMARK    4  A    between atoms: C_19  and  C_20
REMARK    5  A    between atoms: C_23  and  C_24
REMARK                            x       y       z     vdW  Elec       q    Type
REMARK                         _______ _______ _______ _____ _____    ______ ____
ROOT
ATOM      1  C   UNL     1       0.494  10.044  19.710  0.00  0.00    +0.000 A 
ATOM      2  C   UNL     1       0.367   9.642  21.045  0.00  0.00    +0.000 A 
ATOM      3  C   UNL     1       0.972   8.472  21.496  0.00  0.00    +0.000 A 
ATOM      4  C   UNL     1       1.711   7.686  20.608  0.00  0.00    +0.000 A 
ATOM      5  C   UNL     1       1.846   8.065  19.267  0.00  0.00    +0.000 A 
ATOM      6  C   UNL     1       1.267   9.257  18.844  0.00  0.00    +0.000 A 
ENDROOT
BRANCH   5   7
ATOM      7  C   UNL     1       2.655   7.257  18.369  0.00  0.00    +0.000 A 
ATOM      8  N   UNL     1       2.600   5.947  18.349  0.00  0.00    +0.000 NA
ATOM      9  C   UNL     1       3.690   5.550  17.628  0.00  0.00    +0.000 A 
ATOM     10  C   UNL     1       4.374   4.336  17.667  0.00  0.00    +0.000 A 
ATOM     11  C   UNL     1       5.421   4.149  16.763  0.00  0.00    +0.000 A 
ATOM     12  C   UNL     1       5.801   5.170  15.875  0.00  0.00    +0.000 A 
ATOM     13  C   UNL     1       5.240   6.452  15.967  0.00  0.00    +0.000 A 
ATOM     14  C   UNL     1       4.226   6.609  16.913  0.00  0.00    +0.000 A 
ATOM     15  N   UNL     1       3.662   7.701  17.533  0.00  0.00    +0.000 N 
ATOM     16  H   UNL     1       4.066   8.626  17.545  0.00  0.00    +0.000 HD
BRANCH  10  17
ATOM     17  C   UNL     1       4.168   3.462  18.846  0.00  0.00    +0.000 C 
ATOM     18  N   UNL     1       2.877   3.095  19.131  0.00  0.00    +0.000 N 
ATOM     19  O   UNL     1       5.094   3.186  19.598  0.00  0.00    +0.000 OA
ATOM     20  H   UNL     1       2.121   3.564  18.633  0.00  0.00    +0.000 HD
ATOM     21  H   UNL     1       2.678   2.827  20.085  0.00  0.00    +0.000 HD
ENDBRANCH  10  17
ENDBRANCH   5   7
BRANCH   1  22
ATOM     22  N   UNL     1      -0.106  11.233  19.251  0.00  0.00    +0.000 N 
ATOM     23  H   UNL     1       0.463  12.070  19.322  0.00  0.00    +0.000 HD
BRANCH  22  36
ATOM     24  C   UNL     1      -1.354  13.915  23.578  0.00  0.00    +0.000 C 
ATOM     25  C   UNL     1      -2.099  13.442  22.364  0.00  0.00    +0.000 A 
ATOM     26  C   UNL     1      -3.454  13.710  22.203  0.00  0.00    +0.000 A 
ATOM     27  C   UNL     1      -4.125  13.272  21.062  0.00  0.00    +0.000 A 
ATOM     28  C   UNL     1      -3.479  12.564  20.054  0.00  0.00    +0.000 A 
ATOM     29  N   UNL     1      -4.197  12.216  18.986  0.00  0.00    +0.000 NA
ATOM     30  C   UNL     1      -3.622  11.490  18.013  0.00  0.00    +0.000 A 
ATOM     31  C   UNL     1      -4.402  11.160  16.912  0.00  0.00    +0.000 A 
ATOM     32  C   UNL     1      -3.907  10.400  15.857  0.00  0.00    +0.000 A 
ATOM     33  C   UNL     1      -2.613   9.912  15.911  0.00  0.00    +0.000 A 
ATOM     34  C   UNL     1      -1.818  10.228  17.006  0.00  0.00    +0.000 A 
ATOM     35  C   UNL     1      -2.289  11.058  18.058  0.00  0.00    +0.000 A 
ATOM     36  C   UNL     1      -1.505  11.510  19.161  0.00  0.00    +0.000 A 
ATOM     37  C   UNL     1      -2.115  12.250  20.211  0.00  0.00    +0.000 A 
ATOM     38  C   UNL     1      -1.436  12.716  21.365  0.00  0.00    +0.000 A 
ENDBRANCH  22  36
ENDBRANCH   1  22
TORSDOF 4
ENDMDL
MODEL 3
REMARK VINA RESULT:     -10.4      3.558      9.617
REMARK  Name = 
REMARK  5 active torsions:
REMARK  status: ('A' for Active; 'I' for Inactive)
REMARK    1  A    between atoms: C_1  and  C_2
REMARK    2  A    between atoms: C_13  and  N_14
REMARK    3  A    between atoms: N_14  and  C_15
REMARK    4  A    between atoms: C_19  and  C_20
REMARK    5  A    between atoms: C_23  and  C_24
REMARK                            x       y       z     vdW  Elec       q    Type
REMARK                         _______ _______ _______ _____ _____    ______ ____
ROOT
ATOM      1  C   UNL     1       2.202   7.694  18.759  0.00  0.00    +0.000 A 
ATOM      2  C   UNL     1       1.862   7.230  20.035  0.00  0.00    +0.000 A 
ATOM      3  C   UNL     1       1.299   8.088  20.977  0.00  0.00    +0.000 A 
ATOM      4  C   UNL     1       1.074   9.428  20.648  0.00  0.00    +0.000 A 
ATOM      5  C   UNL     1       1.413   9.915  19.381  0.00  0.00    +0.000 A 
ATOM      6  C   UNL     1       1.938   9.034  18.440  0.00  0.00    +0.000 A 
ENDROOT
BRANCH   5   7
ATOM      7  C   UNL     1       1.131  11.301  19.044  0.00  0.00    +0.000 A 
ATOM      8  N   UNL     1       2.010  12.083  18.463  0.00  0.00    +0.000 NA
ATOM      9  C   UNL     1       1.508  13.347  18.591  0.00  0.00    +0.000 A 
ATOM     10  C   UNL     1       2.187  14.565  18.584  0.00  0.00    +0.000 A 
ATOM     11  C   UNL     1       1.427  15.734  18.654  0.00  0.00    +0.000 A 
ATOM     12  C   UNL     1       0.027  15.681  18.775  0.00  0.00    +0.000 A 
ATOM     13  C   UNL     1      -0.633  14.460  18.973  0.00  0.00    +0.000 A 
ATOM     14  C   UNL     1       0.168  13.318  18.939  0.00  0.00    +0.000 A 
ATOM     15  N   UNL     1       0.005  12.026  19.385  0.00  0.00    +0.000 N 
ATOM     16  H   UNL     1      -0.704  11.730  20.038  0.00  0.00    +0.000 HD
BRANCH  10  17
ATOM     17  C   UNL     1       3.650  14.546  18.820  0.00  0.00    +0.000 C 
ATOM     18  N   UNL     1       4.444  14.147  17.773  0.00  0.00    +0.000 N 
ATOM     19  O   UNL     1       4.114  14.755  19.933  0.00  0.00    +0.000 OA
ATOM     20  H   UNL     1       3.994  13.733  16.957  0.00  0.00    +0.000 HD
ATOM     21  H   UNL     1       5.358  13.785  18.006  0.00  0.00    +0.000 HD
ENDBRANCH  10  17
ENDBRANCH   5   7
BRANCH   1  22
ATOM     22  N   UNL     1       2.760   6.828  17.799  0.00  0.00    +0.000 N 
ATOM     23  H   UNL     1       2.296   6.811  16.897  0.00  0.00    +0.000 HD
BRANCH  22  36
ATOM     24  C   UNL     1       7.770   8.341  17.506  0.00  0.00    +0.000 C 
ATOM     25  C   UNL     1       7.061   7.050  17.793  0.00  0.00    +0.000 A 
ATOM     26  C   UNL     1       7.770   5.888  18.076  0.00  0.00    +0.000 A 
ATOM     27  C   UNL     1       7.092   4.702  18.352  0.00  0.00    +0.000 A 
ATOM     28  C   UNL     1       5.703   4.632  18.360  0.00  0.00    +0.000 A 
ATOM     29  N   UNL     1       5.145   3.461  18.668  0.00  0.00    +0.000 NA
ATOM     30  C   UNL     1       3.806   3.341  18.639  0.00  0.00    +0.000 A 
ATOM     31  C   UNL     1       3.266   2.108  18.980  0.00  0.00    +0.000 A 
ATOM     32  C   UNL     1       1.895   1.874  18.968  0.00  0.00    +0.000 A 
ATOM     33  C   UNL     1       1.030   2.877  18.565  0.00  0.00    +0.000 A 
ATOM     34  C   UNL     1       1.553   4.117  18.217  0.00  0.00    +0.000 A 
ATOM     35  C   UNL     1       2.945   4.390  18.288  0.00  0.00    +0.000 A 
ATOM     36  C   UNL     1       3.547   5.661  18.048  0.00  0.00    +0.000 A 
ATOM     37  C   UNL     1       4.962   5.788  18.042  0.00  0.00    +0.000 A 
ATOM     38  C   UNL     1       5.660   6.995  17.782  0.00  0.00    +0.000 A 
ENDBRANCH  22  36
ENDBRANCH   1  22
TORSDOF 4
ENDMDL
MODEL 4
REMARK VINA RESULT:     -10.2      2.184      4.010
REMARK  Name = 
REMARK  5 active torsions:
REMARK  status: ('A' for Active; 'I' for Inactive)
REMARK    1  A    between atoms: C_1  and  C_2
REMARK    2  A    between atoms: C_13  and  N_14
REMARK    3  A    between atoms: N_14  and  C_15
REMARK    4  A    between atoms: C_19  and  C_20
REMARK    5  A    between atoms: C_23  and  C_24
REMARK                            x       y       z     vdW  Elec       q    Type
REMARK                         _______ _______ _______ _____ _____    ______ ____
ROOT
ATOM      1  C   UNL     1       1.367   9.113  18.986  0.00  0.00    +0.000 A 
ATOM      2  C   UNL     1       0.930   8.795  20.277  0.00  0.00    +0.000 A 
ATOM      3  C   UNL     1       1.388   7.648  20.920  0.00  0.00    +0.000 A 
ATOM      4  C   UNL     1       2.290   6.802  20.271  0.00  0.00    +0.000 A 
ATOM      5  C   UNL     1       2.735   7.096  18.977  0.00  0.00    +0.000 A 
ATOM      6  C   UNL     1       2.297   8.267  18.365  0.00  0.00    +0.000 A 
ENDROOT
BRANCH   5   7
ATOM      7  C   UNL     1       3.708   6.226  18.335  0.00  0.00    +0.000 A 
ATOM      8  N   UNL     1       4.805   5.826  18.932  0.00  0.00    +0.000 NA
ATOM      9  C   UNL     1       5.585   5.303  17.940  0.00  0.00    +0.000 A 
ATOM     10  C   UNL     1       6.972   5.161  17.897  0.00  0.00    +0.000 A 
ATOM     11  C   UNL     1       7.527   4.516  16.790  0.00  0.00    +0.000 A 
ATOM     12  C   UNL     1       6.715   4.068  15.733  0.00  0.00    +0.000 A 
ATOM     13  C   UNL     1       5.349   4.380  15.690  0.00  0.00    +0.000 A 
ATOM     14  C   UNL     1       4.842   5.063  16.796  0.00  0.00    +0.000 A 
ATOM     15  N   UNL     1       3.709   5.813  17.016  0.00  0.00    +0.000 N 
ATOM     16  H   UNL     1       3.113   6.179  16.289  0.00  0.00    +0.000 HD
BRANCH  10  17
ATOM     17  C   UNL     1       7.781   5.963  18.845  0.00  0.00    +0.000 C 
ATOM     18  N   UNL     1       7.961   5.444  20.103  0.00  0.00    +0.000 N 
ATOM     19  O   UNL     1       8.162   7.090  18.556  0.00  0.00    +0.000 OA
ATOM     20  H   UNL     1       7.406   4.633  20.375  0.00  0.00    +0.000 HD
ATOM     21  H   UNL     1       8.176   6.100  20.841  0.00  0.00    +0.000 HD
ENDBRANCH  10  17
ENDBRANCH   5   7
BRANCH   1  22
ATOM     22  N   UNL     1       0.916  10.278  18.335  0.00  0.00    +0.000 N 
ATOM     23  H   UNL     1       1.579  10.715  17.704  0.00  0.00    +0.000 HD
BRANCH  22  36
ATOM     24  C   UNL     1       3.327  14.003  21.125  0.00  0.00    +0.000 C 
ATOM     25  C   UNL     1       1.909  13.723  20.720  0.00  0.00    +0.000 A 
ATOM     26  C   UNL     1       0.874  14.573  21.095  0.00  0.00    +0.000 A 
ATOM     27  C   UNL     1      -0.434  14.301  20.698  0.00  0.00    +0.000 A 
ATOM     28  C   UNL     1      -0.753  13.191  19.922  0.00  0.00    +0.000 A 
ATOM     29  N   UNL     1      -2.028  13.034  19.565  0.00  0.00    +0.000 NA
ATOM     30  C   UNL     1      -2.385  11.949  18.856  0.00  0.00    +0.000 A 
ATOM     31  C   UNL     1      -3.720  11.831  18.493  0.00  0.00    +0.000 A 
ATOM     32  C   UNL     1      -4.196  10.741  17.772  0.00  0.00    +0.000 A 
ATOM     33  C   UNL     1      -3.333   9.711  17.435  0.00  0.00    +0.000 A 
ATOM     34  C   UNL     1      -1.994   9.810  17.793  0.00  0.00    +0.000 A 
ATOM     35  C   UNL     1      -1.482  10.949  18.471  0.00  0.00    +0.000 A 
ATOM     36  C   UNL     1      -0.107  11.171  18.781  0.00  0.00    +0.000 A 
ATOM     37  C   UNL     1       0.273  12.297  19.560  0.00  0.00    +0.000 A 
ATOM     38  C   UNL     1       1.604  12.592  19.951  0.00  0.00    +0.000 A 
ENDBRANCH  22  36
ENDBRANCH   1  22
TORSDOF 4
ENDMDL
MODEL 5
REMARK VINA RESULT:      -9.9      3.327      9.870
REMARK  Name = 
REMARK  5 active torsions:
REMARK  status: ('A' for Active; 'I' for Inactive)
REMARK    1  A    between atoms: C_1  and  C_2
REMARK    2  A    between atoms: C_13  and  N_14
REMARK    3  A    between atoms: N_14  and  C_15
REMARK    4  A    between atoms: C_19  and  C_20
REMARK    5  A    between atoms: C_23  and  C_24
REMARK                            x       y       z     vdW  Elec       q    Type
REMARK                         _______ _______ _______ _____ _____    ______ ____
ROOT
ATOM      1  C   UNL     1       2.375   7.710  19.229  0.00  0.00    +0.000 A 
ATOM      2  C   UNL     1       2.489   8.047  17.875  0.00  0.00    +0.000 A 
ATOM      3  C   UNL     1       1.839   9.168  17.364  0.00  0.00    +0.000 A 
ATOM      4  C   UNL     1       1.062   9.964  18.209  0.00  0.00    +0.000 A 
ATOM      5  C   UNL     1       0.928   9.643  19.565  0.00  0.00    +0.000 A 
ATOM      6  C   UNL     1       1.617   8.542  20.066  0.00  0.00    +0.000 A 
ENDROOT
BRANCH   5   7
ATOM      7  C   UNL     1       0.151  10.509  20.436  0.00  0.00    +0.000 A 
ATOM      8  N   UNL     1       0.108  11.811  20.287  0.00  0.00    +0.000 NA
ATOM      9  C   UNL     1      -0.449  12.288  21.441  0.00  0.00    +0.000 A 
ATOM     10  C   UNL     1      -0.323  13.550  22.019  0.00  0.00    +0.000 A 
ATOM     11  C   UNL     1      -1.064  13.815  23.172  0.00  0.00    +0.000 A 
ATOM     12  C   UNL     1      -1.875  12.824  23.754  0.00  0.00    +0.000 A 
ATOM     13  C   UNL     1      -1.852  11.504  23.281  0.00  0.00    +0.000 A 
ATOM     14  C   UNL     1      -1.065  11.272  22.153  0.00  0.00    +0.000 A 
ATOM     15  N   UNL     1      -0.522  10.141  21.586  0.00  0.00    +0.000 N 
ATOM     16  H   UNL     1      -0.440   9.249  22.050  0.00  0.00    +0.000 HD
BRANCH  10  17
ATOM     17  C   UNL     1       0.803  14.407  21.577  0.00  0.00    +0.000 C 
ATOM     18  N   UNL     1       0.757  14.880  20.289  0.00  0.00    +0.000 N 
ATOM     19  O   UNL     1       1.785  14.578  22.288  0.00  0.00    +0.000 OA
ATOM     20  H   UNL     1       0.054  14.494  19.659  0.00  0.00    +0.000 HD
ATOM     21  H   UNL     1       1.637  15.138  19.866  0.00  0.00    +0.000 HD
ENDBRANCH  10  17
ENDBRANCH   5   7
BRANCH   1  22
ATOM     22  N   UNL     1       3.040   6.585  19.754  0.00  0.00    +0.000 N 
ATOM     23  H   UNL     1       3.581   6.745  20.597  0.00  0.00    +0.000 HD
BRANCH  22  36
ATOM     24  C   UNL     1       7.673   7.730  17.587  0.00  0.00    +0.000 C 
ATOM     25  C   UNL     1       6.781   6.524  17.621  0.00  0.00    +0.000 A 
ATOM     26  C   UNL     1       7.138   5.347  16.973  0.00  0.00    +0.000 A 
ATOM     27  C   UNL     1       6.301   4.234  17.028  0.00  0.00    +0.000 A 
ATOM     28  C   UNL     1       5.095   4.252  17.722  0.00  0.00    +0.000 A 
ATOM     29  N   UNL     1       4.379   3.129  17.745  0.00  0.00    +0.000 NA
ATOM     30  C   UNL     1       3.186   3.120  18.364  0.00  0.00    +0.000 A 
ATOM     31  C   UNL     1       2.478   1.925  18.376  0.00  0.00    +0.000 A 
ATOM     32  C   UNL     1       1.228   1.812  18.976  0.00  0.00    +0.000 A 
ATOM     33  C   UNL     1       0.639   2.927  19.548  0.00  0.00    +0.000 A 
ATOM     34  C   UNL     1       1.330   4.133  19.543  0.00  0.00    +0.000 A 
ATOM     35  C   UNL     1       2.635   4.245  18.991  0.00  0.00    +0.000 A 
ATOM     36  C   UNL     1       3.448   5.417  19.039  0.00  0.00    +0.000 A 
ATOM     37  C   UNL     1       4.695   5.444  18.357  0.00  0.00    +0.000 A 
ATOM     38  C   UNL     1       5.562   6.565  18.313  0.00  0.00    +0.000 A 
ENDBRANCH  22  36
ENDBRANCH   1  22
TORSDOF 4
ENDMDL
MODEL 6
REMARK VINA RESULT:      -9.9      1.190      3.501
REMARK  Name = 
REMARK  5 active torsions:
REMARK  status: ('A' for Active; 'I' for Inactive)
REMARK    1  A    between atoms: C_1  and  C_2
REMARK    2  A    between atoms: C_13  and  N_14
REMARK    3  A    between atoms: N_14  and  C_15
REMARK    4  A    between atoms: C_19  and  C_20
REMARK    5  A    between atoms: C_23  and  C_24
REMARK                            x       y       z     vdW  Elec       q    Type
REMARK                         _______ _______ _______ _____ _____    ______ ____
ROOT
ATOM      1  C   UNL     1       1.112   9.647  18.995  0.00  0.00    +0.000 A 
ATOM      2  C   UNL     1       0.922   9.289  20.335  0.00  0.00    +0.000 A 
ATOM      3  C   UNL     1       1.458   8.106  20.838  0.00  0.00    +0.000 A 
ATOM      4  C   UNL     1       2.191   7.264  19.997  0.00  0.00    +0.000 A 
ATOM      5  C   UNL     1       2.387   7.598  18.652  0.00  0.00    +0.000 A 
ATOM      6  C   UNL     1       1.877   8.803  18.177  0.00  0.00    +0.000 A 
ENDROOT
BRANCH   5   7
ATOM      7  C   UNL     1       3.188   6.730  17.805  0.00  0.00    +0.000 A 
ATOM      8  N   UNL     1       2.953   5.445  17.681  0.00  0.00    +0.000 NA
ATOM      9  C   UNL     1       4.064   4.932  17.074  0.00  0.00    +0.000 A 
ATOM     10  C   UNL     1       4.560   3.629  17.108  0.00  0.00    +0.000 A 
ATOM     11  C   UNL     1       5.682   3.339  16.330  0.00  0.00    +0.000 A 
ATOM     12  C   UNL     1       6.317   4.340  15.574  0.00  0.00    +0.000 A 
ATOM     13  C   UNL     1       5.933   5.684  15.691  0.00  0.00    +0.000 A 
ATOM     14  C   UNL     1       4.834   5.937  16.512  0.00  0.00    +0.000 A 
ATOM     15  N   UNL     1       4.350   7.065  17.136  0.00  0.00    +0.000 N 
ATOM     16  H   UNL     1       4.874   7.917  17.266  0.00  0.00    +0.000 HD
BRANCH  10  17
ATOM     17  C   UNL     1       4.078   2.732  18.184  0.00  0.00    +0.000 C 
ATOM     18  N   UNL     1       4.833   2.669  19.328  0.00  0.00    +0.000 N 
ATOM     19  O   UNL     1       3.121   1.989  18.007  0.00  0.00    +0.000 OA
ATOM     20  H   UNL     1       5.756   3.103  19.321  0.00  0.00    +0.000 HD
ATOM     21  H   UNL     1       4.741   1.836  19.892  0.00  0.00    +0.000 HD
ENDBRANCH  10  17
ENDBRANCH   5   7
BRANCH   1  22
ATOM     22  N   UNL     1       0.582  10.848  18.484  0.00  0.00    +0.000 N 
ATOM     23  H   UNL     1       1.237  11.443  17.988  0.00  0.00    +0.000 HD
BRANCH  22  36
ATOM     24  C   UNL     1       2.382  14.679  21.575  0.00  0.00    +0.000 C 
ATOM     25  C   UNL     1       1.026  14.228  21.115  0.00  0.00    +0.000 A 
ATOM     26  C   UNL     1      -0.127  14.892  21.516  0.00  0.00    +0.000 A 
ATOM     27  C   UNL     1      -1.375  14.464  21.068  0.00  0.00    +0.000 A 
ATOM     28  C   UNL     1      -1.518  13.376  20.213  0.00  0.00    +0.000 A 
ATOM     29  N   UNL     1      -2.750  13.063  19.812  0.00  0.00    +0.000 NA
ATOM     30  C   UNL     1      -2.934  11.990  19.024  0.00  0.00    +0.000 A 
ATOM     31  C   UNL     1      -4.232  11.706  18.619  0.00  0.00    +0.000 A 
ATOM     32  C   UNL     1      -4.533  10.611  17.816  0.00  0.00    +0.000 A 
ATOM     33  C   UNL     1      -3.525   9.742  17.436  0.00  0.00    +0.000 A 
ATOM     34  C   UNL     1      -2.220  10.006  17.835  0.00  0.00    +0.000 A 
ATOM     35  C   UNL     1      -1.890  11.157  18.599  0.00  0.00    +0.000 A 
ATOM     36  C   UNL     1      -0.567  11.552  18.960  0.00  0.00    +0.000 A 
ATOM     37  C   UNL     1      -0.367  12.665  19.820  0.00  0.00    +0.000 A 
ATOM     38  C   UNL     1       0.901  13.120  20.265  0.00  0.00    +0.000 A 
ENDBRANCH  22  36
ENDBRANCH   1  22
TORSDOF 4
ENDMDL
MODEL 7
REMARK VINA RESULT:      -9.8      1.725      1.877
REMARK  Name = 
REMARK  5 active torsions:
REMARK  status: ('A' for Active; 'I' for Inactive)
REMARK    1  A    between atoms: C_1  and  C_2
REMARK    2  A    between atoms: C_13  and  N_14
REMARK    3  A    between atoms: N_14  and  C_15
REMARK    4  A    between atoms: C_19  and  C_20
REMARK    5  A    between atoms: C_23  and  C_24
REMARK                            x       y       z     vdW  Elec       q    Type
REMARK                         _______ _______ _______ _____ _____    ______ ____
ROOT
ATOM      1  C   UNL     1       1.086   9.313  18.971  0.00  0.00    +0.000 A 
ATOM      2  C   UNL     1       0.733   8.993  20.287  0.00  0.00    +0.000 A 
ATOM      3  C   UNL     1       1.288   7.884  20.922  0.00  0.00    +0.000 A 
ATOM      4  C   UNL     1       2.203   7.079  20.239  0.00  0.00    +0.000 A 
ATOM      5  C   UNL     1       2.565   7.377  18.920  0.00  0.00    +0.000 A 
ATOM      6  C   UNL     1       2.030   8.510  18.315  0.00  0.00    +0.000 A 
ENDROOT
BRANCH   5   7
ATOM      7  C   UNL     1       3.551   6.552  18.241  0.00  0.00    +0.000 A 
ATOM      8  N   UNL     1       4.522   5.940  18.876  0.00  0.00    +0.000 NA
ATOM      9  C   UNL     1       5.394   5.539  17.903  0.00  0.00    +0.000 A 
ATOM     10  C   UNL     1       6.758   5.272  18.004  0.00  0.00    +0.000 A 
ATOM     11  C   UNL     1       7.414   4.796  16.867  0.00  0.00    +0.000 A 
ATOM     12  C   UNL     1       6.728   4.638  15.649  0.00  0.00    +0.000 A 
ATOM     13  C   UNL     1       5.408   5.086  15.502  0.00  0.00    +0.000 A 
ATOM     14  C   UNL     1       4.802   5.594  16.652  0.00  0.00    +0.000 A 
ATOM     15  N   UNL     1       3.707   6.397  16.877  0.00  0.00    +0.000 N 
ATOM     16  H   UNL     1       3.247   6.952  16.170  0.00  0.00    +0.000 HD
BRANCH  10  17
ATOM     17  C   UNL     1       7.483   5.796  19.185  0.00  0.00    +0.000 C 
ATOM     18  N   UNL     1       8.270   6.903  18.992  0.00  0.00    +0.000 N 
ATOM     19  O   UNL     1       7.475   5.193  20.251  0.00  0.00    +0.000 OA
ATOM     20  H   UNL     1       8.449   7.207  18.035  0.00  0.00    +0.000 HD
ATOM     21  H   UNL     1       9.024   7.048  19.650  0.00  0.00    +0.000 HD
ENDBRANCH  10  17
ENDBRANCH   5   7
BRANCH   1  22
ATOM     22  N   UNL     1       0.537  10.440  18.328  0.00  0.00    +0.000 N 
ATOM     23  H   UNL     1       1.185  10.991  17.775  0.00  0.00    +0.000 HD
BRANCH  22  36
ATOM     24  C   UNL     1      -3.125   9.365  14.735  0.00  0.00    +0.000 C 
ATOM     25  C   UNL     1      -3.069  10.192  15.987  0.00  0.00    +0.000 A 
ATOM     26  C   UNL     1      -4.181  10.896  16.434  0.00  0.00    +0.000 A 
ATOM     27  C   UNL     1      -4.111  11.647  17.605  0.00  0.00    +0.000 A 
ATOM     28  C   UNL     1      -2.948  11.722  18.364  0.00  0.00    +0.000 A 
ATOM     29  N   UNL     1      -2.989  12.440  19.487  0.00  0.00    +0.000 NA
ATOM     30  C   UNL     1      -1.872  12.576  20.223  0.00  0.00    +0.000 A 
ATOM     31  C   UNL     1      -1.961  13.321  21.392  0.00  0.00    +0.000 A 
ATOM     32  C   UNL     1      -0.862  13.535  22.217  0.00  0.00    +0.000 A 
ATOM     33  C   UNL     1       0.376  13.033  21.855  0.00  0.00    +0.000 A 
ATOM     34  C   UNL     1       0.486  12.288  20.687  0.00  0.00    +0.000 A 
ATOM     35  C   UNL     1      -0.642  12.007  19.869  0.00  0.00    +0.000 A 
ATOM     36  C   UNL     1      -0.630  11.168  18.715  0.00  0.00    +0.000 A 
ATOM     37  C   UNL     1      -1.797  11.046  17.913  0.00  0.00    +0.000 A 
ATOM     38  C   UNL     1      -1.883  10.268  16.731  0.00  0.00    +0.000 A 
ENDBRANCH  22  36
ENDBRANCH   1  22
TORSDOF 4
ENDMDL
MODEL 8
REMARK VINA RESULT:      -9.7      2.070      2.352
REMARK  Name = 
REMARK  5 active torsions:
REMARK  status: ('A' for Active; 'I' for Inactive)
REMARK    1  A    between atoms: C_1  and  C_2
REMARK    2  A    between atoms: C_13  and  N_14
REMARK    3  A    between atoms: N_14  and  C_15
REMARK    4  A    between atoms: C_19  and  C_20
REMARK    5  A    between atoms: C_23  and  C_24
REMARK                            x       y       z     vdW  Elec       q    Type
REMARK                         _______ _______ _______ _____ _____    ______ ____
ROOT
ATOM      1  C   UNL     1       1.459   9.257  19.011  0.00  0.00    +0.000 A 
ATOM      2  C   UNL     1       0.946   8.904  20.265  0.00  0.00    +0.000 A 
ATOM      3  C   UNL     1       1.318   7.707  20.873  0.00  0.00    +0.000 A 
ATOM      4  C   UNL     1       2.208   6.847  20.225  0.00  0.00    +0.000 A 
ATOM      5  C   UNL     1       2.728   7.177  18.968  0.00  0.00    +0.000 A 
ATOM      6  C   UNL     1       2.376   8.394  18.393  0.00  0.00    +0.000 A 
ENDROOT
BRANCH   5   7
ATOM      7  C   UNL     1       3.686   6.289  18.330  0.00  0.00    +0.000 A 
ATOM      8  N   UNL     1       4.783   5.884  18.925  0.00  0.00    +0.000 NA
ATOM      9  C   UNL     1       5.551   5.341  17.934  0.00  0.00    +0.000 A 
ATOM     10  C   UNL     1       6.935   5.183  17.884  0.00  0.00    +0.000 A 
ATOM     11  C   UNL     1       7.476   4.519  16.781  0.00  0.00    +0.000 A 
ATOM     12  C   UNL     1       6.653   4.067  15.734  0.00  0.00    +0.000 A 
ATOM     13  C   UNL     1       5.289   4.394  15.697  0.00  0.00    +0.000 A 
ATOM     14  C   UNL     1       4.798   5.095  16.798  0.00  0.00    +0.000 A 
ATOM     15  N   UNL     1       3.674   5.859  17.017  0.00  0.00    +0.000 N 
ATOM     16  H   UNL     1       3.077   6.224  16.289  0.00  0.00    +0.000 HD
BRANCH  10  17
ATOM     17  C   UNL     1       7.760   5.987  18.817  0.00  0.00    +0.000 C 
ATOM     18  N   UNL     1       7.967   5.468  20.070  0.00  0.00    +0.000 N 
ATOM     19  O   UNL     1       8.130   7.116  18.521  0.00  0.00    +0.000 OA
ATOM     20  H   UNL     1       7.421   4.654  20.352  0.00  0.00    +0.000 HD
ATOM     21  H   UNL     1       8.194   6.124  20.805  0.00  0.00    +0.000 HD
ENDBRANCH  10  17
ENDBRANCH   5   7
BRANCH   1  22
ATOM     22  N   UNL     1       1.096  10.472  18.397  0.00  0.00    +0.000 N 
ATOM     23  H   UNL     1       1.795  10.884  17.787  0.00  0.00    +0.000 HD
BRANCH  22  36
ATOM     24  C   UNL     1      -3.433   9.214  16.078  0.00  0.00    +0.000 C 
ATOM     25  C   UNL     1      -2.992  10.260  17.061  0.00  0.00    +0.000 A 
ATOM     26  C   UNL     1      -3.891  11.186  17.577  0.00  0.00    +0.000 A 
ATOM     27  C   UNL     1      -3.464  12.141  18.498  0.00  0.00    +0.000 A 
ATOM     28  C   UNL     1      -2.144  12.205  18.933  0.00  0.00    +0.000 A 
ATOM     29  N   UNL     1      -1.838  13.132  19.841  0.00  0.00    +0.000 NA
ATOM     30  C   UNL     1      -0.564  13.258  20.252  0.00  0.00    +0.000 A 
ATOM     31  C   UNL     1      -0.291  14.227  21.207  0.00  0.00    +0.000 A 
ATOM     32  C   UNL     1       0.995  14.449  21.689  0.00  0.00    +0.000 A 
ATOM     33  C   UNL     1       2.054  13.718  21.178  0.00  0.00    +0.000 A 
ATOM     34  C   UNL     1       1.801  12.745  20.218  0.00  0.00    +0.000 A 
ATOM     35  C   UNL     1       0.484  12.464  19.766  0.00  0.00    +0.000 A 
ATOM     36  C   UNL     1       0.131  11.417  18.864  0.00  0.00    +0.000 A 
ATOM     37  C   UNL     1      -1.207  11.300  18.399  0.00  0.00    +0.000 A 
ATOM     38  C   UNL     1      -1.655  10.319  17.478  0.00  0.00    +0.000 A 
ENDBRANCH  22  36
ENDBRANCH   1  22
TORSDOF 4
ENDMDL
MODEL 9
REMARK VINA RESULT:      -9.6      1.805      4.112
REMARK  Name = 
REMARK  5 active torsions:
REMARK  status: ('A' for Active; 'I' for Inactive)
REMARK    1  A    between atoms: C_1  and  C_2
REMARK    2  A    between atoms: C_13  and  N_14
REMARK    3  A    between atoms: N_14  and  C_15
REMARK    4  A    between atoms: C_19  and  C_20
REMARK    5  A    between atoms: C_23  and  C_24
REMARK                            x       y       z     vdW  Elec       q    Type
REMARK                         _______ _______ _______ _____ _____    ______ ____
ROOT
ATOM      1  C   UNL     1      -0.089  10.491  20.739  0.00  0.00    +0.000 A 
ATOM      2  C   UNL     1      -0.196  10.503  22.135  0.00  0.00    +0.000 A 
ATOM      3  C   UNL     1       0.340   9.469  22.898  0.00  0.00    +0.000 A 
ATOM      4  C   UNL     1       0.990   8.406  22.266  0.00  0.00    +0.000 A 
ATOM      5  C   UNL     1       1.103   8.369  20.872  0.00  0.00    +0.000 A 
ATOM      6  C   UNL     1       0.595   9.430  20.128  0.00  0.00    +0.000 A 
ENDROOT
BRANCH   5   7
ATOM      7  C   UNL     1       1.821   7.276  20.236  0.00  0.00    +0.000 A 
ATOM      8  N   UNL     1       1.383   6.039  20.246  0.00  0.00    +0.000 NA
ATOM      9  C   UNL     1       2.442   5.279  19.839  0.00  0.00    +0.000 A 
ATOM     10  C   UNL     1       2.704   3.932  20.091  0.00  0.00    +0.000 A 
ATOM     11  C   UNL     1       3.828   3.364  19.489  0.00  0.00    +0.000 A 
ATOM     12  C   UNL     1       4.692   4.137  18.694  0.00  0.00    +0.000 A 
ATOM     13  C   UNL     1       4.533   5.527  18.598  0.00  0.00    +0.000 A 
ATOM     14  C   UNL     1       3.421   6.062  19.250  0.00  0.00    +0.000 A 
ATOM     15  N   UNL     1       3.080   7.328  19.669  0.00  0.00    +0.000 N 
ATOM     16  H   UNL     1       3.726   8.098  19.753  0.00  0.00    +0.000 HD
BRANCH  10  17
ATOM     17  C   UNL     1       1.977   3.281  21.206  0.00  0.00    +0.000 C 
ATOM     18  N   UNL     1       0.680   2.903  20.968  0.00  0.00    +0.000 N 
ATOM     19  O   UNL     1       2.473   3.201  22.323  0.00  0.00    +0.000 OA
ATOM     20  H   UNL     1       0.232   3.229  20.112  0.00  0.00    +0.000 HD
ATOM     21  H   UNL     1       0.077   2.806  21.773  0.00  0.00    +0.000 HD
ENDBRANCH  10  17
ENDBRANCH   5   7
BRANCH   1  22
ATOM     22  N   UNL     1      -0.620  11.540  19.963  0.00  0.00    +0.000 N 
ATOM     23  H   UNL     1      -0.088  12.403  19.965  0.00  0.00    +0.000 HD
BRANCH  22  36
ATOM     24  C   UNL     1      -2.862  14.280  23.827  0.00  0.00    +0.000 C 
ATOM     25  C   UNL     1      -3.320  13.719  22.513  0.00  0.00    +0.000 A 
ATOM     26  C   UNL     1      -4.628  13.893  22.074  0.00  0.00    +0.000 A 
ATOM     27  C   UNL     1      -5.030  13.374  20.844  0.00  0.00    +0.000 A 
ATOM     28  C   UNL     1      -4.155  12.676  20.018  0.00  0.00    +0.000 A 
ATOM     29  N   UNL     1      -4.623  12.247  18.846  0.00  0.00    +0.000 NA
ATOM     30  C   UNL     1      -3.824  11.526  18.040  0.00  0.00    +0.000 A 
ATOM     31  C   UNL     1      -4.346  11.110  16.823  0.00  0.00    +0.000 A 
ATOM     32  C   UNL     1      -3.608  10.348  15.923  0.00  0.00    +0.000 A 
ATOM     33  C   UNL     1      -2.325   9.947  16.255  0.00  0.00    +0.000 A 
ATOM     34  C   UNL     1      -1.786  10.351  17.471  0.00  0.00    +0.000 A 
ATOM     35  C   UNL     1      -2.505  11.184  18.370  0.00  0.00    +0.000 A 
ATOM     36  C   UNL     1      -1.986  11.723  19.584  0.00  0.00    +0.000 A 
ATOM     37  C   UNL     1      -2.835  12.456  20.457  0.00  0.00    +0.000 A 
ATOM     38  C   UNL     1      -2.429  13.004  21.700  0.00  0.00    +0.000 A 
ENDBRANCH  22  36
ENDBRANCH   1  22
TORSDOF 4
ENDMDL
