MODEL 1
REMARK VINA RESULT:      -9.0      0.000      0.000
REMARK  Name = 
REMARK  4 active torsions:
REMARK  status: ('A' for Active; 'I' for Inactive)
REMARK    1  A    between atoms: C_1  and  C_2
REMARK    2  A    between atoms: C_7  and  C_8
REMARK    3  A    between atoms: C_13  and  O_14
REMARK    4  A    between atoms: O_14  and  C_15
REMARK                            x       y       z     vdW  Elec       q    Type
REMARK                         _______ _______ _______ _____ _____    ______ ____
ROOT
ATOM      1  O   UNL     1       2.862   6.123  17.503  0.00  0.00    +0.000 OA
ENDROOT
BRANCH   1   2
ATOM      2  C   UNL     1       2.957   7.208  18.477  0.00  0.00    +0.000 C 
ATOM      3  C   UNL     1       2.063   8.447  18.226  0.00  0.00    +0.000 C 
ATOM      4  N   UNL     1       1.378   8.187  19.448  0.00  0.00    +0.000 N 
ATOM      5  C   UNL     1       0.774   9.095  20.356  0.00  0.00    +0.000 A 
ATOM      6  C   UNL     1       0.089   8.556  21.444  0.00  0.00    +0.000 A 
ATOM      7  C   UNL     1      -0.552   9.390  22.349  0.00  0.00    +0.000 A 
ATOM      8  C   UNL     1      -0.486  10.772  22.181  0.00  0.00    +0.000 A 
ATOM      9  C   UNL     1      -1.108  11.641  23.100  0.00  0.00    +0.000 A 
ATOM     10  C   UNL     1      -1.001  13.019  22.953  0.00  0.00    +0.000 A 
ATOM     11  C   UNL     1      -0.278  13.524  21.880  0.00  0.00    +0.000 A 
ATOM     12  C   UNL     1       0.320  12.652  20.955  0.00  0.00    +0.000 A 
ATOM     13  C   UNL     1       0.236  11.264  21.075  0.00  0.00    +0.000 A 
ATOM     14  N   UNL     1       0.830  10.438  20.170  0.00  0.00    +0.000 NA
ATOM     15  C   UNL     1       2.210   7.077  19.813  0.00  0.00    +0.000 C 
ENDBRANCH   1   2
BRANCH   1  21
ATOM     16  C   UNL     1       3.834   4.073  18.394  0.00  0.00    +0.000 A 
ATOM     17  N   UNL     1       3.660   2.785  18.818  0.00  0.00    +0.000 NA
ATOM     18  C   UNL     1       2.412   2.280  18.790  0.00  0.00    +0.000 A 
ATOM     19  C   UNL     1       1.330   3.039  18.401  0.00  0.00    +0.000 A 
ATOM     20  N   UNL     1       1.447   4.331  18.014  0.00  0.00    +0.000 NA
ATOM     21  C   UNL     1       2.710   4.836  18.001  0.00  0.00    +0.000 A 
BRANCH  16  28
ATOM     22  C   UNL     1       5.709   3.857  15.949  0.00  0.00    +0.000 C 
ATOM     23  C   UNL     1       6.118   4.445  17.277  0.00  0.00    +0.000 A 
ATOM     24  C   UNL     1       7.448   4.887  17.390  0.00  0.00    +0.000 A 
ATOM     25  C   UNL     1       7.890   5.392  18.598  0.00  0.00    +0.000 A 
ATOM     26  N   UNL     1       7.119   5.463  19.696  0.00  0.00    +0.000 NA
ATOM     27  C   UNL     1       5.840   5.022  19.571  0.00  0.00    +0.000 A 
ATOM     28  C   UNL     1       5.250   4.524  18.403  0.00  0.00    +0.000 A 
ENDBRANCH  16  28
ENDBRANCH   1  21
TORSDOF 3
ENDMDL
MODEL 2
REMARK VINA RESULT:      -8.9      5.139      7.881
REMARK  Name = 
REMARK  4 active torsions:
REMARK  status: ('A' for Active; 'I' for Inactive)
REMARK    1  A    between atoms: C_1  and  C_2
REMARK    2  A    between atoms: C_7  and  C_8
REMARK    3  A    between atoms: C_13  and  O_14
REMARK    4  A    between atoms: O_14  and  C_15
REMARK                            x       y       z     vdW  Elec       q    Type
REMARK                         _______ _______ _______ _____ _____    ______ ____
ROOT
ATOM      1  O   UNL     1       6.713   6.732  17.974  0.00  0.00    +0.000 OA
ENDROOT
BRANCH   1   2
ATOM      2  C   UNL     1       7.967   7.466  17.814  0.00  0.00    +0.000 C 
ATOM      3  C   UNL     1       7.854   8.941  17.360  0.00  0.00    +0.000 C 
ATOM      4  N   UNL     1       8.443   9.354  18.589  0.00  0.00    +0.000 N 
ATOM      5  C   UNL     1       9.268  10.475  18.864  0.00  0.00    +0.000 A 
ATOM      6  C   UNL     1       9.640  10.690  20.191  0.00  0.00    +0.000 A 
ATOM      7  C   UNL     1      10.418  11.788  20.529  0.00  0.00    +0.000 A 
ATOM      8  C   UNL     1      10.849  12.662  19.534  0.00  0.00    +0.000 A 
ATOM      9  C   UNL     1      11.660  13.771  19.849  0.00  0.00    +0.000 A 
ATOM     10  C   UNL     1      12.125  14.614  18.847  0.00  0.00    +0.000 A 
ATOM     11  C   UNL     1      11.768  14.350  17.531  0.00  0.00    +0.000 A 
ATOM     12  C   UNL     1      10.941  13.257  17.226  0.00  0.00    +0.000 A 
ATOM     13  C   UNL     1      10.461  12.388  18.207  0.00  0.00    +0.000 A 
ATOM     14  N   UNL     1       9.666  11.329  17.888  0.00  0.00    +0.000 NA
ATOM     15  C   UNL     1       8.671   8.019  19.062  0.00  0.00    +0.000 C 
ENDBRANCH   1   2
BRANCH   1  21
ATOM     16  C   UNL     1       5.189   5.065  17.057  0.00  0.00    +0.000 A 
ATOM     17  N   UNL     1       4.896   4.168  16.068  0.00  0.00    +0.000 NA
ATOM     18  C   UNL     1       5.773   4.045  15.054  0.00  0.00    +0.000 A 
ATOM     19  C   UNL     1       6.905   4.828  14.974  0.00  0.00    +0.000 A 
ATOM     20  N   UNL     1       7.215   5.759  15.906  0.00  0.00    +0.000 NA
ATOM     21  C   UNL     1       6.354   5.861  16.955  0.00  0.00    +0.000 A 
BRANCH  16  28
ATOM     22  C   UNL     1       3.343   7.471  17.639  0.00  0.00    +0.000 C 
ATOM     23  C   UNL     1       3.327   6.185  18.429  0.00  0.00    +0.000 A 
ATOM     24  C   UNL     1       2.429   6.116  19.508  0.00  0.00    +0.000 A 
ATOM     25  C   UNL     1       2.404   4.980  20.293  0.00  0.00    +0.000 A 
ATOM     26  N   UNL     1       3.221   3.930  20.100  0.00  0.00    +0.000 NA
ATOM     27  C   UNL     1       4.090   4.019  19.059  0.00  0.00    +0.000 A 
ATOM     28  C   UNL     1       4.196   5.089  18.162  0.00  0.00    +0.000 A 
ENDBRANCH  16  28
ENDBRANCH   1  21
TORSDOF 3
ENDMDL
MODEL 3
REMARK VINA RESULT:      -8.6      5.252      7.956
REMARK  Name = 
REMARK  4 active torsions:
REMARK  status: ('A' for Active; 'I' for Inactive)
REMARK    1  A    between atoms: C_1  and  C_2
REMARK    2  A    between atoms: C_7  and  C_8
REMARK    3  A    between atoms: C_13  and  O_14
REMARK    4  A    between atoms: O_14  and  C_15
REMARK                            x       y       z     vdW  Elec       q    Type
REMARK                         _______ _______ _______ _____ _____    ______ ____
ROOT
ATOM      1  O   UNL     1       6.698   6.948  17.993  0.00  0.00    +0.000 OA
ENDROOT
BRANCH   1   2
ATOM      2  C   UNL     1       7.945   7.677  17.769  0.00  0.00    +0.000 C 
ATOM      3  C   UNL     1       7.816   9.167  17.368  0.00  0.00    +0.000 C 
ATOM      4  N   UNL     1       8.491   9.537  18.566  0.00  0.00    +0.000 N 
ATOM      5  C   UNL     1       9.344  10.644  18.818  0.00  0.00    +0.000 A 
ATOM      6  C   UNL     1       9.808  10.815  20.121  0.00  0.00    +0.000 A 
ATOM      7  C   UNL     1      10.617  11.896  20.438  0.00  0.00    +0.000 A 
ATOM      8  C   UNL     1      10.987  12.797  19.442  0.00  0.00    +0.000 A 
ATOM      9  C   UNL     1      11.829  13.890  19.734  0.00  0.00    +0.000 A 
ATOM     10  C   UNL     1      12.232  14.760  18.729  0.00  0.00    +0.000 A 
ATOM     11  C   UNL     1      11.784  14.539  17.433  0.00  0.00    +0.000 A 
ATOM     12  C   UNL     1      10.927  13.461  17.153  0.00  0.00    +0.000 A 
ATOM     13  C   UNL     1      10.507  12.567  18.138  0.00  0.00    +0.000 A 
ATOM     14  N   UNL     1       9.682  11.524  17.842  0.00  0.00    +0.000 NA
ATOM     15  C   UNL     1       8.738   8.187  18.982  0.00  0.00    +0.000 C 
ENDBRANCH   1   2
BRANCH   1  21
ATOM     16  C   UNL     1       5.139   5.263  17.174  0.00  0.00    +0.000 A 
ATOM     17  N   UNL     1       4.849   4.283  16.266  0.00  0.00    +0.000 NA
ATOM     18  C   UNL     1       5.763   4.021  15.313  0.00  0.00    +0.000 A 
ATOM     19  C   UNL     1       6.933   4.742  15.211  0.00  0.00    +0.000 A 
ATOM     20  N   UNL     1       7.245   5.749  16.059  0.00  0.00    +0.000 NA
ATOM     21  C   UNL     1       6.344   5.994  17.049  0.00  0.00    +0.000 A 
BRANCH  16  28
ATOM     22  C   UNL     1       4.598   3.201  19.407  0.00  0.00    +0.000 C 
ATOM     23  C   UNL     1       3.854   4.506  19.265  0.00  0.00    +0.000 A 
ATOM     24  C   UNL     1       2.837   4.760  20.203  0.00  0.00    +0.000 A 
ATOM     25  C   UNL     1       2.093   5.918  20.093  0.00  0.00    +0.000 A 
ATOM     26  N   UNL     1       2.268   6.819  19.111  0.00  0.00    +0.000 NA
ATOM     27  C   UNL     1       3.248   6.552  18.208  0.00  0.00    +0.000 A 
ATOM     28  C   UNL     1       4.100   5.442  18.221  0.00  0.00    +0.000 A 
ENDBRANCH  16  28
ENDBRANCH   1  21
TORSDOF 3
ENDMDL
MODEL 4
REMARK VINA RESULT:      -8.4      4.769      7.169
REMARK  Name = 
REMARK  4 active torsions:
REMARK  status: ('A' for Active; 'I' for Inactive)
REMARK    1  A    between atoms: C_1  and  C_2
REMARK    2  A    between atoms: C_7  and  C_8
REMARK    3  A    between atoms: C_13  and  O_14
REMARK    4  A    between atoms: O_14  and  C_15
REMARK                            x       y       z     vdW  Elec       q    Type
REMARK                         _______ _______ _______ _____ _____    ______ ____
ROOT
ATOM      1  O   UNL     1       7.672   5.439  17.519  0.00  0.00    +0.000 OA
ENDROOT
BRANCH   1   2
ATOM      2  C   UNL     1       7.347   6.689  18.203  0.00  0.00    +0.000 C 
ATOM      3  C   UNL     1       8.438   7.278  19.129  0.00  0.00    +0.000 C 
ATOM      4  N   UNL     1       8.511   8.429  18.294  0.00  0.00    +0.000 N 
ATOM      5  C   UNL     1       8.814   9.774  18.632  0.00  0.00    +0.000 A 
ATOM      6  C   UNL     1       8.901  10.695  17.590  0.00  0.00    +0.000 A 
ATOM      7  C   UNL     1       9.227  12.018  17.853  0.00  0.00    +0.000 A 
ATOM      8  C   UNL     1       9.443  12.428  19.166  0.00  0.00    +0.000 A 
ATOM      9  C   UNL     1       9.752  13.772  19.462  0.00  0.00    +0.000 A 
ATOM     10  C   UNL     1       9.922  14.186  20.777  0.00  0.00    +0.000 A 
ATOM     11  C   UNL     1       9.791  13.250  21.795  0.00  0.00    +0.000 A 
ATOM     12  C   UNL     1       9.505  11.909  21.493  0.00  0.00    +0.000 A 
ATOM     13  C   UNL     1       9.325  11.460  20.184  0.00  0.00    +0.000 A 
ATOM     14  N   UNL     1       9.040  10.156  19.914  0.00  0.00    +0.000 NA
ATOM     15  C   UNL     1       7.447   8.011  17.427  0.00  0.00    +0.000 C 
ENDBRANCH   1   2
BRANCH   1  21
ATOM     16  C   UNL     1       5.590   4.764  16.447  0.00  0.00    +0.000 A 
ATOM     17  N   UNL     1       4.923   4.410  15.307  0.00  0.00    +0.000 NA
ATOM     18  C   UNL     1       5.620   4.384  14.156  0.00  0.00    +0.000 A 
ATOM     19  C   UNL     1       6.948   4.750  14.103  0.00  0.00    +0.000 A 
ATOM     20  N   UNL     1       7.638   5.149  15.196  0.00  0.00    +0.000 NA
ATOM     21  C   UNL     1       6.951   5.139  16.371  0.00  0.00    +0.000 A 
BRANCH  16  28
ATOM     22  C   UNL     1       3.823   7.103  17.418  0.00  0.00    +0.000 C 
ATOM     23  C   UNL     1       3.923   5.772  18.123  0.00  0.00    +0.000 A 
ATOM     24  C   UNL     1       3.179   5.626  19.307  0.00  0.00    +0.000 A 
ATOM     25  C   UNL     1       3.269   4.445  20.018  0.00  0.00    +0.000 A 
ATOM     26  N   UNL     1       4.060   3.421  19.652  0.00  0.00    +0.000 NA
ATOM     27  C   UNL     1       4.779   3.584  18.511  0.00  0.00    +0.000 A 
ATOM     28  C   UNL     1       4.755   4.707  17.675  0.00  0.00    +0.000 A 
ENDBRANCH  16  28
ENDBRANCH   1  21
TORSDOF 3
ENDMDL
MODEL 5
REMARK VINA RESULT:      -8.4      1.498      3.126
REMARK  Name = 
REMARK  4 active torsions:
REMARK  status: ('A' for Active; 'I' for Inactive)
REMARK    1  A    between atoms: C_1  and  C_2
REMARK    2  A    between atoms: C_7  and  C_8
REMARK    3  A    between atoms: C_13  and  O_14
REMARK    4  A    between atoms: O_14  and  C_15
REMARK                            x       y       z     vdW  Elec       q    Type
REMARK                         _______ _______ _______ _____ _____    ______ ____
ROOT
ATOM      1  O   UNL     1       2.622   6.613  17.832  0.00  0.00    +0.000 OA
ENDROOT
BRANCH   1   2
ATOM      2  C   UNL     1       2.647   7.827  18.645  0.00  0.00    +0.000 C 
ATOM      3  C   UNL     1       1.537   8.871  18.369  0.00  0.00    +0.000 C 
ATOM      4  N   UNL     1       1.050   8.688  19.694  0.00  0.00    +0.000 N 
ATOM      5  C   UNL     1       0.412   9.616  20.559  0.00  0.00    +0.000 A 
ATOM      6  C   UNL     1      -0.045   9.142  21.787  0.00  0.00    +0.000 A 
ATOM      7  C   UNL     1      -0.706   9.991  22.662  0.00  0.00    +0.000 A 
ATOM      8  C   UNL     1      -0.889  11.329  22.319  0.00  0.00    +0.000 A 
ATOM      9  C   UNL     1      -1.536  12.218  23.201  0.00  0.00    +0.000 A 
ATOM     10  C   UNL     1      -1.676  13.562  22.875  0.00  0.00    +0.000 A 
ATOM     11  C   UNL     1      -1.175  14.011  21.660  0.00  0.00    +0.000 A 
ATOM     12  C   UNL     1      -0.551  13.115  20.776  0.00  0.00    +0.000 A 
ATOM     13  C   UNL     1      -0.391  11.761  21.074  0.00  0.00    +0.000 A 
ATOM     14  N   UNL     1       0.225  10.912  20.205  0.00  0.00    +0.000 NA
ATOM     15  C   UNL     1       2.090   7.777  20.076  0.00  0.00    +0.000 C 
ENDBRANCH   1   2
BRANCH   1  21
ATOM     16  C   UNL     1       4.066   4.732  18.395  0.00  0.00    +0.000 A 
ATOM     17  N   UNL     1       5.280   4.114  18.277  0.00  0.00    +0.000 NA
ATOM     18  C   UNL     1       6.215   4.712  17.516  0.00  0.00    +0.000 A 
ATOM     19  C   UNL     1       5.957   5.879  16.830  0.00  0.00    +0.000 A 
ATOM     20  N   UNL     1       4.758   6.504  16.881  0.00  0.00    +0.000 NA
ATOM     21  C   UNL     1       3.819   5.927  17.681  0.00  0.00    +0.000 A 
BRANCH  16  28
ATOM     22  C   UNL     1       2.367   2.301  17.535  0.00  0.00    +0.000 C 
ATOM     23  C   UNL     1       2.345   2.898  18.921  0.00  0.00    +0.000 A 
ATOM     24  C   UNL     1       1.466   2.312  19.849  0.00  0.00    +0.000 A 
ATOM     25  C   UNL     1       1.370   2.847  21.118  0.00  0.00    +0.000 A 
ATOM     26  N   UNL     1       2.059   3.930  21.518  0.00  0.00    +0.000 NA
ATOM     27  C   UNL     1       2.896   4.490  20.605  0.00  0.00    +0.000 A 
ATOM     28  C   UNL     1       3.119   4.031  19.301  0.00  0.00    +0.000 A 
ENDBRANCH  16  28
ENDBRANCH   1  21
TORSDOF 3
ENDMDL
MODEL 6
REMARK VINA RESULT:      -8.4      1.912      2.653
REMARK  Name = 
REMARK  4 active torsions:
REMARK  status: ('A' for Active; 'I' for Inactive)
REMARK    1  A    between atoms: C_1  and  C_2
REMARK    2  A    between atoms: C_7  and  C_8
REMARK    3  A    between atoms: C_13  and  O_14
REMARK    4  A    between atoms: O_14  and  C_15
REMARK                            x       y       z     vdW  Elec       q    Type
REMARK                         _______ _______ _______ _____ _____    ______ ____
ROOT
ATOM      1  O   UNL     1       2.636   5.577  18.421  0.00  0.00    +0.000 OA
ENDROOT
BRANCH   1   2
ATOM      2  C   UNL     1       2.941   6.921  18.909  0.00  0.00    +0.000 C 
ATOM      3  C   UNL     1       2.700   8.089  17.923  0.00  0.00    +0.000 C 
ATOM      4  N   UNL     1       1.716   8.619  18.807  0.00  0.00    +0.000 N 
ATOM      5  C   UNL     1       1.343   9.968  19.040  0.00  0.00    +0.000 A 
ATOM      6  C   UNL     1       0.277  10.200  19.907  0.00  0.00    +0.000 A 
ATOM      7  C   UNL     1      -0.157  11.496  20.149  0.00  0.00    +0.000 A 
ATOM      8  C   UNL     1       0.494  12.567  19.542  0.00  0.00    +0.000 A 
ATOM      9  C   UNL     1       0.088  13.894  19.792  0.00  0.00    +0.000 A 
ATOM     10  C   UNL     1       0.769  14.961  19.220  0.00  0.00    +0.000 A 
ATOM     11  C   UNL     1       1.852  14.697  18.391  0.00  0.00    +0.000 A 
ATOM     12  C   UNL     1       2.237  13.373  18.129  0.00  0.00    +0.000 A 
ATOM     13  C   UNL     1       1.578  12.278  18.690  0.00  0.00    +0.000 A 
ATOM     14  N   UNL     1       1.975  11.002  18.427  0.00  0.00    +0.000 NA
ATOM     15  C   UNL     1       1.928   7.629  19.823  0.00  0.00    +0.000 C 
ENDBRANCH   1   2
BRANCH   1  21
ATOM     16  C   UNL     1       4.285   3.839  18.869  0.00  0.00    +0.000 A 
ATOM     17  N   UNL     1       4.664   2.749  19.602  0.00  0.00    +0.000 NA
ATOM     18  C   UNL     1       3.833   2.327  20.573  0.00  0.00    +0.000 A 
ATOM     19  C   UNL     1       2.662   2.992  20.866  0.00  0.00    +0.000 A 
ATOM     20  N   UNL     1       2.266   4.100  20.198  0.00  0.00    +0.000 NA
ATOM     21  C   UNL     1       3.081   4.509  19.188  0.00  0.00    +0.000 A 
BRANCH  16  28
ATOM     22  C   UNL     1       6.839   5.514  19.319  0.00  0.00    +0.000 C 
ATOM     23  C   UNL     1       6.424   4.950  17.982  0.00  0.00    +0.000 A 
ATOM     24  C   UNL     1       7.254   5.246  16.886  0.00  0.00    +0.000 A 
ATOM     25  C   UNL     1       6.897   4.795  15.630  0.00  0.00    +0.000 A 
ATOM     26  N   UNL     1       5.772   4.101  15.385  0.00  0.00    +0.000 NA
ATOM     27  C   UNL     1       4.978   3.833  16.455  0.00  0.00    +0.000 A 
ATOM     28  C   UNL     1       5.235   4.194  17.783  0.00  0.00    +0.000 A 
ENDBRANCH  16  28
ENDBRANCH   1  21
TORSDOF 3
ENDMDL
MODEL 7
REMARK VINA RESULT:      -8.3      1.031      1.527
REMARK  Name = 
REMARK  4 active torsions:
REMARK  status: ('A' for Active; 'I' for Inactive)
REMARK    1  A    between atoms: C_1  and  C_2
REMARK    2  A    between atoms: C_7  and  C_8
REMARK    3  A    between atoms: C_13  and  O_14
REMARK    4  A    between atoms: O_14  and  C_15
REMARK                            x       y       z     vdW  Elec       q    Type
REMARK                         _______ _______ _______ _____ _____    ______ ____
ROOT
ATOM      1  O   UNL     1       2.804   6.139  17.637  0.00  0.00    +0.000 OA
ENDROOT
BRANCH   1   2
ATOM      2  C   UNL     1       2.923   7.265  18.562  0.00  0.00    +0.000 C 
ATOM      3  C   UNL     1       2.048   8.506  18.261  0.00  0.00    +0.000 C 
ATOM      4  N   UNL     1       1.366   8.312  19.496  0.00  0.00    +0.000 N 
ATOM      5  C   UNL     1       0.783   9.270  20.366  0.00  0.00    +0.000 A 
ATOM      6  C   UNL     1       0.095   8.792  21.481  0.00  0.00    +0.000 A 
ATOM      7  C   UNL     1      -0.526   9.677  22.351  0.00  0.00    +0.000 A 
ATOM      8  C   UNL     1      -0.437  11.048  22.121  0.00  0.00    +0.000 A 
ATOM      9  C   UNL     1      -1.039  11.968  23.004  0.00  0.00    +0.000 A 
ATOM     10  C   UNL     1      -0.910  13.335  22.796  0.00  0.00    +0.000 A 
ATOM     11  C   UNL     1      -0.185  13.780  21.697  0.00  0.00    +0.000 A 
ATOM     12  C   UNL     1       0.393  12.858  20.809  0.00  0.00    +0.000 A 
ATOM     13  C   UNL     1       0.286  11.478  20.991  0.00  0.00    +0.000 A 
ATOM     14  N   UNL     1       0.861  10.602  20.121  0.00  0.00    +0.000 NA
ATOM     15  C   UNL     1       2.181   7.206  19.906  0.00  0.00    +0.000 C 
ENDBRANCH   1   2
BRANCH   1  21
ATOM     16  C   UNL     1       3.782   3.937  18.001  0.00  0.00    +0.000 A 
ATOM     17  N   UNL     1       3.657   2.671  18.503  0.00  0.00    +0.000 NA
ATOM     18  C   UNL     1       2.503   2.352  19.119  0.00  0.00    +0.000 A 
ATOM     19  C   UNL     1       1.494   3.274  19.292  0.00  0.00    +0.000 A 
ATOM     20  N   UNL     1       1.588   4.549  18.851  0.00  0.00    +0.000 NA
ATOM     21  C   UNL     1       2.735   4.869  18.192  0.00  0.00    +0.000 A 
BRANCH  16  28
ATOM     22  C   UNL     1       6.250   5.236  19.325  0.00  0.00    +0.000 C 
ATOM     23  C   UNL     1       6.213   4.760  17.893  0.00  0.00    +0.000 A 
ATOM     24  C   UNL     1       7.377   4.959  17.130  0.00  0.00    +0.000 A 
ATOM     25  C   UNL     1       7.383   4.585  15.800  0.00  0.00    +0.000 A 
ATOM     26  N   UNL     1       6.316   4.058  15.176  0.00  0.00    +0.000 NA
ATOM     27  C   UNL     1       5.197   3.881  15.927  0.00  0.00    +0.000 A 
ATOM     28  C   UNL     1       5.063   4.179  17.288  0.00  0.00    +0.000 A 
ENDBRANCH  16  28
ENDBRANCH   1  21
TORSDOF 3
ENDMDL
MODEL 8
REMARK VINA RESULT:      -8.3      1.165      1.224
REMARK  Name = 
REMARK  4 active torsions:
REMARK  status: ('A' for Active; 'I' for Inactive)
REMARK    1  A    between atoms: C_1  and  C_2
REMARK    2  A    between atoms: C_7  and  C_8
REMARK    3  A    between atoms: C_13  and  O_14
REMARK    4  A    between atoms: O_14  and  C_15
REMARK                            x       y       z     vdW  Elec       q    Type
REMARK                         _______ _______ _______ _____ _____    ______ ____
ROOT
ATOM      1  O   UNL     1       2.573   5.704  18.799  0.00  0.00    +0.000 OA
ENDROOT
BRANCH   1   2
ATOM      2  C   UNL     1       2.717   6.926  19.587  0.00  0.00    +0.000 C 
ATOM      3  C   UNL     1       1.987   8.184  19.058  0.00  0.00    +0.000 C 
ATOM      4  N   UNL     1       1.191   8.207  20.239  0.00  0.00    +0.000 N 
ATOM      5  C   UNL     1       0.628   9.312  20.929  0.00  0.00    +0.000 A 
ATOM      6  C   UNL     1      -0.189   9.038  22.024  0.00  0.00    +0.000 A 
ATOM      7  C   UNL     1      -0.796  10.074  22.719  0.00  0.00    +0.000 A 
ATOM      8  C   UNL     1      -0.565  11.392  22.334  0.00  0.00    +0.000 A 
ATOM      9  C   UNL     1      -1.151  12.464  23.040  0.00  0.00    +0.000 A 
ATOM     10  C   UNL     1      -0.881  13.778  22.680  0.00  0.00    +0.000 A 
ATOM     11  C   UNL     1      -0.031  14.018  21.608  0.00  0.00    +0.000 A 
ATOM     12  C   UNL     1       0.531  12.946  20.895  0.00  0.00    +0.000 A 
ATOM     13  C   UNL     1       0.285  11.615  21.232  0.00  0.00    +0.000 A 
ATOM     14  N   UNL     1       0.847  10.591  20.532  0.00  0.00    +0.000 NA
ATOM     15  C   UNL     1       1.866   7.100  20.854  0.00  0.00    +0.000 C 
ENDBRANCH   1   2
BRANCH   1  21
ATOM     16  C   UNL     1       4.425   4.160  19.152  0.00  0.00    +0.000 A 
ATOM     17  N   UNL     1       4.874   2.968  19.650  0.00  0.00    +0.000 NA
ATOM     18  C   UNL     1       3.982   2.171  20.266  0.00  0.00    +0.000 A 
ATOM     19  C   UNL     1       2.670   2.551  20.445  0.00  0.00    +0.000 A 
ATOM     20  N   UNL     1       2.189   3.738  20.009  0.00  0.00    +0.000 NA
ATOM     21  C   UNL     1       3.075   4.533  19.349  0.00  0.00    +0.000 A 
BRANCH  16  28
ATOM     22  C   UNL     1       4.656   4.280  16.076  0.00  0.00    +0.000 C 
ATOM     23  C   UNL     1       5.570   5.022  17.020  0.00  0.00    +0.000 A 
ATOM     24  C   UNL     1       6.599   5.783  16.438  0.00  0.00    +0.000 A 
ATOM     25  C   UNL     1       7.493   6.445  17.256  0.00  0.00    +0.000 A 
ATOM     26  N   UNL     1       7.453   6.383  18.598  0.00  0.00    +0.000 NA
ATOM     27  C   UNL     1       6.458   5.635  19.143  0.00  0.00    +0.000 A 
ATOM     28  C   UNL     1       5.465   4.945  18.438  0.00  0.00    +0.000 A 
ENDBRANCH  16  28
ENDBRANCH   1  21
TORSDOF 3
ENDMDL
MODEL 9
REMARK VINA RESULT:      -8.2      1.869      3.460
REMARK  Name = 
REMARK  4 active torsions:
REMARK  status: ('A' for Active; 'I' for Inactive)
REMARK    1  A    between atoms: C_1  and  C_2
REMARK    2  A    between atoms: C_7  and  C_8
REMARK    3  A    between atoms: C_13  and  O_14
REMARK    4  A    between atoms: O_14  and  C_15
REMARK                            x       y       z     vdW  Elec       q    Type
REMARK                         _______ _______ _______ _____ _____    ______ ____
ROOT
ATOM      1  O   UNL     1       2.647   6.607  17.844  0.00  0.00    +0.000 OA
ENDROOT
BRANCH   1   2
ATOM      2  C   UNL     1       2.714   7.940  18.440  0.00  0.00    +0.000 C 
ATOM      3  C   UNL     1       1.957   9.070  17.700  0.00  0.00    +0.000 C 
ATOM      4  N   UNL     1       1.116   9.237  18.837  0.00  0.00    +0.000 N 
ATOM      5  C   UNL     1       0.485  10.409  19.330  0.00  0.00    +0.000 A 
ATOM      6  C   UNL     1      -0.364  10.269  20.427  0.00  0.00    +0.000 A 
ATOM      7  C   UNL     1      -1.037  11.371  20.934  0.00  0.00    +0.000 A 
ATOM      8  C   UNL     1      -0.841  12.624  20.359  0.00  0.00    +0.000 A 
ATOM      9  C   UNL     1      -1.494  13.764  20.872  0.00  0.00    +0.000 A 
ATOM     10  C   UNL     1      -1.261  15.019  20.323  0.00  0.00    +0.000 A 
ATOM     11  C   UNL     1      -0.379  15.130  19.256  0.00  0.00    +0.000 A 
ATOM     12  C   UNL     1       0.251  13.988  18.735  0.00  0.00    +0.000 A 
ATOM     13  C   UNL     1       0.042  12.713  19.264  0.00  0.00    +0.000 A 
ATOM     14  N   UNL     1       0.670  11.620  18.749  0.00  0.00    +0.000 NA
ATOM     15  C   UNL     1       1.808   8.267  19.637  0.00  0.00    +0.000 C 
ENDBRANCH   1   2
BRANCH   1  21
ATOM     16  C   UNL     1       4.086   4.728  18.427  0.00  0.00    +0.000 A 
ATOM     17  N   UNL     1       5.298   4.106  18.316  0.00  0.00    +0.000 NA
ATOM     18  C   UNL     1       6.236   4.694  17.550  0.00  0.00    +0.000 A 
ATOM     19  C   UNL     1       5.981   5.855  16.853  0.00  0.00    +0.000 A 
ATOM     20  N   UNL     1       4.784   6.483  16.897  0.00  0.00    +0.000 NA
ATOM     21  C   UNL     1       3.843   5.917  17.700  0.00  0.00    +0.000 A 
BRANCH  16  28
ATOM     22  C   UNL     1       2.421   2.261  17.604  0.00  0.00    +0.000 C 
ATOM     23  C   UNL     1       2.377   2.889  18.975  0.00  0.00    +0.000 A 
ATOM     24  C   UNL     1       1.494   2.315  19.907  0.00  0.00    +0.000 A 
ATOM     25  C   UNL     1       1.379   2.878  21.163  0.00  0.00    +0.000 A 
ATOM     26  N   UNL     1       2.053   3.977  21.545  0.00  0.00    +0.000 NA
ATOM     27  C   UNL     1       2.894   4.524  20.628  0.00  0.00    +0.000 A 
ATOM     28  C   UNL     1       3.136   4.038  19.338  0.00  0.00    +0.000 A 
ENDBRANCH  16  28
ENDBRANCH   1  21
TORSDOF 3
ENDMDL
