MODEL 1
REMARK VINA RESULT:      -7.3      0.000      0.000
REMARK  Name = 
REMARK  8 active torsions:
REMARK  status: ('A' for Active; 'I' for Inactive)
REMARK    1  A    between atoms: C_1  and  C_2
REMARK    2  A    between atoms: C_2  and  S_3
REMARK    3  A    between atoms: S_3  and  N_6
REMARK    4  A    between atoms: C_14  and  O_15
REMARK    5  A    between atoms: O_15  and  C_16
REMARK    6  A    between atoms: C_16  and  C_17
REMARK    7  A    between atoms: C_17  and  C_18
REMARK    8  A    between atoms: C_18  and  N_19
REMARK                            x       y       z     vdW  Elec       q    Type
REMARK                         _______ _______ _______ _____ _____    ______ ____
ROOT
ATOM      1  N   UNL     1       3.042   3.122  17.740  0.00  0.00    +0.000 NA
ATOM      2  C   UNL     1       3.158   2.132  18.891  0.00  0.00    +0.000 C 
ATOM      3  C   UNL     1       4.121   2.613  20.015  0.00  0.00    +0.000 C 
ATOM      4  O   UNL     1       5.369   3.176  19.556  0.00  0.00    +0.000 OA
ATOM      5  C   UNL     1       5.122   4.176  18.552  0.00  0.00    +0.000 C 
ATOM      6  C   UNL     1       4.458   3.479  17.374  0.00  0.00    +0.000 C 
ATOM      7  C   UNL     1       4.742   4.355  16.179  0.00  0.00    +0.000 C 
ATOM      8  C   UNL     1       6.159   4.883  16.453  0.00  0.00    +0.000 C 
ATOM      9  C   UNL     1       6.403   4.788  17.971  0.00  0.00    +0.000 C 
ENDROOT
BRANCH   1  10
ATOM     10  S   UNL     1       1.925   4.397  18.022  0.00  0.00    +0.000 S 
ATOM     11  O   UNL     1       0.814   4.251  17.104  0.00  0.00    +0.000 OA
ATOM     12  O   UNL     1       2.663   5.637  18.105  0.00  0.00    +0.000 OA
BRANCH  10  14
ATOM     13  C   UNL     1       1.628   5.134  20.629  0.00  0.00    +0.000 C 
ATOM     14  C   UNL     1       1.298   4.016  19.655  0.00  0.00    +0.000 C 
ENDBRANCH  10  14
ENDBRANCH   1  10
BRANCH   9  15
ATOM     15  O   UNL     1       6.647   6.110  18.483  0.00  0.00    +0.000 OA
BRANCH  15  16
ATOM     16  C   UNL     1       7.361   6.941  17.566  0.00  0.00    +0.000 C 
BRANCH  16  17
ATOM     17  C   UNL     1       8.219   7.939  18.335  0.00  0.00    +0.000 C 
BRANCH  17  18
ATOM     18  C   UNL     1       8.051   9.336  17.748  0.00  0.00    +0.000 C 
BRANCH  18  19
ATOM     19  N   UNL     1       8.893  10.330  18.385  0.00  0.00    +0.000 N 
ATOM     20  C   UNL     1       9.171  11.585  17.921  0.00  0.00    +0.000 A 
ATOM     21  C   UNL     1       9.945  12.184  18.886  0.00  0.00    +0.000 A 
ATOM     22  C   UNL     1      10.067  11.212  19.897  0.00  0.00    +0.000 A 
ATOM     23  N   UNL     1       9.422  10.082  19.598  0.00  0.00    +0.000 NA
ENDBRANCH  18  19
ENDBRANCH  17  18
ENDBRANCH  16  17
ENDBRANCH  15  16
ENDBRANCH   9  15
TORSDOF 7
ENDMDL
MODEL 2
REMARK VINA RESULT:      -7.1      3.587      6.419
REMARK  Name = 
REMARK  8 active torsions:
REMARK  status: ('A' for Active; 'I' for Inactive)
REMARK    1  A    between atoms: C_1  and  C_2
REMARK    2  A    between atoms: C_2  and  S_3
REMARK    3  A    between atoms: S_3  and  N_6
REMARK    4  A    between atoms: C_14  and  O_15
REMARK    5  A    between atoms: O_15  and  C_16
REMARK    6  A    between atoms: C_16  and  C_17
REMARK    7  A    between atoms: C_17  and  C_18
REMARK    8  A    between atoms: C_18  and  N_19
REMARK                            x       y       z     vdW  Elec       q    Type
REMARK                         _______ _______ _______ _____ _____    ______ ____
ROOT
ATOM      1  N   UNL     1       4.352   4.973  19.664  0.00  0.00    +0.000 NA
ATOM      2  C   UNL     1       3.112   5.823  19.425  0.00  0.00    +0.000 C 
ATOM      3  C   UNL     1       3.039   6.408  17.985  0.00  0.00    +0.000 C 
ATOM      4  O   UNL     1       4.275   6.964  17.485  0.00  0.00    +0.000 OA
ATOM      5  C   UNL     1       5.350   6.026  17.665  0.00  0.00    +0.000 C 
ATOM      6  C   UNL     1       5.507   5.799  19.161  0.00  0.00    +0.000 C 
ATOM      7  C   UNL     1       6.926   5.324  19.347  0.00  0.00    +0.000 C 
ATOM      8  C   UNL     1       7.710   6.124  18.296  0.00  0.00    +0.000 C 
ATOM      9  C   UNL     1       6.712   6.562  17.207  0.00  0.00    +0.000 C 
ENDROOT
BRANCH   1  10
ATOM     10  S   UNL     1       4.208   3.352  19.113  0.00  0.00    +0.000 S 
ATOM     11  O   UNL     1       5.022   2.502  19.958  0.00  0.00    +0.000 OA
ATOM     12  O   UNL     1       4.367   3.344  17.676  0.00  0.00    +0.000 OA
BRANCH  10  14
ATOM     13  C   UNL     1       1.780   2.479  18.236  0.00  0.00    +0.000 C 
ATOM     14  C   UNL     1       2.500   2.962  19.483  0.00  0.00    +0.000 C 
ENDBRANCH  10  14
ENDBRANCH   1  10
BRANCH   9  15
ATOM     15  O   UNL     1       7.120   5.991  15.951  0.00  0.00    +0.000 OA
BRANCH  15  16
ATOM     16  C   UNL     1       6.959   4.573  15.903  0.00  0.00    +0.000 C 
BRANCH  16  17
ATOM     17  C   UNL     1       6.036   4.196  14.751  0.00  0.00    +0.000 C 
BRANCH  17  18
ATOM     18  C   UNL     1       6.732   4.448  13.417  0.00  0.00    +0.000 C 
BRANCH  18  19
ATOM     19  N   UNL     1       6.472   3.416  12.433  0.00  0.00    +0.000 N 
ATOM     20  C   UNL     1       7.402   2.704  11.729  0.00  0.00    +0.000 A 
ATOM     21  C   UNL     1       6.697   1.796  10.976  0.00  0.00    +0.000 A 
ATOM     22  C   UNL     1       5.350   2.032  11.306  0.00  0.00    +0.000 A 
ATOM     23  N   UNL     1       5.208   3.015  12.199  0.00  0.00    +0.000 NA
ENDBRANCH  18  19
ENDBRANCH  17  18
ENDBRANCH  16  17
ENDBRANCH  15  16
ENDBRANCH   9  15
TORSDOF 7
ENDMDL
MODEL 3
REMARK VINA RESULT:      -7.1      3.678      6.297
REMARK  Name = 
REMARK  8 active torsions:
REMARK  status: ('A' for Active; 'I' for Inactive)
REMARK    1  A    between atoms: C_1  and  C_2
REMARK    2  A    between atoms: C_2  and  S_3
REMARK    3  A    between atoms: S_3  and  N_6
REMARK    4  A    between atoms: C_14  and  O_15
REMARK    5  A    between atoms: O_15  and  C_16
REMARK    6  A    between atoms: C_16  and  C_17
REMARK    7  A    between atoms: C_17  and  C_18
REMARK    8  A    between atoms: C_18  and  N_19
REMARK                            x       y       z     vdW  Elec       q    Type
REMARK                         _______ _______ _______ _____ _____    ______ ____
ROOT
ATOM      1  N   UNL     1       3.501   4.941  19.326  0.00  0.00    +0.000 NA
ATOM      2  C   UNL     1       2.471   6.059  19.416  0.00  0.00    +0.000 C 
ATOM      3  C   UNL     1       2.546   7.055  18.223  0.00  0.00    +0.000 C 
ATOM      4  O   UNL     1       3.878   7.470  17.851  0.00  0.00    +0.000 OA
ATOM      5  C   UNL     1       4.728   6.321  17.688  0.00  0.00    +0.000 C 
ATOM      6  C   UNL     1       4.811   5.625  19.037  0.00  0.00    +0.000 C 
ATOM      7  C   UNL     1       6.095   4.834  19.001  0.00  0.00    +0.000 C 
ATOM      8  C   UNL     1       7.046   5.736  18.200  0.00  0.00    +0.000 C 
ATOM      9  C   UNL     1       6.179   6.679  17.344  0.00  0.00    +0.000 C 
ENDROOT
BRANCH   1  10
ATOM     10  S   UNL     1       3.026   3.629  18.324  0.00  0.00    +0.000 S 
ATOM     11  O   UNL     1       4.216   2.937  17.872  0.00  0.00    +0.000 OA
ATOM     12  O   UNL     1       2.043   4.111  17.380  0.00  0.00    +0.000 OA
BRANCH  10  14
ATOM     13  C   UNL     1       0.703   2.514  19.211  0.00  0.00    +0.000 C 
ATOM     14  C   UNL     1       2.198   2.535  19.474  0.00  0.00    +0.000 C 
ENDBRANCH  10  14
ENDBRANCH   1  10
BRANCH   9  15
ATOM     15  O   UNL     1       6.476   6.445  15.956  0.00  0.00    +0.000 OA
BRANCH  15  16
ATOM     16  C   UNL     1       5.515   5.608  15.312  0.00  0.00    +0.000 C 
BRANCH  16  17
ATOM     17  C   UNL     1       6.145   4.262  14.977  0.00  0.00    +0.000 C 
BRANCH  17  18
ATOM     18  C   UNL     1       6.713   4.286  13.562  0.00  0.00    +0.000 C 
BRANCH  18  19
ATOM     19  N   UNL     1       5.951   3.484  12.625  0.00  0.00    +0.000 N 
ATOM     20  C   UNL     1       4.688   3.738  12.169  0.00  0.00    +0.000 A 
ATOM     21  C   UNL     1       4.410   2.755  11.250  0.00  0.00    +0.000 A 
ATOM     22  C   UNL     1       5.574   1.965  11.213  0.00  0.00    +0.000 A 
ATOM     23  N   UNL     1       6.518   2.409  12.046  0.00  0.00    +0.000 NA
ENDBRANCH  18  19
ENDBRANCH  17  18
ENDBRANCH  16  17
ENDBRANCH  15  16
ENDBRANCH   9  15
TORSDOF 7
ENDMDL
MODEL 4
REMARK VINA RESULT:      -6.8      3.780      6.501
REMARK  Name = 
REMARK  8 active torsions:
REMARK  status: ('A' for Active; 'I' for Inactive)
REMARK    1  A    between atoms: C_1  and  C_2
REMARK    2  A    between atoms: C_2  and  S_3
REMARK    3  A    between atoms: S_3  and  N_6
REMARK    4  A    between atoms: C_14  and  O_15
REMARK    5  A    between atoms: O_15  and  C_16
REMARK    6  A    between atoms: C_16  and  C_17
REMARK    7  A    between atoms: C_17  and  C_18
REMARK    8  A    between atoms: C_18  and  N_19
REMARK                            x       y       z     vdW  Elec       q    Type
REMARK                         _______ _______ _______ _____ _____    ______ ____
ROOT
ATOM      1  N   UNL     1       3.365   5.046  19.032  0.00  0.00    +0.000 NA
ATOM      2  C   UNL     1       2.542   6.326  19.101  0.00  0.00    +0.000 C 
ATOM      3  C   UNL     1       2.805   7.287  17.906  0.00  0.00    +0.000 C 
ATOM      4  O   UNL     1       4.195   7.464  17.555  0.00  0.00    +0.000 OA
ATOM      5  C   UNL     1       4.837   6.186  17.410  0.00  0.00    +0.000 C 
ATOM      6  C   UNL     1       4.778   5.493  18.763  0.00  0.00    +0.000 C 
ATOM      7  C   UNL     1       5.907   4.494  18.751  0.00  0.00    +0.000 C 
ATOM      8  C   UNL     1       7.012   5.214  17.963  0.00  0.00    +0.000 C 
ATOM      9  C   UNL     1       6.334   6.286  17.089  0.00  0.00    +0.000 C 
ENDROOT
BRANCH   1  10
ATOM     10  S   UNL     1       2.688   3.830  18.026  0.00  0.00    +0.000 S 
ATOM     11  O   UNL     1       3.752   3.221  17.255  0.00  0.00    +0.000 OA
ATOM     12  O   UNL     1       1.518   4.377  17.376  0.00  0.00    +0.000 OA
BRANCH  10  14
ATOM     13  C   UNL     1       0.712   2.178  18.917  0.00  0.00    +0.000 C 
ATOM     14  C   UNL     1       2.140   2.602  19.208  0.00  0.00    +0.000 C 
ENDBRANCH  10  14
ENDBRANCH   1  10
BRANCH   9  15
ATOM     15  O   UNL     1       6.608   5.997  15.707  0.00  0.00    +0.000 OA
BRANCH  15  16
ATOM     16  C   UNL     1       5.506   5.387  15.035  0.00  0.00    +0.000 C 
BRANCH  16  17
ATOM     17  C   UNL     1       5.958   4.093  14.370  0.00  0.00    +0.000 C 
BRANCH  17  18
ATOM     18  C   UNL     1       5.273   3.930  13.017  0.00  0.00    +0.000 C 
BRANCH  18  19
ATOM     19  N   UNL     1       5.971   3.023  12.127  0.00  0.00    +0.000 N 
ATOM     20  C   UNL     1       7.292   3.070  11.783  0.00  0.00    +0.000 A 
ATOM     21  C   UNL     1       7.516   1.975  10.983  0.00  0.00    +0.000 A 
ATOM     22  C   UNL     1       6.270   1.324  10.916  0.00  0.00    +0.000 A 
ATOM     23  N   UNL     1       5.326   1.956  11.618  0.00  0.00    +0.000 NA
ENDBRANCH  18  19
ENDBRANCH  17  18
ENDBRANCH  16  17
ENDBRANCH  15  16
ENDBRANCH   9  15
TORSDOF 7
ENDMDL
MODEL 5
REMARK VINA RESULT:      -6.8      4.761      6.927
REMARK  Name = 
REMARK  8 active torsions:
REMARK  status: ('A' for Active; 'I' for Inactive)
REMARK    1  A    between atoms: C_1  and  C_2
REMARK    2  A    between atoms: C_2  and  S_3
REMARK    3  A    between atoms: S_3  and  N_6
REMARK    4  A    between atoms: C_14  and  O_15
REMARK    5  A    between atoms: O_15  and  C_16
REMARK    6  A    between atoms: C_16  and  C_17
REMARK    7  A    between atoms: C_17  and  C_18
REMARK    8  A    between atoms: C_18  and  N_19
REMARK                            x       y       z     vdW  Elec       q    Type
REMARK                         _______ _______ _______ _____ _____    ______ ____
ROOT
ATOM      1  N   UNL     1       2.850   4.051  19.349  0.00  0.00    +0.000 NA
ATOM      2  C   UNL     1       2.407   4.206  20.798  0.00  0.00    +0.000 C 
ATOM      3  C   UNL     1       1.568   5.492  21.046  0.00  0.00    +0.000 C 
ATOM      4  O   UNL     1       2.084   6.691  20.426  0.00  0.00    +0.000 OA
ATOM      5  C   UNL     1       2.359   6.451  19.035  0.00  0.00    +0.000 C 
ATOM      6  C   UNL     1       3.440   5.383  18.966  0.00  0.00    +0.000 C 
ATOM      7  C   UNL     1       4.101   5.569  17.624  0.00  0.00    +0.000 C 
ATOM      8  C   UNL     1       4.085   7.093  17.427  0.00  0.00    +0.000 C 
ATOM      9  C   UNL     1       2.961   7.662  18.313  0.00  0.00    +0.000 C 
ENDROOT
BRANCH   1  10
ATOM     10  S   UNL     1       1.659   3.360  18.321  0.00  0.00    +0.000 S 
ATOM     11  O   UNL     1       1.235   4.362  17.366  0.00  0.00    +0.000 OA
ATOM     12  O   UNL     1       0.697   2.663  19.145  0.00  0.00    +0.000 OA
BRANCH  10  14
ATOM     13  C   UNL     1       3.689   1.543  18.271  0.00  0.00    +0.000 C 
ATOM     14  C   UNL     1       2.592   2.136  17.406  0.00  0.00    +0.000 C 
ENDBRANCH  10  14
ENDBRANCH   1  10
BRANCH   9  15
ATOM     15  O   UNL     1       1.998   8.321  17.471  0.00  0.00    +0.000 OA
BRANCH  15  16
ATOM     16  C   UNL     1       1.792   9.689  17.823  0.00  0.00    +0.000 C 
BRANCH  16  17
ATOM     17  C   UNL     1       0.652   9.798  18.828  0.00  0.00    +0.000 C 
BRANCH  17  18
ATOM     18  C   UNL     1      -0.147  11.073  18.580  0.00  0.00    +0.000 C 
BRANCH  18  19
ATOM     19  N   UNL     1      -1.490  10.822  18.095  0.00  0.00    +0.000 N 
ATOM     20  C   UNL     1      -1.862   9.902  17.156  0.00  0.00    +0.000 A 
ATOM     21  C   UNL     1      -3.233   9.973  17.076  0.00  0.00    +0.000 A 
ATOM     22  C   UNL     1      -3.592  10.957  18.016  0.00  0.00    +0.000 A 
ATOM     23  N   UNL     1      -2.533  11.473  18.644  0.00  0.00    +0.000 NA
ENDBRANCH  18  19
ENDBRANCH  17  18
ENDBRANCH  16  17
ENDBRANCH  15  16
ENDBRANCH   9  15
TORSDOF 7
ENDMDL
MODEL 6
REMARK VINA RESULT:      -6.7      0.878      1.147
REMARK  Name = 
REMARK  8 active torsions:
REMARK  status: ('A' for Active; 'I' for Inactive)
REMARK    1  A    between atoms: C_1  and  C_2
REMARK    2  A    between atoms: C_2  and  S_3
REMARK    3  A    between atoms: S_3  and  N_6
REMARK    4  A    between atoms: C_14  and  O_15
REMARK    5  A    between atoms: O_15  and  C_16
REMARK    6  A    between atoms: C_16  and  C_17
REMARK    7  A    between atoms: C_17  and  C_18
REMARK    8  A    between atoms: C_18  and  N_19
REMARK                            x       y       z     vdW  Elec       q    Type
REMARK                         _______ _______ _______ _____ _____    ______ ____
ROOT
ATOM      1  N   UNL     1       3.412   3.293  17.753  0.00  0.00    +0.000 NA
ATOM      2  C   UNL     1       3.895   2.541  18.986  0.00  0.00    +0.000 C 
ATOM      3  C   UNL     1       4.922   3.349  19.831  0.00  0.00    +0.000 C 
ATOM      4  O   UNL     1       5.953   4.016  19.071  0.00  0.00    +0.000 OA
ATOM      5  C   UNL     1       5.366   4.782  18.004  0.00  0.00    +0.000 C 
ATOM      6  C   UNL     1       4.660   3.801  17.080  0.00  0.00    +0.000 C 
ATOM      7  C   UNL     1       4.579   4.498  15.745  0.00  0.00    +0.000 C 
ATOM      8  C   UNL     1       5.899   5.280  15.671  0.00  0.00    +0.000 C 
ATOM      9  C   UNL     1       6.400   5.481  17.113  0.00  0.00    +0.000 C 
ENDROOT
BRANCH   1  10
ATOM     10  S   UNL     1       2.141   4.405  18.063  0.00  0.00    +0.000 S 
ATOM     11  O   UNL     1       1.096   4.199  17.082  0.00  0.00    +0.000 OA
ATOM     12  O   UNL     1       2.721   5.713  18.268  0.00  0.00    +0.000 OA
BRANCH  10  14
ATOM     13  C   UNL     1       1.573   4.936  20.675  0.00  0.00    +0.000 C 
ATOM     14  C   UNL     1       1.494   3.836  19.632  0.00  0.00    +0.000 C 
ENDBRANCH  10  14
ENDBRANCH   1  10
BRANCH   9  15
ATOM     15  O   UNL     1       6.476   6.892  17.383  0.00  0.00    +0.000 OA
BRANCH  15  16
ATOM     16  C   UNL     1       7.751   7.298  17.883  0.00  0.00    +0.000 C 
BRANCH  16  17
ATOM     17  C   UNL     1       7.829   8.819  17.925  0.00  0.00    +0.000 C 
BRANCH  17  18
ATOM     18  C   UNL     1       9.119   9.260  18.609  0.00  0.00    +0.000 C 
BRANCH  18  19
ATOM     19  N   UNL     1       9.093  10.643  19.042  0.00  0.00    +0.000 N 
ATOM     20  C   UNL     1       9.244  11.104  20.320  0.00  0.00    +0.000 A 
ATOM     21  C   UNL     1       9.223  12.475  20.235  0.00  0.00    +0.000 A 
ATOM     22  C   UNL     1       9.067  12.743  18.862  0.00  0.00    +0.000 A 
ATOM     23  N   UNL     1       8.994  11.629  18.130  0.00  0.00    +0.000 NA
ENDBRANCH  18  19
ENDBRANCH  17  18
ENDBRANCH  16  17
ENDBRANCH  15  16
ENDBRANCH   9  15
TORSDOF 7
ENDMDL
MODEL 7
REMARK VINA RESULT:      -6.6      3.412      7.170
REMARK  Name = 
REMARK  8 active torsions:
REMARK  status: ('A' for Active; 'I' for Inactive)
REMARK    1  A    between atoms: C_1  and  C_2
REMARK    2  A    between atoms: C_2  and  S_3
REMARK    3  A    between atoms: S_3  and  N_6
REMARK    4  A    between atoms: C_14  and  O_15
REMARK    5  A    between atoms: O_15  and  C_16
REMARK    6  A    between atoms: C_16  and  C_17
REMARK    7  A    between atoms: C_17  and  C_18
REMARK    8  A    between atoms: C_18  and  N_19
REMARK                            x       y       z     vdW  Elec       q    Type
REMARK                         _______ _______ _______ _____ _____    ______ ____
ROOT
ATOM      1  N   UNL     1       6.047   6.415  16.862  0.00  0.00    +0.000 NA
ATOM      2  C   UNL     1       7.149   5.931  17.795  0.00  0.00    +0.000 C 
ATOM      3  C   UNL     1       6.621   5.032  18.950  0.00  0.00    +0.000 C 
ATOM      4  O   UNL     1       5.424   5.510  19.603  0.00  0.00    +0.000 OA
ATOM      5  C   UNL     1       4.420   5.829  18.625  0.00  0.00    +0.000 C 
ATOM      6  C   UNL     1       4.969   6.957  17.763  0.00  0.00    +0.000 C 
ATOM      7  C   UNL     1       3.758   7.641  17.181  0.00  0.00    +0.000 C 
ATOM      8  C   UNL     1       2.725   7.565  18.316  0.00  0.00    +0.000 C 
ATOM      9  C   UNL     1       3.132   6.397  19.234  0.00  0.00    +0.000 C 
ENDROOT
BRANCH   1  10
ATOM     10  S   UNL     1       5.605   5.280  15.651  0.00  0.00    +0.000 S 
ATOM     11  O   UNL     1       5.077   6.001  14.511  0.00  0.00    +0.000 OA
ATOM     12  O   UNL     1       4.847   4.220  16.276  0.00  0.00    +0.000 OA
BRANCH  10  14
ATOM     13  C   UNL     1       7.518   5.026  13.727  0.00  0.00    +0.000 C 
ATOM     14  C   UNL     1       7.185   4.607  15.148  0.00  0.00    +0.000 C 
ENDBRANCH  10  14
ENDBRANCH   1  10
BRANCH   9  15
ATOM     15  O   UNL     1       2.069   5.427  19.245  0.00  0.00    +0.000 OA
BRANCH  15  16
ATOM     16  C   UNL     1       1.571   5.159  20.557  0.00  0.00    +0.000 C 
BRANCH  16  17
ATOM     17  C   UNL     1       0.681   3.922  20.528  0.00  0.00    +0.000 C 
BRANCH  17  18
ATOM     18  C   UNL     1       1.472   2.697  20.974  0.00  0.00    +0.000 C 
BRANCH  18  19
ATOM     19  N   UNL     1       2.505   2.309  20.033  0.00  0.00    +0.000 N 
ATOM     20  C   UNL     1       2.323   1.894  18.744  0.00  0.00    +0.000 A 
ATOM     21  C   UNL     1       3.581   1.708  18.223  0.00  0.00    +0.000 A 
ATOM     22  C   UNL     1       4.454   2.049  19.273  0.00  0.00    +0.000 A 
ATOM     23  N   UNL     1       3.802   2.422  20.377  0.00  0.00    +0.000 NA
ENDBRANCH  18  19
ENDBRANCH  17  18
ENDBRANCH  16  17
ENDBRANCH  15  16
ENDBRANCH   9  15
TORSDOF 7
ENDMDL
MODEL 8
REMARK VINA RESULT:      -6.6      3.925      5.423
REMARK  Name = 
REMARK  8 active torsions:
REMARK  status: ('A' for Active; 'I' for Inactive)
REMARK    1  A    between atoms: C_1  and  C_2
REMARK    2  A    between atoms: C_2  and  S_3
REMARK    3  A    between atoms: S_3  and  N_6
REMARK    4  A    between atoms: C_14  and  O_15
REMARK    5  A    between atoms: O_15  and  C_16
REMARK    6  A    between atoms: C_16  and  C_17
REMARK    7  A    between atoms: C_17  and  C_18
REMARK    8  A    between atoms: C_18  and  N_19
REMARK                            x       y       z     vdW  Elec       q    Type
REMARK                         _______ _______ _______ _____ _____    ______ ____
ROOT
ATOM      1  N   UNL     1       1.584   4.746  18.695  0.00  0.00    +0.000 NA
ATOM      2  C   UNL     1       1.503   3.365  18.059  0.00  0.00    +0.000 C 
ATOM      3  C   UNL     1       2.898   2.764  17.723  0.00  0.00    +0.000 C 
ATOM      4  O   UNL     1       3.827   3.678  17.099  0.00  0.00    +0.000 OA
ATOM      5  C   UNL     1       3.900   4.901  17.851  0.00  0.00    +0.000 C 
ATOM      6  C   UNL     1       2.518   5.536  17.817  0.00  0.00    +0.000 C 
ATOM      7  C   UNL     1       2.747   7.005  18.071  0.00  0.00    +0.000 C 
ATOM      8  C   UNL     1       4.076   7.288  17.353  0.00  0.00    +0.000 C 
ATOM      9  C   UNL     1       4.827   5.950  17.224  0.00  0.00    +0.000 C 
ENDROOT
BRANCH   1  10
ATOM     10  S   UNL     1       1.878   4.723  20.387  0.00  0.00    +0.000 S 
ATOM     11  O   UNL     1       1.146   5.812  20.999  0.00  0.00    +0.000 OA
ATOM     12  O   UNL     1       3.300   4.571  20.599  0.00  0.00    +0.000 OA
BRANCH  10  14
ATOM     13  C   UNL     1       2.037   2.339  21.698  0.00  0.00    +0.000 C 
ATOM     14  C   UNL     1       1.077   3.208  20.905  0.00  0.00    +0.000 C 
ENDBRANCH  10  14
ENDBRANCH   1  10
BRANCH   9  15
ATOM     15  O   UNL     1       6.077   6.053  17.929  0.00  0.00    +0.000 OA
BRANCH  15  16
ATOM     16  C   UNL     1       7.211   5.823  17.091  0.00  0.00    +0.000 C 
BRANCH  16  17
ATOM     17  C   UNL     1       6.868   4.781  16.033  0.00  0.00    +0.000 C 
BRANCH  17  18
ATOM     18  C   UNL     1       7.454   5.188  14.685  0.00  0.00    +0.000 C 
BRANCH  18  19
ATOM     19  N   UNL     1       6.921   4.424  13.575  0.00  0.00    +0.000 N 
ATOM     20  C   UNL     1       5.780   3.672  13.572  0.00  0.00    +0.000 A 
ATOM     21  C   UNL     1       5.640   3.198  12.290  0.00  0.00    +0.000 A 
ATOM     22  C   UNL     1       6.740   3.730  11.592  0.00  0.00    +0.000 A 
ATOM     23  N   UNL     1       7.521   4.484  12.371  0.00  0.00    +0.000 NA
ENDBRANCH  18  19
ENDBRANCH  17  18
ENDBRANCH  16  17
ENDBRANCH  15  16
ENDBRANCH   9  15
TORSDOF 7
ENDMDL
MODEL 9
REMARK VINA RESULT:      -6.6      4.531      6.434
REMARK  Name = 
REMARK  8 active torsions:
REMARK  status: ('A' for Active; 'I' for Inactive)
REMARK    1  A    between atoms: C_1  and  C_2
REMARK    2  A    between atoms: C_2  and  S_3
REMARK    3  A    between atoms: S_3  and  N_6
REMARK    4  A    between atoms: C_14  and  O_15
REMARK    5  A    between atoms: O_15  and  C_16
REMARK    6  A    between atoms: C_16  and  C_17
REMARK    7  A    between atoms: C_17  and  C_18
REMARK    8  A    between atoms: C_18  and  N_19
REMARK                            x       y       z     vdW  Elec       q    Type
REMARK                         _______ _______ _______ _____ _____    ______ ____
ROOT
ATOM      1  N   UNL     1       2.866   4.055  19.315  0.00  0.00    +0.000 NA
ATOM      2  C   UNL     1       2.458   4.171  20.778  0.00  0.00    +0.000 C 
ATOM      3  C   UNL     1       1.577   5.420  21.068  0.00  0.00    +0.000 C 
ATOM      4  O   UNL     1       2.028   6.647  20.453  0.00  0.00    +0.000 OA
ATOM      5  C   UNL     1       2.275   6.438  19.052  0.00  0.00    +0.000 C 
ATOM      6  C   UNL     1       3.394   5.414  18.938  0.00  0.00    +0.000 C 
ATOM      7  C   UNL     1       4.010   5.645  17.581  0.00  0.00    +0.000 C 
ATOM      8  C   UNL     1       3.930   7.170  17.408  0.00  0.00    +0.000 C 
ATOM      9  C   UNL     1       2.810   7.682  18.333  0.00  0.00    +0.000 C 
ENDROOT
BRANCH   1  10
ATOM     10  S   UNL     1       1.675   3.333  18.309  0.00  0.00    +0.000 S 
ATOM     11  O   UNL     1       1.229   4.315  17.343  0.00  0.00    +0.000 OA
ATOM     12  O   UNL     1       0.731   2.635  19.153  0.00  0.00    +0.000 OA
BRANCH  10  14
ATOM     13  C   UNL     1       3.627   1.430  18.312  0.00  0.00    +0.000 C 
ATOM     14  C   UNL     1       2.616   2.108  17.404  0.00  0.00    +0.000 C 
ENDBRANCH  10  14
ENDBRANCH   1  10
BRANCH   9  15
ATOM     15  O   UNL     1       1.800   8.315  17.527  0.00  0.00    +0.000 OA
BRANCH  15  16
ATOM     16  C   UNL     1       1.480   9.635  17.967  0.00  0.00    +0.000 C 
BRANCH  16  17
ATOM     17  C   UNL     1       0.987   9.593  19.409  0.00  0.00    +0.000 C 
BRANCH  17  18
ATOM     18  C   UNL     1       0.020  10.744  19.666  0.00  0.00    +0.000 C 
BRANCH  18  19
ATOM     19  N   UNL     1      -0.462  10.793  21.032  0.00  0.00    +0.000 N 
ATOM     20  C   UNL     1      -0.314   9.827  21.987  0.00  0.00    +0.000 A 
ATOM     21  C   UNL     1      -0.862  10.341  23.137  0.00  0.00    +0.000 A 
ATOM     22  C   UNL     1      -1.303  11.628  22.776  0.00  0.00    +0.000 A 
ATOM     23  N   UNL     1      -1.055  11.910  21.494  0.00  0.00    +0.000 NA
ENDBRANCH  18  19
ENDBRANCH  17  18
ENDBRANCH  16  17
ENDBRANCH  15  16
ENDBRANCH   9  15
TORSDOF 7
ENDMDL
