MODEL 1
REMARK VINA RESULT:      -7.4      0.000      0.000
REMARK  Name = 
REMARK  6 active torsions:
REMARK  status: ('A' for Active; 'I' for Inactive)
REMARK    1  A    between atoms: C_1  and  N_2
REMARK    2  A    between atoms: N_2  and  C_3
REMARK    3  A    between atoms: N_2  and  C_13
REMARK    4  A    between atoms: C_3  and  C_4
REMARK    5  A    between atoms: C_13  and  C_14
REMARK    6  A    between atoms: C_14  and  O_15
REMARK                            x       y       z     vdW  Elec       q    Type
REMARK                         _______ _______ _______ _____ _____    ______ ____
ROOT
ATOM      1  C   UNL     1       4.780   2.768  18.375  0.00  0.00    +0.000 C 
ATOM      2  N   UNL     1       4.431   3.805  17.400  0.00  0.00    +0.000 NA
ENDROOT
BRANCH   2   3
ATOM      3  C   UNL     1       5.375   3.760  16.256  0.00  0.00    +0.000 C 
BRANCH   3   4
ATOM      4  C   UNL     1       6.005   5.131  15.952  0.00  0.00    +0.000 C 
ATOM      5  O   UNL     1       5.631   5.775  14.966  0.00  0.00    +0.000 OA
ATOM      6  N   UNL     1       6.933   5.644  16.850  0.00  0.00    +0.000 N 
ATOM      7  C   UNL     1       7.524   6.957  16.612  0.00  0.00    +0.000 C 
ATOM      8  C   UNL     1       7.556   7.732  17.926  0.00  0.00    +0.000 C 
ATOM      9  N   UNL     1       8.238   6.993  18.968  0.00  0.00    +0.000 N 
ATOM     10  C   UNL     1       8.128   5.629  19.096  0.00  0.00    +0.000 C 
ATOM     11  O   UNL     1       8.554   5.083  20.112  0.00  0.00    +0.000 OA
ATOM     12  C   UNL     1       7.590   4.846  17.892  0.00  0.00    +0.000 C 
ATOM     13  H   UNL     1       8.522   7.463  19.819  0.00  0.00    +0.000 HD
ENDBRANCH   3   4
ENDBRANCH   2   3
BRANCH   2  14
ATOM     14  C   UNL     1       3.029   3.690  16.909  0.00  0.00    +0.000 C 
BRANCH  14  15
ATOM     15  C   UNL     1       1.911   4.434  17.726  0.00  0.00    +0.000 C 
ATOM     16  C   UNL     1       2.282   5.925  17.953  0.00  0.00    +0.000 C 
ATOM     17  C   UNL     1       2.563   6.150  19.447  0.00  0.00    +0.000 C 
ATOM     18  C   UNL     1       2.168   4.860  20.081  0.00  0.00    +0.000 A 
ATOM     19  C   UNL     1       2.219   4.542  21.428  0.00  0.00    +0.000 A 
ATOM     20  C   UNL     1       1.836   3.263  21.833  0.00  0.00    +0.000 A 
ATOM     21  C   UNL     1       1.377   2.334  20.894  0.00  0.00    +0.000 A 
ATOM     22  C   UNL     1       1.313   2.669  19.541  0.00  0.00    +0.000 A 
ATOM     23  C   UNL     1       1.748   3.924  19.135  0.00  0.00    +0.000 A 
BRANCH  15  24
ATOM     24  O   UNL     1       0.674   4.430  17.014  0.00  0.00    +0.000 OA
ATOM     25  H   UNL     1      -0.015   4.709  17.642  0.00  0.00    +0.000 HD
ENDBRANCH  15  24
ENDBRANCH  14  15
ENDBRANCH   2  14
TORSDOF 5
ENDMDL
MODEL 2
REMARK VINA RESULT:      -7.1      2.332      4.370
REMARK  Name = 
REMARK  6 active torsions:
REMARK  status: ('A' for Active; 'I' for Inactive)
REMARK    1  A    between atoms: C_1  and  N_2
REMARK    2  A    between atoms: N_2  and  C_3
REMARK    3  A    between atoms: N_2  and  C_13
REMARK    4  A    between atoms: C_3  and  C_4
REMARK    5  A    between atoms: C_13  and  C_14
REMARK    6  A    between atoms: C_14  and  O_15
REMARK                            x       y       z     vdW  Elec       q    Type
REMARK                         _______ _______ _______ _____ _____    ______ ____
ROOT
ATOM      1  C   UNL     1       1.011   2.689  19.118  0.00  0.00    +0.000 C 
ATOM      2  N   UNL     1       2.154   3.606  19.141  0.00  0.00    +0.000 NA
ENDROOT
BRANCH   2   3
ATOM      3  C   UNL     1       3.190   3.146  18.184  0.00  0.00    +0.000 C 
BRANCH   3   4
ATOM      4  C   UNL     1       4.618   3.489  18.644  0.00  0.00    +0.000 C 
ATOM      5  O   UNL     1       5.084   2.955  19.656  0.00  0.00    +0.000 OA
ATOM      6  N   UNL     1       5.378   4.343  17.855  0.00  0.00    +0.000 N 
ATOM      7  C   UNL     1       6.749   4.662  18.242  0.00  0.00    +0.000 C 
ATOM      8  C   UNL     1       7.639   4.607  17.003  0.00  0.00    +0.000 C 
ATOM      9  N   UNL     1       7.144   5.464  15.947  0.00  0.00    +0.000 N 
ATOM     10  C   UNL     1       5.802   5.622  15.696  0.00  0.00    +0.000 C 
ATOM     11  O   UNL     1       5.445   6.190  14.666  0.00  0.00    +0.000 OA
ATOM     12  C   UNL     1       4.820   5.188  16.791  0.00  0.00    +0.000 C 
ATOM     13  H   UNL     1       7.738   5.692  15.160  0.00  0.00    +0.000 HD
ENDBRANCH   3   4
ENDBRANCH   2   3
BRANCH   2  14
ATOM     14  C   UNL     1       1.773   5.015  18.842  0.00  0.00    +0.000 C 
BRANCH  14  15
ATOM     15  C   UNL     1       2.381   6.140  19.755  0.00  0.00    +0.000 C 
ATOM     16  C   UNL     1       1.638   6.220  21.116  0.00  0.00    +0.000 C 
ATOM     17  C   UNL     1       0.856   7.540  21.185  0.00  0.00    +0.000 C 
ATOM     18  C   UNL     1       1.304   8.283  19.972  0.00  0.00    +0.000 A 
ATOM     19  C   UNL     1       0.901   9.544  19.569  0.00  0.00    +0.000 A 
ATOM     20  C   UNL     1       1.408  10.065  18.379  0.00  0.00    +0.000 A 
ATOM     21  C   UNL     1       2.335   9.334  17.627  0.00  0.00    +0.000 A 
ATOM     22  C   UNL     1       2.747   8.071  18.050  0.00  0.00    +0.000 A 
ATOM     23  C   UNL     1       2.198   7.532  19.206  0.00  0.00    +0.000 A 
BRANCH  15  24
ATOM     24  O   UNL     1       3.748   5.866  20.057  0.00  0.00    +0.000 OA
ATOM     25  H   UNL     1       4.216   5.786  19.207  0.00  0.00    +0.000 HD
ENDBRANCH  15  24
ENDBRANCH  14  15
ENDBRANCH   2  14
TORSDOF 5
ENDMDL
MODEL 3
REMARK VINA RESULT:      -6.9      1.821      3.360
REMARK  Name = 
REMARK  6 active torsions:
REMARK  status: ('A' for Active; 'I' for Inactive)
REMARK    1  A    between atoms: C_1  and  N_2
REMARK    2  A    between atoms: N_2  and  C_3
REMARK    3  A    between atoms: N_2  and  C_13
REMARK    4  A    between atoms: C_3  and  C_4
REMARK    5  A    between atoms: C_13  and  C_14
REMARK    6  A    between atoms: C_14  and  O_15
REMARK                            x       y       z     vdW  Elec       q    Type
REMARK                         _______ _______ _______ _____ _____    ______ ____
ROOT
ATOM      1  C   UNL     1       4.472   1.893  21.141  0.00  0.00    +0.000 C 
ATOM      2  N   UNL     1       3.764   2.690  20.135  0.00  0.00    +0.000 NA
ENDROOT
BRANCH   2   3
ATOM      3  C   UNL     1       4.639   2.910  18.958  0.00  0.00    +0.000 C 
BRANCH   3   4
ATOM      4  C   UNL     1       5.125   4.366  18.843  0.00  0.00    +0.000 C 
ATOM      5  O   UNL     1       5.147   5.088  19.845  0.00  0.00    +0.000 OA
ATOM      6  N   UNL     1       5.603   4.807  17.615  0.00  0.00    +0.000 N 
ATOM      7  C   UNL     1       6.105   6.171  17.479  0.00  0.00    +0.000 C 
ATOM      8  C   UNL     1       7.394   6.145  16.662  0.00  0.00    +0.000 C 
ATOM      9  N   UNL     1       7.207   5.489  15.385  0.00  0.00    +0.000 N 
ATOM     10  C   UNL     1       6.398   4.388  15.234  0.00  0.00    +0.000 C 
ATOM     11  O   UNL     1       6.438   3.750  14.184  0.00  0.00    +0.000 OA
ATOM     12  C   UNL     1       5.387   4.095  16.349  0.00  0.00    +0.000 C 
ATOM     13  H   UNL     1       7.906   5.586  14.659  0.00  0.00    +0.000 HD
ENDBRANCH   3   4
ENDBRANCH   2   3
BRANCH   2  14
ATOM     14  C   UNL     1       2.477   2.073  19.706  0.00  0.00    +0.000 C 
BRANCH  14  15
ATOM     15  C   UNL     1       1.360   3.033  19.159  0.00  0.00    +0.000 C 
ATOM     16  C   UNL     1       1.351   3.056  17.606  0.00  0.00    +0.000 C 
ATOM     17  C   UNL     1       1.815   4.438  17.122  0.00  0.00    +0.000 C 
ATOM     18  C   UNL     1       1.894   5.244  18.374  0.00  0.00    +0.000 A 
ATOM     19  C   UNL     1       2.260   6.575  18.488  0.00  0.00    +0.000 A 
ATOM     20  C   UNL     1       2.309   7.154  19.756  0.00  0.00    +0.000 A 
ATOM     21  C   UNL     1       1.960   6.407  20.886  0.00  0.00    +0.000 A 
ATOM     22  C   UNL     1       1.577   5.072  20.760  0.00  0.00    +0.000 A 
ATOM     23  C   UNL     1       1.584   4.483  19.502  0.00  0.00    +0.000 A 
BRANCH  15  24
ATOM     24  O   UNL     1       0.065   2.587  19.563  0.00  0.00    +0.000 OA
ATOM     25  H   UNL     1      -0.537   3.346  19.470  0.00  0.00    +0.000 HD
ENDBRANCH  15  24
ENDBRANCH  14  15
ENDBRANCH   2  14
TORSDOF 5
ENDMDL
MODEL 4
REMARK VINA RESULT:      -6.9      1.613      2.451
REMARK  Name = 
REMARK  6 active torsions:
REMARK  status: ('A' for Active; 'I' for Inactive)
REMARK    1  A    between atoms: C_1  and  N_2
REMARK    2  A    between atoms: N_2  and  C_3
REMARK    3  A    between atoms: N_2  and  C_13
REMARK    4  A    between atoms: C_3  and  C_4
REMARK    5  A    between atoms: C_13  and  C_14
REMARK    6  A    between atoms: C_14  and  O_15
REMARK                            x       y       z     vdW  Elec       q    Type
REMARK                         _______ _______ _______ _____ _____    ______ ____
ROOT
ATOM      1  C   UNL     1       5.600   3.446  15.477  0.00  0.00    +0.000 C 
ATOM      2  N   UNL     1       5.000   3.868  16.745  0.00  0.00    +0.000 NA
ENDROOT
BRANCH   2   3
ATOM      3  C   UNL     1       4.460   5.243  16.615  0.00  0.00    +0.000 C 
BRANCH   3   4
ATOM      4  C   UNL     1       5.547   6.279  16.274  0.00  0.00    +0.000 C 
ATOM      5  O   UNL     1       5.403   7.023  15.298  0.00  0.00    +0.000 OA
ATOM      6  N   UNL     1       6.635   6.399  17.128  0.00  0.00    +0.000 N 
ATOM      7  C   UNL     1       7.666   7.395  16.855  0.00  0.00    +0.000 C 
ATOM      8  C   UNL     1       8.041   8.091  18.160  0.00  0.00    +0.000 C 
ATOM      9  N   UNL     1       8.437   7.144  19.180  0.00  0.00    +0.000 N 
ATOM     10  C   UNL     1       7.828   5.920  19.325  0.00  0.00    +0.000 C 
ATOM     11  O   UNL     1       8.058   5.247  20.327  0.00  0.00    +0.000 OA
ATOM     12  C   UNL     1       6.986   5.405  18.151  0.00  0.00    +0.000 C 
ATOM     13  H   UNL     1       8.911   7.466  20.014  0.00  0.00    +0.000 HD
ENDBRANCH   3   4
ENDBRANCH   2   3
BRANCH   2  14
ATOM     14  C   UNL     1       3.931   2.942  17.217  0.00  0.00    +0.000 C 
BRANCH  14  15
ATOM     15  C   UNL     1       3.796   2.721  18.767  0.00  0.00    +0.000 C 
ATOM     16  C   UNL     1       2.874   1.512  19.082  0.00  0.00    +0.000 C 
ATOM     17  C   UNL     1       1.581   2.023  19.735  0.00  0.00    +0.000 C 
ATOM     18  C   UNL     1       1.848   3.472  19.966  0.00  0.00    +0.000 A 
ATOM     19  C   UNL     1       0.995   4.397  20.544  0.00  0.00    +0.000 A 
ATOM     20  C   UNL     1       1.410   5.724  20.645  0.00  0.00    +0.000 A 
ATOM     21  C   UNL     1       2.681   6.102  20.200  0.00  0.00    +0.000 A 
ATOM     22  C   UNL     1       3.540   5.161  19.634  0.00  0.00    +0.000 A 
ATOM     23  C   UNL     1       3.102   3.851  19.484  0.00  0.00    +0.000 A 
BRANCH  15  24
ATOM     24  O   UNL     1       5.065   2.424  19.350  0.00  0.00    +0.000 OA
ATOM     25  H   UNL     1       4.931   2.382  20.313  0.00  0.00    +0.000 HD
ENDBRANCH  15  24
ENDBRANCH  14  15
ENDBRANCH   2  14
TORSDOF 5
ENDMDL
MODEL 5
REMARK VINA RESULT:      -6.7      5.263      7.015
REMARK  Name = 
REMARK  6 active torsions:
REMARK  status: ('A' for Active; 'I' for Inactive)
REMARK    1  A    between atoms: C_1  and  N_2
REMARK    2  A    between atoms: N_2  and  C_3
REMARK    3  A    between atoms: N_2  and  C_13
REMARK    4  A    between atoms: C_3  and  C_4
REMARK    5  A    between atoms: C_13  and  C_14
REMARK    6  A    between atoms: C_14  and  O_15
REMARK                            x       y       z     vdW  Elec       q    Type
REMARK                         _______ _______ _______ _____ _____    ______ ____
ROOT
ATOM      1  C   UNL     1       1.445   9.262  22.306  0.00  0.00    +0.000 C 
ATOM      2  N   UNL     1       1.197   9.080  20.874  0.00  0.00    +0.000 NA
ENDROOT
BRANCH   2   3
ATOM      3  C   UNL     1       1.420   7.662  20.498  0.00  0.00    +0.000 C 
BRANCH   3   4
ATOM      4  C   UNL     1       2.270   7.512  19.224  0.00  0.00    +0.000 C 
ATOM      5  O   UNL     1       2.455   8.488  18.489  0.00  0.00    +0.000 OA
ATOM      6  N   UNL     1       2.876   6.287  18.976  0.00  0.00    +0.000 N 
ATOM      7  C   UNL     1       3.719   6.120  17.796  0.00  0.00    +0.000 C 
ATOM      8  C   UNL     1       4.976   5.350  18.190  0.00  0.00    +0.000 C 
ATOM      9  N   UNL     1       4.657   4.092  18.831  0.00  0.00    +0.000 N 
ATOM     10  C   UNL     1       3.593   3.952  19.690  0.00  0.00    +0.000 C 
ATOM     11  O   UNL     1       3.492   2.928  20.362  0.00  0.00    +0.000 OA
ATOM     12  C   UNL     1       2.513   5.041  19.663  0.00  0.00    +0.000 C 
ATOM     13  H   UNL     1       5.374   3.387  18.950  0.00  0.00    +0.000 HD
ENDBRANCH   3   4
ENDBRANCH   2   3
BRANCH   2  14
ATOM     14  C   UNL     1      -0.170   9.508  20.464  0.00  0.00    +0.000 C 
BRANCH  14  15
ATOM     15  C   UNL     1      -0.290  10.793  19.567  0.00  0.00    +0.000 C 
ATOM     16  C   UNL     1      -0.737  12.021  20.405  0.00  0.00    +0.000 C 
ATOM     17  C   UNL     1      -2.156  12.429  19.981  0.00  0.00    +0.000 C 
ATOM     18  C   UNL     1      -2.431  11.573  18.791  0.00  0.00    +0.000 A 
ATOM     19  C   UNL     1      -3.583  11.557  18.022  0.00  0.00    +0.000 A 
ATOM     20  C   UNL     1      -3.670  10.658  16.960  0.00  0.00    +0.000 A 
ATOM     21  C   UNL     1      -2.597   9.813  16.660  0.00  0.00    +0.000 A 
ATOM     22  C   UNL     1      -1.434   9.848  17.430  0.00  0.00    +0.000 A 
ATOM     23  C   UNL     1      -1.372  10.705  18.521  0.00  0.00    +0.000 A 
BRANCH  15  24
ATOM     24  O   UNL     1       0.973  11.132  18.995  0.00  0.00    +0.000 OA
ATOM     25  H   UNL     1       1.011  10.708  18.120  0.00  0.00    +0.000 HD
ENDBRANCH  15  24
ENDBRANCH  14  15
ENDBRANCH   2  14
TORSDOF 5
ENDMDL
MODEL 6
REMARK VINA RESULT:      -6.7      5.023      7.242
REMARK  Name = 
REMARK  6 active torsions:
REMARK  status: ('A' for Active; 'I' for Inactive)
REMARK    1  A    between atoms: C_1  and  N_2
REMARK    2  A    between atoms: N_2  and  C_3
REMARK    3  A    between atoms: N_2  and  C_13
REMARK    4  A    between atoms: C_3  and  C_4
REMARK    5  A    between atoms: C_13  and  C_14
REMARK    6  A    between atoms: C_14  and  O_15
REMARK                            x       y       z     vdW  Elec       q    Type
REMARK                         _______ _______ _______ _____ _____    ______ ____
ROOT
ATOM      1  C   UNL     1       2.112   9.579  17.920  0.00  0.00    +0.000 C 
ATOM      2  N   UNL     1       2.044   8.484  18.891  0.00  0.00    +0.000 NA
ENDROOT
BRANCH   2   3
ATOM      3  C   UNL     1       0.886   8.684  19.797  0.00  0.00    +0.000 C 
BRANCH   3   4
ATOM      4  C   UNL     1       0.627  10.169  20.111  0.00  0.00    +0.000 C 
ATOM      5  O   UNL     1       1.298  10.741  20.976  0.00  0.00    +0.000 OA
ATOM      6  N   UNL     1      -0.312  10.850  19.348  0.00  0.00    +0.000 N 
ATOM      7  C   UNL     1      -0.558  12.268  19.593  0.00  0.00    +0.000 C 
ATOM      8  C   UNL     1      -0.654  12.994  18.254  0.00  0.00    +0.000 C 
ATOM      9  N   UNL     1      -1.650  12.397  17.390  0.00  0.00    +0.000 N 
ATOM     10  C   UNL     1      -1.859  11.039  17.336  0.00  0.00    +0.000 C 
ATOM     11  O   UNL     1      -2.564  10.574  16.443  0.00  0.00    +0.000 OA
ATOM     12  C   UNL     1      -1.298  10.190  18.483  0.00  0.00    +0.000 C 
ATOM     13  H   UNL     1      -1.973  12.894  16.570  0.00  0.00    +0.000 HD
ENDBRANCH   3   4
ENDBRANCH   2   3
BRANCH   2  14
ATOM     14  C   UNL     1       1.962   7.142  18.249  0.00  0.00    +0.000 C 
BRANCH  14  15
ATOM     15  C   UNL     1       2.959   6.036  18.750  0.00  0.00    +0.000 C 
ATOM     16  C   UNL     1       4.062   5.755  17.694  0.00  0.00    +0.000 C 
ATOM     17  C   UNL     1       3.861   4.344  17.121  0.00  0.00    +0.000 C 
ATOM     18  C   UNL     1       2.787   3.763  17.977  0.00  0.00    +0.000 A 
ATOM     19  C   UNL     1       2.238   2.495  17.882  0.00  0.00    +0.000 A 
ATOM     20  C   UNL     1       1.210   2.140  18.755  0.00  0.00    +0.000 A 
ATOM     21  C   UNL     1       0.770   3.040  19.731  0.00  0.00    +0.000 A 
ATOM     22  C   UNL     1       1.341   4.309  19.830  0.00  0.00    +0.000 A 
ATOM     23  C   UNL     1       2.325   4.679  18.923  0.00  0.00    +0.000 A 
BRANCH  15  24
ATOM     24  O   UNL     1       3.633   6.459  19.935  0.00  0.00    +0.000 OA
ATOM     25  H   UNL     1       3.269   7.330  20.173  0.00  0.00    +0.000 HD
ENDBRANCH  15  24
ENDBRANCH  14  15
ENDBRANCH   2  14
TORSDOF 5
ENDMDL
MODEL 7
REMARK VINA RESULT:      -6.7      3.196      4.916
REMARK  Name = 
REMARK  6 active torsions:
REMARK  status: ('A' for Active; 'I' for Inactive)
REMARK    1  A    between atoms: C_1  and  N_2
REMARK    2  A    between atoms: N_2  and  C_3
REMARK    3  A    between atoms: N_2  and  C_13
REMARK    4  A    between atoms: C_3  and  C_4
REMARK    5  A    between atoms: C_13  and  C_14
REMARK    6  A    between atoms: C_14  and  O_15
REMARK                            x       y       z     vdW  Elec       q    Type
REMARK                         _______ _______ _______ _____ _____    ______ ____
ROOT
ATOM      1  C   UNL     1       6.090   5.356  19.483  0.00  0.00    +0.000 C 
ATOM      2  N   UNL     1       4.747   4.952  19.058  0.00  0.00    +0.000 NA
ENDROOT
BRANCH   2   3
ATOM      3  C   UNL     1       3.965   6.146  18.654  0.00  0.00    +0.000 C 
BRANCH   3   4
ATOM      4  C   UNL     1       2.870   6.511  19.674  0.00  0.00    +0.000 C 
ATOM      5  O   UNL     1       2.703   5.807  20.675  0.00  0.00    +0.000 OA
ATOM      6  N   UNL     1       2.145   7.679  19.474  0.00  0.00    +0.000 N 
ATOM      7  C   UNL     1       1.125   8.075  20.439  0.00  0.00    +0.000 C 
ATOM      8  C   UNL     1       1.247   9.572  20.705  0.00  0.00    +0.000 C 
ATOM      9  N   UNL     1       1.185  10.342  19.481  0.00  0.00    +0.000 N 
ATOM     10  C   UNL     1       1.756   9.908  18.308  0.00  0.00    +0.000 C 
ATOM     11  O   UNL     1       1.855  10.686  17.362  0.00  0.00    +0.000 OA
ATOM     12  C   UNL     1       2.124   8.422  18.207  0.00  0.00    +0.000 C 
ATOM     13  H   UNL     1       1.038  11.343  19.519  0.00  0.00    +0.000 HD
ENDBRANCH   3   4
ENDBRANCH   2   3
BRANCH   2  14
ATOM     14  C   UNL     1       4.765   3.956  17.949  0.00  0.00    +0.000 C 
BRANCH  14  15
ATOM     15  C   UNL     1       3.683   2.816  17.982  0.00  0.00    +0.000 C 
ATOM     16  C   UNL     1       2.516   3.123  17.004  0.00  0.00    +0.000 C 
ATOM     17  C   UNL     1       1.244   3.412  17.814  0.00  0.00    +0.000 C 
ATOM     18  C   UNL     1       1.633   3.082  19.215  0.00  0.00    +0.000 A 
ATOM     19  C   UNL     1       0.835   3.163  20.344  0.00  0.00    +0.000 A 
ATOM     20  C   UNL     1       1.388   2.842  21.584  0.00  0.00    +0.000 A 
ATOM     21  C   UNL     1       2.717   2.413  21.674  0.00  0.00    +0.000 A 
ATOM     22  C   UNL     1       3.508   2.319  20.530  0.00  0.00    +0.000 A 
ATOM     23  C   UNL     1       2.970   2.693  19.304  0.00  0.00    +0.000 A 
BRANCH  15  24
ATOM     24  O   UNL     1       4.243   1.572  17.564  0.00  0.00    +0.000 OA
ATOM     25  H   UNL     1       3.505   1.015  17.262  0.00  0.00    +0.000 HD
ENDBRANCH  15  24
ENDBRANCH  14  15
ENDBRANCH   2  14
TORSDOF 5
ENDMDL
MODEL 8
REMARK VINA RESULT:      -6.7      2.635      4.078
REMARK  Name = 
REMARK  6 active torsions:
REMARK  status: ('A' for Active; 'I' for Inactive)
REMARK    1  A    between atoms: C_1  and  N_2
REMARK    2  A    between atoms: N_2  and  C_3
REMARK    3  A    between atoms: N_2  and  C_13
REMARK    4  A    between atoms: C_3  and  C_4
REMARK    5  A    between atoms: C_13  and  C_14
REMARK    6  A    between atoms: C_14  and  O_15
REMARK                            x       y       z     vdW  Elec       q    Type
REMARK                         _______ _______ _______ _____ _____    ______ ____
ROOT
ATOM      1  C   UNL     1       5.101   6.107  17.233  0.00  0.00    +0.000 C 
ATOM      2  N   UNL     1       5.189   4.654  17.072  0.00  0.00    +0.000 NA
ENDROOT
BRANCH   2   3
ATOM      3  C   UNL     1       6.549   4.278  16.612  0.00  0.00    +0.000 C 
BRANCH   3   4
ATOM      4  C   UNL     1       7.082   5.214  15.511  0.00  0.00    +0.000 C 
ATOM      5  O   UNL     1       7.765   6.197  15.818  0.00  0.00    +0.000 OA
ATOM      6  N   UNL     1       6.842   4.877  14.186  0.00  0.00    +0.000 N 
ATOM      7  C   UNL     1       7.364   5.722  13.116  0.00  0.00    +0.000 C 
ATOM      8  C   UNL     1       7.950   4.832  12.023  0.00  0.00    +0.000 C 
ATOM      9  N   UNL     1       6.988   3.860  11.548  0.00  0.00    +0.000 N 
ATOM     10  C   UNL     1       6.091   3.242  12.386  0.00  0.00    +0.000 C 
ATOM     11  O   UNL     1       5.444   2.282  11.973  0.00  0.00    +0.000 OA
ATOM     12  C   UNL     1       5.854   3.876  13.762  0.00  0.00    +0.000 C 
ATOM     13  H   UNL     1       7.162   3.354  10.689  0.00  0.00    +0.000 HD
ENDBRANCH   3   4
ENDBRANCH   2   3
BRANCH   2  14
ATOM     14  C   UNL     1       4.850   3.910  18.319  0.00  0.00    +0.000 C 
BRANCH  14  15
ATOM     15  C   UNL     1       3.682   2.862  18.243  0.00  0.00    +0.000 C 
ATOM     16  C   UNL     1       2.618   3.284  17.193  0.00  0.00    +0.000 C 
ATOM     17  C   UNL     1       1.317   3.657  17.919  0.00  0.00    +0.000 C 
ATOM     18  C   UNL     1       1.575   3.266  19.335  0.00  0.00    +0.000 A 
ATOM     19  C   UNL     1       0.706   3.388  20.406  0.00  0.00    +0.000 A 
ATOM     20  C   UNL     1       1.140   2.996  21.673  0.00  0.00    +0.000 A 
ATOM     21  C   UNL     1       2.420   2.459  21.845  0.00  0.00    +0.000 A 
ATOM     22  C   UNL     1       3.282   2.325  20.757  0.00  0.00    +0.000 A 
ATOM     23  C   UNL     1       2.867   2.768  19.508  0.00  0.00    +0.000 A 
BRANCH  15  24
ATOM     24  O   UNL     1       4.171   1.586  17.832  0.00  0.00    +0.000 OA
ATOM     25  H   UNL     1       5.134   1.592  17.973  0.00  0.00    +0.000 HD
ENDBRANCH  15  24
ENDBRANCH  14  15
ENDBRANCH   2  14
TORSDOF 5
ENDMDL
MODEL 9
REMARK VINA RESULT:      -6.6      3.683      6.424
REMARK  Name = 
REMARK  6 active torsions:
REMARK  status: ('A' for Active; 'I' for Inactive)
REMARK    1  A    between atoms: C_1  and  N_2
REMARK    2  A    between atoms: N_2  and  C_3
REMARK    3  A    between atoms: N_2  and  C_13
REMARK    4  A    between atoms: C_3  and  C_4
REMARK    5  A    between atoms: C_13  and  C_14
REMARK    6  A    between atoms: C_14  and  O_15
REMARK                            x       y       z     vdW  Elec       q    Type
REMARK                         _______ _______ _______ _____ _____    ______ ____
ROOT
ATOM      1  C   UNL     1       1.654   5.203  17.769  0.00  0.00    +0.000 C 
ATOM      2  N   UNL     1       2.924   5.565  18.402  0.00  0.00    +0.000 NA
ENDROOT
BRANCH   2   3
ATOM      3  C   UNL     1       2.714   6.689  19.348  0.00  0.00    +0.000 C 
BRANCH   3   4
ATOM      4  C   UNL     1       2.351   8.005  18.636  0.00  0.00    +0.000 C 
ATOM      5  O   UNL     1       2.757   8.215  17.489  0.00  0.00    +0.000 OA
ATOM      6  N   UNL     1       1.503   8.893  19.285  0.00  0.00    +0.000 N 
ATOM      7  C   UNL     1       1.110  10.134  18.624  0.00  0.00    +0.000 C 
ATOM      8  C   UNL     1      -0.384  10.359  18.841  0.00  0.00    +0.000 C 
ATOM      9  N   UNL     1      -0.731  10.340  20.247  0.00  0.00    +0.000 N 
ATOM     10  C   UNL     1      -0.132   9.486  21.142  0.00  0.00    +0.000 C 
ATOM     11  O   UNL     1      -0.606   9.366  22.269  0.00  0.00    +0.000 OA
ATOM     12  C   UNL     1       1.183   8.822  20.716  0.00  0.00    +0.000 C 
ATOM     13  H   UNL     1      -1.633  10.685  20.550  0.00  0.00    +0.000 HD
ENDBRANCH   3   4
ENDBRANCH   2   3
BRANCH   2  14
ATOM     14  C   UNL     1       3.569   4.420  19.106  0.00  0.00    +0.000 C 
BRANCH  14  15
ATOM     15  C   UNL     1       5.085   4.142  18.799  0.00  0.00    +0.000 C 
ATOM     16  C   UNL     1       5.999   5.183  19.501  0.00  0.00    +0.000 C 
ATOM     17  C   UNL     1       6.655   6.074  18.435  0.00  0.00    +0.000 C 
ATOM     18  C   UNL     1       6.276   5.425  17.147  0.00  0.00    +0.000 A 
ATOM     19  C   UNL     1       6.625   5.834  15.871  0.00  0.00    +0.000 A 
ATOM     20  C   UNL     1       6.145   5.114  14.778  0.00  0.00    +0.000 A 
ATOM     21  C   UNL     1       5.352   3.978  14.974  0.00  0.00    +0.000 A 
ATOM     22  C   UNL     1       5.019   3.564  16.263  0.00  0.00    +0.000 A 
ATOM     23  C   UNL     1       5.453   4.315  17.348  0.00  0.00    +0.000 A 
BRANCH  15  24
ATOM     24  O   UNL     1       5.476   2.862  19.295  0.00  0.00    +0.000 OA
ATOM     25  H   UNL     1       5.869   2.377  18.549  0.00  0.00    +0.000 HD
ENDBRANCH  15  24
ENDBRANCH  14  15
ENDBRANCH   2  14
TORSDOF 5
ENDMDL
