MODEL 1
REMARK VINA RESULT:      -7.7      0.000      0.000
REMARK  Name = 
REMARK  8 active torsions:
REMARK  status: ('A' for Active; 'I' for Inactive)
REMARK    1  A    between atoms: C_1  and  N_2
REMARK    2  A    between atoms: C_3  and  C_5
REMARK    3  A    between atoms: C_7  and  C_8
REMARK    4  A    between atoms: C_8  and  C_9
REMARK    5  A    between atoms: C_9  and  C_10
REMARK    6  A    between atoms: C_10  and  N_11
REMARK    7  A    between atoms: N_17  and  C_18
REMARK    8  A    between atoms: C_24  and  C_25
REMARK                            x       y       z     vdW  Elec       q    Type
REMARK                         _______ _______ _______ _____ _____    ______ ____
ROOT
ATOM      1  C   UNL     1       5.178   5.577  16.416  0.00  0.00    +0.000 C 
ATOM      2  C   UNL     1       4.861   6.763  16.950  0.00  0.00    +0.000 C 
ATOM      3  C   UNL     1       3.794   6.652  18.001  0.00  0.00    +0.000 C 
ATOM      4  N   UNL     1       3.615   5.162  18.068  0.00  0.00    +0.000 N 
ATOM      5  C   UNL     1       4.339   4.596  17.164  0.00  0.00    +0.000 C 
ATOM      6  C   UNL     1       4.535   3.124  16.979  0.00  0.00    +0.000 C 
ENDROOT
BRANCH   4   7
ATOM      7  C   UNL     1       2.688   4.580  18.975  0.00  0.00    +0.000 A 
ATOM      8  C   UNL     1       1.553   3.871  18.566  0.00  0.00    +0.000 A 
ATOM      9  C   UNL     1       0.713   3.260  19.507  0.00  0.00    +0.000 A 
ATOM     10  C   UNL     1       0.992   3.355  20.867  0.00  0.00    +0.000 A 
ATOM     11  C   UNL     1       2.097   4.081  21.295  0.00  0.00    +0.000 A 
ATOM     12  C   UNL     1       2.929   4.701  20.359  0.00  0.00    +0.000 A 
ENDBRANCH   4   7
BRANCH   1  15
ATOM     13  C   UNL     1       6.558   4.141  13.218  0.00  0.00    +0.000 C 
ATOM     14  N   UNL     1       5.672   4.525  14.292  0.00  0.00    +0.000 N 
ATOM     15  C   UNL     1       6.144   5.264  15.344  0.00  0.00    +0.000 C 
ATOM     16  O   UNL     1       7.292   5.680  15.426  0.00  0.00    +0.000 OA
ATOM     17  H   UNL     1       4.717   4.200  14.242  0.00  0.00    +0.000 HD
ENDBRANCH   1  15
BRANCH   3  18
ATOM     18  C   UNL     1       2.493   7.376  17.586  0.00  0.00    +0.000 C 
BRANCH  18  19
ATOM     19  C   UNL     1       2.041   8.339  18.695  0.00  0.00    +0.000 C 
BRANCH  19  20
ATOM     20  C   UNL     1       1.224   9.544  18.207  0.00  0.00    +0.000 C 
BRANCH  20  21
ATOM     21  N   UNL     1       0.485  10.151  19.325  0.00  0.00    +0.000 NA
ATOM     22  C   UNL     1      -0.970  10.317  19.098  0.00  0.00    +0.000 C 
ATOM     23  C   UNL     1      -1.346  11.461  18.140  0.00  0.00    +0.000 C 
ATOM     24  O   UNL     1      -0.766  12.703  18.542  0.00  0.00    +0.000 OA
ATOM     25  C   UNL     1       0.653  12.596  18.691  0.00  0.00    +0.000 C 
ATOM     26  C   UNL     1       1.026  11.485  19.688  0.00  0.00    +0.000 C 
ENDBRANCH  20  21
ENDBRANCH  19  20
ENDBRANCH  18  19
ENDBRANCH   3  18
TORSDOF 6
ENDMDL
MODEL 2
REMARK VINA RESULT:      -7.7      0.745      1.282
REMARK  Name = 
REMARK  8 active torsions:
REMARK  status: ('A' for Active; 'I' for Inactive)
REMARK    1  A    between atoms: C_1  and  N_2
REMARK    2  A    between atoms: C_3  and  C_5
REMARK    3  A    between atoms: C_7  and  C_8
REMARK    4  A    between atoms: C_8  and  C_9
REMARK    5  A    between atoms: C_9  and  C_10
REMARK    6  A    between atoms: C_10  and  N_11
REMARK    7  A    between atoms: N_17  and  C_18
REMARK    8  A    between atoms: C_24  and  C_25
REMARK                            x       y       z     vdW  Elec       q    Type
REMARK                         _______ _______ _______ _____ _____    ______ ____
ROOT
ATOM      1  C   UNL     1       5.094   5.578  16.560  0.00  0.00    +0.000 C 
ATOM      2  C   UNL     1       4.694   6.743  17.084  0.00  0.00    +0.000 C 
ATOM      3  C   UNL     1       3.626   6.567  18.125  0.00  0.00    +0.000 C 
ATOM      4  N   UNL     1       3.548   5.069  18.200  0.00  0.00    +0.000 N 
ATOM      5  C   UNL     1       4.317   4.547  17.307  0.00  0.00    +0.000 C 
ATOM      6  C   UNL     1       4.612   3.090  17.134  0.00  0.00    +0.000 C 
ENDROOT
BRANCH   4   7
ATOM      7  C   UNL     1       2.653   4.432  19.103  0.00  0.00    +0.000 A 
ATOM      8  C   UNL     1       1.528   3.708  18.689  0.00  0.00    +0.000 A 
ATOM      9  C   UNL     1       0.722   3.042  19.622  0.00  0.00    +0.000 A 
ATOM     10  C   UNL     1       1.024   3.097  20.980  0.00  0.00    +0.000 A 
ATOM     11  C   UNL     1       2.119   3.835  21.413  0.00  0.00    +0.000 A 
ATOM     12  C   UNL     1       2.918   4.509  20.486  0.00  0.00    +0.000 A 
ENDBRANCH   4   7
BRANCH   1  15
ATOM     13  C   UNL     1       6.587   4.250  13.366  0.00  0.00    +0.000 C 
ATOM     14  N   UNL     1       5.668   4.579  14.431  0.00  0.00    +0.000 N 
ATOM     15  C   UNL     1       6.090   5.324  15.499  0.00  0.00    +0.000 C 
ATOM     16  O   UNL     1       7.216   5.791  15.604  0.00  0.00    +0.000 OA
ATOM     17  H   UNL     1       4.730   4.211  14.362  0.00  0.00    +0.000 HD
ENDBRANCH   1  15
BRANCH   3  18
ATOM     18  C   UNL     1       2.284   7.199  17.694  0.00  0.00    +0.000 C 
BRANCH  18  19
ATOM     19  C   UNL     1       2.320   8.722  17.901  0.00  0.00    +0.000 C 
BRANCH  19  20
ATOM     20  C   UNL     1       1.406   9.241  19.021  0.00  0.00    +0.000 C 
BRANCH  20  21
ATOM     21  N   UNL     1       0.658  10.423  18.568  0.00  0.00    +0.000 NA
ATOM     22  C   UNL     1       1.322  11.722  18.826  0.00  0.00    +0.000 C 
ATOM     23  C   UNL     1       1.291  12.181  20.293  0.00  0.00    +0.000 C 
ATOM     24  O   UNL     1      -0.038  12.196  20.818  0.00  0.00    +0.000 OA
ATOM     25  C   UNL     1      -0.680  10.928  20.657  0.00  0.00    +0.000 C 
ATOM     26  C   UNL     1      -0.692  10.493  19.181  0.00  0.00    +0.000 C 
ENDBRANCH  20  21
ENDBRANCH  19  20
ENDBRANCH  18  19
ENDBRANCH   3  18
TORSDOF 6
ENDMDL
MODEL 3
REMARK VINA RESULT:      -7.7      1.552      1.901
REMARK  Name = 
REMARK  8 active torsions:
REMARK  status: ('A' for Active; 'I' for Inactive)
REMARK    1  A    between atoms: C_1  and  N_2
REMARK    2  A    between atoms: C_3  and  C_5
REMARK    3  A    between atoms: C_7  and  C_8
REMARK    4  A    between atoms: C_8  and  C_9
REMARK    5  A    between atoms: C_9  and  C_10
REMARK    6  A    between atoms: C_10  and  N_11
REMARK    7  A    between atoms: N_17  and  C_18
REMARK    8  A    between atoms: C_24  and  C_25
REMARK                            x       y       z     vdW  Elec       q    Type
REMARK                         _______ _______ _______ _____ _____    ______ ____
ROOT
ATOM      1  C   UNL     1       5.226   5.947  16.900  0.00  0.00    +0.000 C 
ATOM      2  C   UNL     1       4.703   7.059  17.432  0.00  0.00    +0.000 C 
ATOM      3  C   UNL     1       3.542   6.770  18.339  0.00  0.00    +0.000 C 
ATOM      4  N   UNL     1       3.543   5.268  18.332  0.00  0.00    +0.000 N 
ATOM      5  C   UNL     1       4.434   4.838  17.505  0.00  0.00    +0.000 C 
ATOM      6  C   UNL     1       4.831   3.410  17.295  0.00  0.00    +0.000 C 
ENDROOT
BRANCH   4   7
ATOM      7  C   UNL     1       2.595   4.536  19.097  0.00  0.00    +0.000 A 
ATOM      8  C   UNL     1       1.602   3.732  18.527  0.00  0.00    +0.000 A 
ATOM      9  C   UNL     1       0.739   2.978  19.335  0.00  0.00    +0.000 A 
ATOM     10  C   UNL     1       0.854   3.023  20.721  0.00  0.00    +0.000 A 
ATOM     11  C   UNL     1       1.814   3.839  21.307  0.00  0.00    +0.000 A 
ATOM     12  C   UNL     1       2.667   4.601  20.504  0.00  0.00    +0.000 A 
ENDBRANCH   4   7
BRANCH   1  15
ATOM     13  C   UNL     1       7.093   4.994  13.769  0.00  0.00    +0.000 C 
ATOM     14  N   UNL     1       6.052   5.208  14.747  0.00  0.00    +0.000 N 
ATOM     15  C   UNL     1       6.343   5.805  15.945  0.00  0.00    +0.000 C 
ATOM     16  O   UNL     1       7.451   6.229  16.245  0.00  0.00    +0.000 OA
ATOM     17  H   UNL     1       5.127   4.874  14.518  0.00  0.00    +0.000 HD
ENDBRANCH   1  15
BRANCH   3  18
ATOM     18  C   UNL     1       2.219   7.353  17.792  0.00  0.00    +0.000 C 
BRANCH  18  19
ATOM     19  C   UNL     1       1.894   8.684  18.488  0.00  0.00    +0.000 C 
BRANCH  19  20
ATOM     20  C   UNL     1       1.587   8.569  19.988  0.00  0.00    +0.000 C 
BRANCH  20  21
ATOM     21  N   UNL     1       0.225   9.045  20.273  0.00  0.00    +0.000 NA
ATOM     22  C   UNL     1       0.042  10.512  20.183  0.00  0.00    +0.000 C 
ATOM     23  C   UNL     1       0.639  11.308  21.357  0.00  0.00    +0.000 C 
ATOM     24  O   UNL     1       0.166  10.831  22.618  0.00  0.00    +0.000 OA
ATOM     25  C   UNL     1       0.402   9.427  22.769  0.00  0.00    +0.000 C 
ATOM     26  C   UNL     1      -0.238   8.628  21.620  0.00  0.00    +0.000 C 
ENDBRANCH  20  21
ENDBRANCH  19  20
ENDBRANCH  18  19
ENDBRANCH   3  18
TORSDOF 6
ENDMDL
MODEL 4
REMARK VINA RESULT:      -7.7      0.815      1.067
REMARK  Name = 
REMARK  8 active torsions:
REMARK  status: ('A' for Active; 'I' for Inactive)
REMARK    1  A    between atoms: C_1  and  N_2
REMARK    2  A    between atoms: C_3  and  C_5
REMARK    3  A    between atoms: C_7  and  C_8
REMARK    4  A    between atoms: C_8  and  C_9
REMARK    5  A    between atoms: C_9  and  C_10
REMARK    6  A    between atoms: C_10  and  N_11
REMARK    7  A    between atoms: N_17  and  C_18
REMARK    8  A    between atoms: C_24  and  C_25
REMARK                            x       y       z     vdW  Elec       q    Type
REMARK                         _______ _______ _______ _____ _____    ______ ____
ROOT
ATOM      1  C   UNL     1       5.088   5.544  16.625  0.00  0.00    +0.000 C 
ATOM      2  C   UNL     1       4.721   6.696  17.199  0.00  0.00    +0.000 C 
ATOM      3  C   UNL     1       3.667   6.502  18.251  0.00  0.00    +0.000 C 
ATOM      4  N   UNL     1       3.558   5.005  18.271  0.00  0.00    +0.000 N 
ATOM      5  C   UNL     1       4.301   4.502  17.345  0.00  0.00    +0.000 C 
ATOM      6  C   UNL     1       4.563   3.047  17.112  0.00  0.00    +0.000 C 
ENDROOT
BRANCH   4   7
ATOM      7  C   UNL     1       2.665   4.352  19.164  0.00  0.00    +0.000 A 
ATOM      8  C   UNL     1       1.538   3.638  18.740  0.00  0.00    +0.000 A 
ATOM      9  C   UNL     1       0.733   2.957  19.663  0.00  0.00    +0.000 A 
ATOM     10  C   UNL     1       1.040   2.984  21.021  0.00  0.00    +0.000 A 
ATOM     11  C   UNL     1       2.137   3.712  21.465  0.00  0.00    +0.000 A 
ATOM     12  C   UNL     1       2.934   4.403  20.547  0.00  0.00    +0.000 A 
ENDBRANCH   4   7
BRANCH   1  15
ATOM     13  C   UNL     1       6.513   4.273  13.377  0.00  0.00    +0.000 C 
ATOM     14  N   UNL     1       5.617   4.582  14.467  0.00  0.00    +0.000 N 
ATOM     15  C   UNL     1       6.061   5.311  15.538  0.00  0.00    +0.000 C 
ATOM     16  O   UNL     1       7.188   5.779  15.626  0.00  0.00    +0.000 OA
ATOM     17  H   UNL     1       4.679   4.213  14.413  0.00  0.00    +0.000 HD
ENDBRANCH   1  15
BRANCH   3  18
ATOM     18  C   UNL     1       2.332   7.178  17.867  0.00  0.00    +0.000 C 
BRANCH  18  19
ATOM     19  C   UNL     1       2.513   8.701  17.767  0.00  0.00    +0.000 C 
BRANCH  19  20
ATOM     20  C   UNL     1       1.227   9.517  17.964  0.00  0.00    +0.000 C 
BRANCH  20  21
ATOM     21  N   UNL     1       1.387  10.471  19.071  0.00  0.00    +0.000 NA
ATOM     22  C   UNL     1       0.959   9.970  20.398  0.00  0.00    +0.000 C 
ATOM     23  C   UNL     1      -0.565   9.892  20.595  0.00  0.00    +0.000 C 
ATOM     24  O   UNL     1      -1.202  11.139  20.313  0.00  0.00    +0.000 OA
ATOM     25  C   UNL     1      -0.872  11.612  19.004  0.00  0.00    +0.000 C 
ATOM     26  C   UNL     1       0.652  11.737  18.824  0.00  0.00    +0.000 C 
ENDBRANCH  20  21
ENDBRANCH  19  20
ENDBRANCH  18  19
ENDBRANCH   3  18
TORSDOF 6
ENDMDL
MODEL 5
REMARK VINA RESULT:      -7.6      0.970      1.666
REMARK  Name = 
REMARK  8 active torsions:
REMARK  status: ('A' for Active; 'I' for Inactive)
REMARK    1  A    between atoms: C_1  and  N_2
REMARK    2  A    between atoms: C_3  and  C_5
REMARK    3  A    between atoms: C_7  and  C_8
REMARK    4  A    between atoms: C_8  and  C_9
REMARK    5  A    between atoms: C_9  and  C_10
REMARK    6  A    between atoms: C_10  and  N_11
REMARK    7  A    between atoms: N_17  and  C_18
REMARK    8  A    between atoms: C_24  and  C_25
REMARK                            x       y       z     vdW  Elec       q    Type
REMARK                         _______ _______ _______ _____ _____    ______ ____
ROOT
ATOM      1  C   UNL     1       5.279   5.528  16.114  0.00  0.00    +0.000 C 
ATOM      2  C   UNL     1       5.010   6.750  16.589  0.00  0.00    +0.000 C 
ATOM      3  C   UNL     1       4.000   6.724  17.701  0.00  0.00    +0.000 C 
ATOM      4  N   UNL     1       3.804   5.245  17.871  0.00  0.00    +0.000 N 
ATOM      5  C   UNL     1       4.469   4.611  16.967  0.00  0.00    +0.000 C 
ATOM      6  C   UNL     1       4.632   3.127  16.866  0.00  0.00    +0.000 C 
ENDROOT
BRANCH   4   7
ATOM      7  C   UNL     1       2.920   4.738  18.862  0.00  0.00    +0.000 A 
ATOM      8  C   UNL     1       3.089   4.965  20.233  0.00  0.00    +0.000 A 
ATOM      9  C   UNL     1       2.145   4.498  21.158  0.00  0.00    +0.000 A 
ATOM     10  C   UNL     1       1.024   3.794  20.726  0.00  0.00    +0.000 A 
ATOM     11  C   UNL     1       0.854   3.533  19.373  0.00  0.00    +0.000 A 
ATOM     12  C   UNL     1       1.800   3.987  18.449  0.00  0.00    +0.000 A 
ENDBRANCH   4   7
BRANCH   1  15
ATOM     13  C   UNL     1       6.457   3.879  12.938  0.00  0.00    +0.000 C 
ATOM     14  N   UNL     1       5.638   4.345  14.033  0.00  0.00    +0.000 N 
ATOM     15  C   UNL     1       6.180   5.131  15.014  0.00  0.00    +0.000 C 
ATOM     16  O   UNL     1       7.340   5.522  15.013  0.00  0.00    +0.000 OA
ATOM     17  H   UNL     1       4.675   4.042  14.051  0.00  0.00    +0.000 HD
ENDBRANCH   1  15
BRANCH   3  18
ATOM     18  C   UNL     1       2.690   7.445  17.311  0.00  0.00    +0.000 C 
BRANCH  18  19
ATOM     19  C   UNL     1       2.134   8.228  18.510  0.00  0.00    +0.000 C 
BRANCH  19  20
ATOM     20  C   UNL     1       1.951   9.733  18.268  0.00  0.00    +0.000 C 
BRANCH  20  21
ATOM     21  N   UNL     1       0.637  10.178  18.755  0.00  0.00    +0.000 NA
ATOM     22  C   UNL     1       0.482  11.645  18.891  0.00  0.00    +0.000 C 
ATOM     23  C   UNL     1       1.212  12.261  20.097  0.00  0.00    +0.000 C 
ATOM     24  O   UNL     1       0.857  11.614  21.321  0.00  0.00    +0.000 OA
ATOM     25  C   UNL     1       1.072  10.201  21.248  0.00  0.00    +0.000 C 
ATOM     26  C   UNL     1       0.301   9.579  20.071  0.00  0.00    +0.000 C 
ENDBRANCH  20  21
ENDBRANCH  19  20
ENDBRANCH  18  19
ENDBRANCH   3  18
TORSDOF 6
ENDMDL
MODEL 6
REMARK VINA RESULT:      -7.4      0.688      1.340
REMARK  Name = 
REMARK  8 active torsions:
REMARK  status: ('A' for Active; 'I' for Inactive)
REMARK    1  A    between atoms: C_1  and  N_2
REMARK    2  A    between atoms: C_3  and  C_5
REMARK    3  A    between atoms: C_7  and  C_8
REMARK    4  A    between atoms: C_8  and  C_9
REMARK    5  A    between atoms: C_9  and  C_10
REMARK    6  A    between atoms: C_10  and  N_11
REMARK    7  A    between atoms: N_17  and  C_18
REMARK    8  A    between atoms: C_24  and  C_25
REMARK                            x       y       z     vdW  Elec       q    Type
REMARK                         _______ _______ _______ _____ _____    ______ ____
ROOT
ATOM      1  C   UNL     1       5.316   5.495  16.195  0.00  0.00    +0.000 C 
ATOM      2  C   UNL     1       5.048   6.716  16.675  0.00  0.00    +0.000 C 
ATOM      3  C   UNL     1       4.023   6.689  17.773  0.00  0.00    +0.000 C 
ATOM      4  N   UNL     1       3.816   5.210  17.931  0.00  0.00    +0.000 N 
ATOM      5  C   UNL     1       4.489   4.578  17.031  0.00  0.00    +0.000 C 
ATOM      6  C   UNL     1       4.644   3.093  16.922  0.00  0.00    +0.000 C 
ENDROOT
BRANCH   4   7
ATOM      7  C   UNL     1       2.915   4.702  18.906  0.00  0.00    +0.000 A 
ATOM      8  C   UNL     1       3.075   4.907  20.282  0.00  0.00    +0.000 A 
ATOM      9  C   UNL     1       2.116   4.441  21.192  0.00  0.00    +0.000 A 
ATOM     10  C   UNL     1       0.990   3.760  20.740  0.00  0.00    +0.000 A 
ATOM     11  C   UNL     1       0.828   3.519  19.381  0.00  0.00    +0.000 A 
ATOM     12  C   UNL     1       1.789   3.973  18.473  0.00  0.00    +0.000 A 
ENDBRANCH   4   7
BRANCH   1  15
ATOM     13  C   UNL     1       6.517   3.886  13.008  0.00  0.00    +0.000 C 
ATOM     14  N   UNL     1       5.687   4.349  14.096  0.00  0.00    +0.000 N 
ATOM     15  C   UNL     1       6.229   5.100  15.104  0.00  0.00    +0.000 C 
ATOM     16  O   UNL     1       7.397   5.463  15.134  0.00  0.00    +0.000 OA
ATOM     17  H   UNL     1       4.717   4.068  14.089  0.00  0.00    +0.000 HD
ENDBRANCH   1  15
BRANCH   3  18
ATOM     18  C   UNL     1       2.723   7.420  17.371  0.00  0.00    +0.000 C 
BRANCH  18  19
ATOM     19  C   UNL     1       2.200   8.265  18.543  0.00  0.00    +0.000 C 
BRANCH  19  20
ATOM     20  C   UNL     1       1.352   9.478  18.136  0.00  0.00    +0.000 C 
BRANCH  20  21
ATOM     21  N   UNL     1       1.432  10.530  19.160  0.00  0.00    +0.000 NA
ATOM     22  C   UNL     1       0.778  10.203  20.448  0.00  0.00    +0.000 C 
ATOM     23  C   UNL     1      -0.759  10.254  20.421  0.00  0.00    +0.000 C 
ATOM     24  O   UNL     1      -1.241  11.506  19.930  0.00  0.00    +0.000 OA
ATOM     25  C   UNL     1      -0.688  11.813  18.647  0.00  0.00    +0.000 C 
ATOM     26  C   UNL     1       0.850  11.811  18.687  0.00  0.00    +0.000 C 
ENDBRANCH  20  21
ENDBRANCH  19  20
ENDBRANCH  18  19
ENDBRANCH   3  18
TORSDOF 6
ENDMDL
MODEL 7
REMARK VINA RESULT:      -7.2      1.026      1.427
REMARK  Name = 
REMARK  8 active torsions:
REMARK  status: ('A' for Active; 'I' for Inactive)
REMARK    1  A    between atoms: C_1  and  N_2
REMARK    2  A    between atoms: C_3  and  C_5
REMARK    3  A    between atoms: C_7  and  C_8
REMARK    4  A    between atoms: C_8  and  C_9
REMARK    5  A    between atoms: C_9  and  C_10
REMARK    6  A    between atoms: C_10  and  N_11
REMARK    7  A    between atoms: N_17  and  C_18
REMARK    8  A    between atoms: C_24  and  C_25
REMARK                            x       y       z     vdW  Elec       q    Type
REMARK                         _______ _______ _______ _____ _____    ______ ____
ROOT
ATOM      1  C   UNL     1       4.676   5.996  16.816  0.00  0.00    +0.000 C 
ATOM      2  C   UNL     1       4.448   7.006  17.664  0.00  0.00    +0.000 C 
ATOM      3  C   UNL     1       3.595   6.594  18.830  0.00  0.00    +0.000 C 
ATOM      4  N   UNL     1       3.453   5.121  18.571  0.00  0.00    +0.000 N 
ATOM      5  C   UNL     1       4.005   4.822  17.446  0.00  0.00    +0.000 C 
ATOM      6  C   UNL     1       4.183   3.446  16.885  0.00  0.00    +0.000 C 
ENDROOT
BRANCH   4   7
ATOM      7  C   UNL     1       2.719   4.294  19.464  0.00  0.00    +0.000 A 
ATOM      8  C   UNL     1       3.226   3.840  20.687  0.00  0.00    +0.000 A 
ATOM      9  C   UNL     1       2.429   3.084  21.557  0.00  0.00    +0.000 A 
ATOM     10  C   UNL     1       1.118   2.766  21.213  0.00  0.00    +0.000 A 
ATOM     11  C   UNL     1       0.606   3.180  19.990  0.00  0.00    +0.000 A 
ATOM     12  C   UNL     1       1.403   3.924  19.116  0.00  0.00    +0.000 A 
ENDBRANCH   4   7
BRANCH   1  15
ATOM     13  C   UNL     1       7.156   4.934  14.186  0.00  0.00    +0.000 C 
ATOM     14  N   UNL     1       6.347   4.990  15.381  0.00  0.00    +0.000 N 
ATOM     15  C   UNL     1       5.432   5.995  15.547  0.00  0.00    +0.000 C 
ATOM     16  O   UNL     1       5.205   6.857  14.709  0.00  0.00    +0.000 OA
ATOM     17  H   UNL     1       6.510   4.283  16.084  0.00  0.00    +0.000 HD
ENDBRANCH   1  15
BRANCH   3  18
ATOM     18  C   UNL     1       2.230   7.318  18.836  0.00  0.00    +0.000 C 
BRANCH  18  19
ATOM     19  C   UNL     1       2.185   8.381  17.726  0.00  0.00    +0.000 C 
BRANCH  19  20
ATOM     20  C   UNL     1       1.747   9.778  18.189  0.00  0.00    +0.000 C 
BRANCH  20  21
ATOM     21  N   UNL     1       0.558   9.686  19.050  0.00  0.00    +0.000 NA
ATOM     22  C   UNL     1      -0.655  10.348  18.516  0.00  0.00    +0.000 C 
ATOM     23  C   UNL     1      -0.636  11.884  18.591  0.00  0.00    +0.000 C 
ATOM     24  O   UNL     1      -0.365  12.348  19.915  0.00  0.00    +0.000 OA
ATOM     25  C   UNL     1       0.846  11.788  20.430  0.00  0.00    +0.000 C 
ATOM     26  C   UNL     1       0.806  10.250  20.400  0.00  0.00    +0.000 C 
ENDBRANCH  20  21
ENDBRANCH  19  20
ENDBRANCH  18  19
ENDBRANCH   3  18
TORSDOF 6
ENDMDL
MODEL 8
REMARK VINA RESULT:      -7.0      1.639      2.140
REMARK  Name = 
REMARK  8 active torsions:
REMARK  status: ('A' for Active; 'I' for Inactive)
REMARK    1  A    between atoms: C_1  and  N_2
REMARK    2  A    between atoms: C_3  and  C_5
REMARK    3  A    between atoms: C_7  and  C_8
REMARK    4  A    between atoms: C_8  and  C_9
REMARK    5  A    between atoms: C_9  and  C_10
REMARK    6  A    between atoms: C_10  and  N_11
REMARK    7  A    between atoms: N_17  and  C_18
REMARK    8  A    between atoms: C_24  and  C_25
REMARK                            x       y       z     vdW  Elec       q    Type
REMARK                         _______ _______ _______ _____ _____    ______ ____
ROOT
ATOM      1  C   UNL     1       4.896   5.302  16.366  0.00  0.00    +0.000 C 
ATOM      2  C   UNL     1       4.721   6.455  17.022  0.00  0.00    +0.000 C 
ATOM      3  C   UNL     1       3.830   6.302  18.222  0.00  0.00    +0.000 C 
ATOM      4  N   UNL     1       3.601   4.818  18.218  0.00  0.00    +0.000 N 
ATOM      5  C   UNL     1       4.147   4.297  17.174  0.00  0.00    +0.000 C 
ATOM      6  C   UNL     1       4.247   2.836  16.863  0.00  0.00    +0.000 C 
ENDROOT
BRANCH   4   7
ATOM      7  C   UNL     1       2.807   4.202  19.223  0.00  0.00    +0.000 A 
ATOM      8  C   UNL     1       3.171   4.160  20.574  0.00  0.00    +0.000 A 
ATOM      9  C   UNL     1       2.313   3.600  21.530  0.00  0.00    +0.000 A 
ATOM     10  C   UNL     1       1.084   3.069  21.149  0.00  0.00    +0.000 A 
ATOM     11  C   UNL     1       0.718   3.073  19.809  0.00  0.00    +0.000 A 
ATOM     12  C   UNL     1       1.577   3.621  18.852  0.00  0.00    +0.000 A 
ENDBRANCH   4   7
BRANCH   1  15
ATOM     13  C   UNL     1       7.781   5.277  13.943  0.00  0.00    +0.000 C 
ATOM     14  N   UNL     1       6.967   5.461  15.122  0.00  0.00    +0.000 N 
ATOM     15  C   UNL     1       5.665   5.037  15.133  0.00  0.00    +0.000 C 
ATOM     16  O   UNL     1       5.130   4.449  14.203  0.00  0.00    +0.000 OA
ATOM     17  H   UNL     1       7.390   5.937  15.906  0.00  0.00    +0.000 HD
ENDBRANCH   1  15
BRANCH   3  18
ATOM     18  C   UNL     1       2.513   7.095  18.073  0.00  0.00    +0.000 C 
BRANCH  18  19
ATOM     19  C   UNL     1       2.107   7.716  19.418  0.00  0.00    +0.000 C 
BRANCH  19  20
ATOM     20  C   UNL     1       1.529   9.136  19.325  0.00  0.00    +0.000 C 
BRANCH  20  21
ATOM     21  N   UNL     1       0.209   9.199  19.969  0.00  0.00    +0.000 NA
ATOM     22  C   UNL     1      -0.342  10.564  20.137  0.00  0.00    +0.000 C 
ATOM     23  C   UNL     1       0.317  11.392  21.253  0.00  0.00    +0.000 C 
ATOM     24  O   UNL     1       0.308  10.701  22.504  0.00  0.00    +0.000 OA
ATOM     25  C   UNL     1       0.908   9.408  22.393  0.00  0.00    +0.000 C 
ATOM     26  C   UNL     1       0.215   8.562  21.310  0.00  0.00    +0.000 C 
ENDBRANCH  20  21
ENDBRANCH  19  20
ENDBRANCH  18  19
ENDBRANCH   3  18
TORSDOF 6
ENDMDL
MODEL 9
REMARK VINA RESULT:      -7.0      0.830      1.646
REMARK  Name = 
REMARK  8 active torsions:
REMARK  status: ('A' for Active; 'I' for Inactive)
REMARK    1  A    between atoms: C_1  and  N_2
REMARK    2  A    between atoms: C_3  and  C_5
REMARK    3  A    between atoms: C_7  and  C_8
REMARK    4  A    between atoms: C_8  and  C_9
REMARK    5  A    between atoms: C_9  and  C_10
REMARK    6  A    between atoms: C_10  and  N_11
REMARK    7  A    between atoms: N_17  and  C_18
REMARK    8  A    between atoms: C_24  and  C_25
REMARK                            x       y       z     vdW  Elec       q    Type
REMARK                         _______ _______ _______ _____ _____    ______ ____
ROOT
ATOM      1  C   UNL     1       5.286   5.088  16.621  0.00  0.00    +0.000 C 
ATOM      2  C   UNL     1       5.075   6.258  17.237  0.00  0.00    +0.000 C 
ATOM      3  C   UNL     1       4.065   6.149  18.343  0.00  0.00    +0.000 C 
ATOM      4  N   UNL     1       3.800   4.671  18.342  0.00  0.00    +0.000 N 
ATOM      5  C   UNL     1       4.435   4.116  17.366  0.00  0.00    +0.000 C 
ATOM      6  C   UNL     1       4.528   2.648  17.092  0.00  0.00    +0.000 C 
ENDROOT
BRANCH   4   7
ATOM      7  C   UNL     1       2.894   4.093  19.272  0.00  0.00    +0.000 A 
ATOM      8  C   UNL     1       3.125   4.059  20.652  0.00  0.00    +0.000 A 
ATOM      9  C   UNL     1       2.162   3.538  21.527  0.00  0.00    +0.000 A 
ATOM     10  C   UNL     1       0.959   3.040  21.035  0.00  0.00    +0.000 A 
ATOM     11  C   UNL     1       0.723   3.037  19.666  0.00  0.00    +0.000 A 
ATOM     12  C   UNL     1       1.687   3.545  18.790  0.00  0.00    +0.000 A 
ENDBRANCH   4   7
BRANCH   1  15
ATOM     13  C   UNL     1       6.347   3.956  13.188  0.00  0.00    +0.000 C 
ATOM     14  N   UNL     1       5.557   4.318  14.342  0.00  0.00    +0.000 N 
ATOM     15  C   UNL     1       6.168   4.781  15.477  0.00  0.00    +0.000 C 
ATOM     16  O   UNL     1       7.373   4.963  15.578  0.00  0.00    +0.000 OA
ATOM     17  H   UNL     1       4.558   4.184  14.279  0.00  0.00    +0.000 HD
ENDBRANCH   1  15
BRANCH   3  18
ATOM     18  C   UNL     1       2.789   6.970  18.048  0.00  0.00    +0.000 C 
BRANCH  18  19
ATOM     19  C   UNL     1       2.065   7.321  19.357  0.00  0.00    +0.000 C 
BRANCH  19  20
ATOM     20  C   UNL     1       1.745   8.812  19.536  0.00  0.00    +0.000 C 
BRANCH  20  21
ATOM     21  N   UNL     1       1.464   9.439  18.235  0.00  0.00    +0.000 NA
ATOM     22  C   UNL     1       2.161  10.722  17.993  0.00  0.00    +0.000 C 
ATOM     23  C   UNL     1       1.591  11.922  18.770  0.00  0.00    +0.000 C 
ATOM     24  O   UNL     1       0.187  12.077  18.552  0.00  0.00    +0.000 OA
ATOM     25  C   UNL     1      -0.526  10.875  18.855  0.00  0.00    +0.000 C 
ATOM     26  C   UNL     1       0.013   9.686  18.041  0.00  0.00    +0.000 C 
ENDBRANCH  20  21
ENDBRANCH  19  20
ENDBRANCH  18  19
ENDBRANCH   3  18
TORSDOF 6
ENDMDL
