MODEL 1
REMARK VINA RESULT:      -8.6      0.000      0.000
REMARK  Name = 
REMARK  12 active torsions:
REMARK  status: ('A' for Active; 'I' for Inactive)
REMARK    1  A    between atoms: C_1  and  O_2
REMARK    2  A    between atoms: O_2  and  C_3
REMARK    3  A    between atoms: C_6  and  C_7
REMARK    4  A    between atoms: C_7  and  C_8
REMARK    5  A    between atoms: C_7  and  N_12
REMARK    6  A    between atoms: C_8  and  C_9
REMARK    7  A    between atoms: C_9  and  O_11
REMARK    8  A    between atoms: C_13  and  C_15
REMARK    9  A    between atoms: C_15  and  N_16
REMARK   10  A    between atoms: C_19  and  C_20
REMARK   11  A    between atoms: C_20  and  C_21
REMARK   12  A    between atoms: C_21  and  C_22
REMARK                            x       y       z     vdW  Elec       q    Type
REMARK                         _______ _______ _______ _____ _____    ______ ____
ROOT
ATOM      1  C   UNL     1       4.558   4.338  16.653  0.00  0.00    +0.000 C 
ENDROOT
BRANCH   1   2
ATOM      2  N   UNL     1       5.676   5.109  17.175  0.00  0.00    +0.000 N 
ATOM      3  C   UNL     1       6.417   4.689  18.334  0.00  0.00    +0.000 C 
ATOM      4  C   UNL     1       7.223   5.917  18.707  0.00  0.00    +0.000 C 
ATOM      5  C   UNL     1       7.430   6.646  17.376  0.00  0.00    +0.000 C 
ATOM      6  C   UNL     1       6.176   6.267  16.608  0.00  0.00    +0.000 C 
ATOM      7  O   UNL     1       5.700   6.843  15.644  0.00  0.00    +0.000 OA
BRANCH   5   8
ATOM      8  C   UNL     1       7.603   8.152  17.520  0.00  0.00    +0.000 C 
BRANCH   8   9
ATOM      9  C   UNL     1       8.551   8.516  18.664  0.00  0.00    +0.000 C 
BRANCH   9  10
ATOM     10  C   UNL     1       8.927   9.972  18.603  0.00  0.00    +0.000 A 
ATOM     11  C   UNL     1       8.249  10.834  17.747  0.00  0.00    +0.000 A 
ATOM     12  C   UNL     1       8.647  12.162  17.693  0.00  0.00    +0.000 A 
ATOM     13  C   UNL     1       9.701  12.592  18.499  0.00  0.00    +0.000 A 
ATOM     14  C   UNL     1      10.339  11.657  19.320  0.00  0.00    +0.000 A 
ATOM     15  N   UNL     1       9.964  10.368  19.379  0.00  0.00    +0.000 NA
ATOM     16  N   UNL     1      11.373  12.031  20.167  0.00  0.00    +0.000 N 
ATOM     17  C   UNL     1      12.123  13.207  19.789  0.00  0.00    +0.000 C 
ATOM     18  C   UNL     1      11.148  14.356  19.558  0.00  0.00    +0.000 C 
ATOM     19  C   UNL     1      10.202  14.008  18.410  0.00  0.00    +0.000 C 
ATOM     20  H   UNL     1      11.869  11.205  20.483  0.00  0.00    +0.000 HD
ENDBRANCH   9  10
ENDBRANCH   8   9
ENDBRANCH   5   8
ENDBRANCH   1   2
BRANCH   1  22
ATOM     21  N   UNL     1       3.376   5.351  18.520  0.00  0.00    +0.000 N 
ATOM     22  C   UNL     1       3.381   4.306  17.625  0.00  0.00    +0.000 C 
ATOM     23  O   UNL     1       2.474   3.478  17.551  0.00  0.00    +0.000 OA
ATOM     24  H   UNL     1       4.260   5.845  18.621  0.00  0.00    +0.000 HD
BRANCH  21  25
ATOM     25  C   UNL     1       2.344   5.544  19.517  0.00  0.00    +0.000 C 
BRANCH  25  29
ATOM     26  C   UNL     1       1.003   9.678  19.731  0.00  0.00    +0.000 A 
ATOM     27  C   UNL     1       0.904   8.854  20.853  0.00  0.00    +0.000 A 
ATOM     28  C   UNL     1       1.352   7.530  20.809  0.00  0.00    +0.000 A 
ATOM     29  C   UNL     1       1.921   7.000  19.641  0.00  0.00    +0.000 A 
ATOM     30  C   UNL     1       2.042   7.844  18.526  0.00  0.00    +0.000 A 
ATOM     31  C   UNL     1       1.587   9.161  18.574  0.00  0.00    +0.000 A 
ATOM     32  F   UNL     1       1.718   9.894  17.460  0.00  0.00    +0.000 F 
BRANCH  26  34
ATOM     33  C   UNL     1       1.426  11.999  19.988  0.00  0.00    +0.000 C 
ATOM     34  O   UNL     1       0.488  10.933  19.907  0.00  0.00    +0.000 OA
ENDBRANCH  26  34
ENDBRANCH  25  29
BRANCH  25  35
ATOM     35  C   UNL     1       2.720   4.958  20.883  0.00  0.00    +0.000 C 
BRANCH  35  36
ATOM     36  C   UNL     1       2.352   3.501  20.990  0.00  0.00    +0.000 C 
ATOM     37  O   UNL     1       1.311   3.097  21.488  0.00  0.00    +0.000 OA
BRANCH  36  38
ATOM     38  O   UNL     1       3.277   2.652  20.485  0.00  0.00    +0.000 OA
ATOM     39  H   UNL     1       3.427   1.840  21.003  0.00  0.00    +0.000 HD
ENDBRANCH  36  38
ENDBRANCH  35  36
ENDBRANCH  25  35
ENDBRANCH  21  25
ENDBRANCH   1  22
TORSDOF 11
ENDMDL
MODEL 2
REMARK VINA RESULT:      -8.6      1.118      1.436
REMARK  Name = 
REMARK  12 active torsions:
REMARK  status: ('A' for Active; 'I' for Inactive)
REMARK    1  A    between atoms: C_1  and  O_2
REMARK    2  A    between atoms: O_2  and  C_3
REMARK    3  A    between atoms: C_6  and  C_7
REMARK    4  A    between atoms: C_7  and  C_8
REMARK    5  A    between atoms: C_7  and  N_12
REMARK    6  A    between atoms: C_8  and  C_9
REMARK    7  A    between atoms: C_9  and  O_11
REMARK    8  A    between atoms: C_13  and  C_15
REMARK    9  A    between atoms: C_15  and  N_16
REMARK   10  A    between atoms: C_19  and  C_20
REMARK   11  A    between atoms: C_20  and  C_21
REMARK   12  A    between atoms: C_21  and  C_22
REMARK                            x       y       z     vdW  Elec       q    Type
REMARK                         _______ _______ _______ _____ _____    ______ ____
ROOT
ATOM      1  C   UNL     1       5.200   4.691  16.518  0.00  0.00    +0.000 C 
ENDROOT
BRANCH   1   2
ATOM      2  N   UNL     1       6.294   5.316  17.245  0.00  0.00    +0.000 N 
ATOM      3  C   UNL     1       7.168   4.562  18.103  0.00  0.00    +0.000 C 
ATOM      4  C   UNL     1       7.903   5.628  18.891  0.00  0.00    +0.000 C 
ATOM      5  C   UNL     1       7.931   6.835  17.948  0.00  0.00    +0.000 C 
ATOM      6  C   UNL     1       6.647   6.651  17.158  0.00  0.00    +0.000 C 
ATOM      7  O   UNL     1       6.041   7.500  16.526  0.00  0.00    +0.000 OA
BRANCH   5   8
ATOM      8  C   UNL     1       7.995   8.175  18.667  0.00  0.00    +0.000 C 
BRANCH   8   9
ATOM      9  C   UNL     1       8.226   9.339  17.701  0.00  0.00    +0.000 C 
BRANCH   9  10
ATOM     10  C   UNL     1       8.923  10.478  18.393  0.00  0.00    +0.000 A 
ATOM     11  C   UNL     1       9.413  10.316  19.685  0.00  0.00    +0.000 A 
ATOM     12  C   UNL     1      10.020  11.400  20.304  0.00  0.00    +0.000 A 
ATOM     13  C   UNL     1      10.128  12.608  19.614  0.00  0.00    +0.000 A 
ATOM     14  C   UNL     1       9.595  12.689  18.324  0.00  0.00    +0.000 A 
ATOM     15  N   UNL     1       9.003  11.648  17.715  0.00  0.00    +0.000 NA
ATOM     16  N   UNL     1       9.699  13.854  17.575  0.00  0.00    +0.000 N 
ATOM     17  C   UNL     1       9.841  15.086  18.317  0.00  0.00    +0.000 C 
ATOM     18  C   UNL     1      11.008  14.940  19.287  0.00  0.00    +0.000 C 
ATOM     19  C   UNL     1      10.715  13.819  20.283  0.00  0.00    +0.000 C 
ATOM     20  H   UNL     1       9.052  13.816  16.795  0.00  0.00    +0.000 HD
ENDBRANCH   9  10
ENDBRANCH   8   9
ENDBRANCH   5   8
ENDBRANCH   1   2
BRANCH   1  22
ATOM     21  N   UNL     1       3.811   5.530  18.328  0.00  0.00    +0.000 N 
ATOM     22  C   UNL     1       3.951   4.540  17.385  0.00  0.00    +0.000 C 
ATOM     23  O   UNL     1       3.103   3.669  17.190  0.00  0.00    +0.000 OA
ATOM     24  H   UNL     1       4.652   6.066  18.530  0.00  0.00    +0.000 HD
BRANCH  21  25
ATOM     25  C   UNL     1       2.691   5.609  19.243  0.00  0.00    +0.000 C 
BRANCH  25  29
ATOM     26  C   UNL     1       1.123   9.651  19.629  0.00  0.00    +0.000 A 
ATOM     27  C   UNL     1       1.111   8.790  20.728  0.00  0.00    +0.000 A 
ATOM     28  C   UNL     1       1.633   7.497  20.629  0.00  0.00    +0.000 A 
ATOM     29  C   UNL     1       2.189   7.034  19.426  0.00  0.00    +0.000 A 
ATOM     30  C   UNL     1       2.222   7.915  18.334  0.00  0.00    +0.000 A 
ATOM     31  C   UNL     1       1.695   9.202  18.438  0.00  0.00    +0.000 A 
ATOM     32  F   UNL     1       1.743   9.973  17.343  0.00  0.00    +0.000 F 
BRANCH  26  34
ATOM     33  C   UNL     1      -0.727  11.091  19.262  0.00  0.00    +0.000 C 
ATOM     34  O   UNL     1       0.544  10.867  19.861  0.00  0.00    +0.000 OA
ENDBRANCH  26  34
ENDBRANCH  25  29
BRANCH  25  35
ATOM     35  C   UNL     1       2.980   4.946  20.595  0.00  0.00    +0.000 C 
BRANCH  35  36
ATOM     36  C   UNL     1       1.916   3.946  20.969  0.00  0.00    +0.000 C 
ATOM     37  O   UNL     1       0.831   3.868  20.411  0.00  0.00    +0.000 OA
BRANCH  36  38
ATOM     38  O   UNL     1       2.255   3.126  21.990  0.00  0.00    +0.000 OA
ATOM     39  H   UNL     1       1.998   2.192  21.879  0.00  0.00    +0.000 HD
ENDBRANCH  36  38
ENDBRANCH  35  36
ENDBRANCH  25  35
ENDBRANCH  21  25
ENDBRANCH   1  22
TORSDOF 11
ENDMDL
MODEL 3
REMARK VINA RESULT:      -8.4      1.193      1.451
REMARK  Name = 
REMARK  12 active torsions:
REMARK  status: ('A' for Active; 'I' for Inactive)
REMARK    1  A    between atoms: C_1  and  O_2
REMARK    2  A    between atoms: O_2  and  C_3
REMARK    3  A    between atoms: C_6  and  C_7
REMARK    4  A    between atoms: C_7  and  C_8
REMARK    5  A    between atoms: C_7  and  N_12
REMARK    6  A    between atoms: C_8  and  C_9
REMARK    7  A    between atoms: C_9  and  O_11
REMARK    8  A    between atoms: C_13  and  C_15
REMARK    9  A    between atoms: C_15  and  N_16
REMARK   10  A    between atoms: C_19  and  C_20
REMARK   11  A    between atoms: C_20  and  C_21
REMARK   12  A    between atoms: C_21  and  C_22
REMARK                            x       y       z     vdW  Elec       q    Type
REMARK                         _______ _______ _______ _____ _____    ______ ____
ROOT
ATOM      1  C   UNL     1       5.387   4.343  17.173  0.00  0.00    +0.000 C 
ENDROOT
BRANCH   1   2
ATOM      2  N   UNL     1       6.419   5.296  17.550  0.00  0.00    +0.000 N 
ATOM      3  C   UNL     1       7.420   4.986  18.535  0.00  0.00    +0.000 C 
ATOM      4  C   UNL     1       8.041   6.333  18.850  0.00  0.00    +0.000 C 
ATOM      5  C   UNL     1       7.869   7.134  17.556  0.00  0.00    +0.000 C 
ATOM      6  C   UNL     1       6.588   6.548  16.987  0.00  0.00    +0.000 C 
ATOM      7  O   UNL     1       5.850   7.055  16.159  0.00  0.00    +0.000 OA
BRANCH   5   8
ATOM      8  C   UNL     1       7.785   8.639  17.772  0.00  0.00    +0.000 C 
BRANCH   8   9
ATOM      9  C   UNL     1       8.818   9.134  18.787  0.00  0.00    +0.000 C 
BRANCH   9  10
ATOM     10  C   UNL     1       9.099  10.599  18.591  0.00  0.00    +0.000 A 
ATOM     11  C   UNL     1       8.297  11.358  17.745  0.00  0.00    +0.000 A 
ATOM     12  C   UNL     1       8.608  12.698  17.563  0.00  0.00    +0.000 A 
ATOM     13  C   UNL     1       9.703  13.242  18.235  0.00  0.00    +0.000 A 
ATOM     14  C   UNL     1      10.467  12.405  19.054  0.00  0.00    +0.000 A 
ATOM     15  N   UNL     1      10.176  11.106  19.236  0.00  0.00    +0.000 NA
ATOM     16  N   UNL     1      11.549  12.895  19.773  0.00  0.00    +0.000 N 
ATOM     17  C   UNL     1      12.191  14.077  19.246  0.00  0.00    +0.000 C 
ATOM     18  C   UNL     1      11.132  15.153  19.029  0.00  0.00    +0.000 C 
ATOM     19  C   UNL     1      10.108  14.672  18.002  0.00  0.00    +0.000 C 
ATOM     20  H   UNL     1      12.120  12.122  20.097  0.00  0.00    +0.000 HD
ENDBRANCH   9  10
ENDBRANCH   8   9
ENDBRANCH   5   8
ENDBRANCH   1   2
BRANCH   1  22
ATOM     21  N   UNL     1       3.563   5.357  18.420  0.00  0.00    +0.000 N 
ATOM     22  C   UNL     1       4.308   4.214  18.246  0.00  0.00    +0.000 C 
ATOM     23  O   UNL     1       4.067   3.157  18.829  0.00  0.00    +0.000 OA
ATOM     24  H   UNL     1       3.973   6.208  18.042  0.00  0.00    +0.000 HD
BRANCH  21  25
ATOM     25  C   UNL     1       2.468   5.461  19.361  0.00  0.00    +0.000 C 
BRANCH  25  29
ATOM     26  C   UNL     1       1.146   9.571  19.907  0.00  0.00    +0.000 A 
ATOM     27  C   UNL     1       1.606   9.146  18.660  0.00  0.00    +0.000 A 
ATOM     28  C   UNL     1       2.011   7.823  18.460  0.00  0.00    +0.000 A 
ATOM     29  C   UNL     1       1.958   6.888  19.504  0.00  0.00    +0.000 A 
ATOM     30  C   UNL     1       1.469   7.316  20.748  0.00  0.00    +0.000 A 
ATOM     31  C   UNL     1       1.072   8.638  20.942  0.00  0.00    +0.000 A 
ATOM     32  F   UNL     1       0.638   8.973  22.165  0.00  0.00    +0.000 F 
BRANCH  26  34
ATOM     33  C   UNL     1      -0.530  11.236  19.685  0.00  0.00    +0.000 C 
ATOM     34  O   UNL     1       0.823  10.899  19.966  0.00  0.00    +0.000 OA
ENDBRANCH  26  34
ENDBRANCH  25  29
BRANCH  25  35
ATOM     35  C   UNL     1       2.799   4.851  20.729  0.00  0.00    +0.000 C 
BRANCH  35  36
ATOM     36  C   UNL     1       1.898   3.690  21.059  0.00  0.00    +0.000 C 
ATOM     37  O   UNL     1       1.848   3.160  22.160  0.00  0.00    +0.000 OA
BRANCH  36  38
ATOM     38  O   UNL     1       1.133   3.266  20.027  0.00  0.00    +0.000 OA
ATOM     39  H   UNL     1       1.569   3.268  19.155  0.00  0.00    +0.000 HD
ENDBRANCH  36  38
ENDBRANCH  35  36
ENDBRANCH  25  35
ENDBRANCH  21  25
ENDBRANCH   1  22
TORSDOF 11
ENDMDL
MODEL 4
REMARK VINA RESULT:      -8.3      1.867      2.431
REMARK  Name = 
REMARK  12 active torsions:
REMARK  status: ('A' for Active; 'I' for Inactive)
REMARK    1  A    between atoms: C_1  and  O_2
REMARK    2  A    between atoms: O_2  and  C_3
REMARK    3  A    between atoms: C_6  and  C_7
REMARK    4  A    between atoms: C_7  and  C_8
REMARK    5  A    between atoms: C_7  and  N_12
REMARK    6  A    between atoms: C_8  and  C_9
REMARK    7  A    between atoms: C_9  and  O_11
REMARK    8  A    between atoms: C_13  and  C_15
REMARK    9  A    between atoms: C_15  and  N_16
REMARK   10  A    between atoms: C_19  and  C_20
REMARK   11  A    between atoms: C_20  and  C_21
REMARK   12  A    between atoms: C_21  and  C_22
REMARK                            x       y       z     vdW  Elec       q    Type
REMARK                         _______ _______ _______ _____ _____    ______ ____
ROOT
ATOM      1  C   UNL     1       6.076   4.761  17.764  0.00  0.00    +0.000 C 
ENDROOT
BRANCH   1   2
ATOM      2  N   UNL     1       6.994   5.864  18.002  0.00  0.00    +0.000 N 
ATOM      3  C   UNL     1       8.007   5.807  19.020  0.00  0.00    +0.000 C 
ATOM      4  C   UNL     1       8.475   7.244  19.141  0.00  0.00    +0.000 C 
ATOM      5  C   UNL     1       8.237   7.831  17.745  0.00  0.00    +0.000 C 
ATOM      6  C   UNL     1       7.036   7.036  17.266  0.00  0.00    +0.000 C 
ATOM      7  O   UNL     1       6.259   7.336  16.375  0.00  0.00    +0.000 OA
BRANCH   5   8
ATOM      8  C   UNL     1       7.989   9.334  17.745  0.00  0.00    +0.000 C 
BRANCH   8   9
ATOM      9  C   UNL     1       8.740  10.042  18.874  0.00  0.00    +0.000 C 
BRANCH   9  10
ATOM     10  C   UNL     1       9.492  11.235  18.349  0.00  0.00    +0.000 A 
ATOM     11  C   UNL     1      10.837  11.120  18.014  0.00  0.00    +0.000 A 
ATOM     12  C   UNL     1      11.506  12.250  17.565  0.00  0.00    +0.000 A 
ATOM     13  C   UNL     1      10.813  13.456  17.456  0.00  0.00    +0.000 A 
ATOM     14  C   UNL     1       9.466  13.488  17.829  0.00  0.00    +0.000 A 
ATOM     15  N   UNL     1       8.809  12.401  18.267  0.00  0.00    +0.000 NA
ATOM     16  N   UNL     1       8.715  14.650  17.714  0.00  0.00    +0.000 N 
ATOM     17  C   UNL     1       9.446  15.896  17.751  0.00  0.00    +0.000 C 
ATOM     18  C   UNL     1      10.556  15.842  16.706  0.00  0.00    +0.000 C 
ATOM     19  C   UNL     1      11.529  14.713  17.042  0.00  0.00    +0.000 C 
ATOM     20  H   UNL     1       7.862  14.558  18.255  0.00  0.00    +0.000 HD
ENDBRANCH   9  10
ENDBRANCH   8   9
ENDBRANCH   5   8
ENDBRANCH   1   2
BRANCH   1  22
ATOM     21  N   UNL     1       3.651   4.874  17.635  0.00  0.00    +0.000 N 
ATOM     22  C   UNL     1       4.738   4.968  18.471  0.00  0.00    +0.000 C 
ATOM     23  O   UNL     1       4.641   5.109  19.690  0.00  0.00    +0.000 OA
ATOM     24  H   UNL     1       3.854   4.959  16.641  0.00  0.00    +0.000 HD
BRANCH  21  25
ATOM     25  C   UNL     1       2.282   5.007  18.086  0.00  0.00    +0.000 C 
BRANCH  25  29
ATOM     26  C   UNL     1       1.535   9.018  19.602  0.00  0.00    +0.000 A 
ATOM     27  C   UNL     1       1.729   8.814  18.235  0.00  0.00    +0.000 A 
ATOM     28  C   UNL     1       1.945   7.529  17.727  0.00  0.00    +0.000 A 
ATOM     29  C   UNL     1       1.965   6.413  18.577  0.00  0.00    +0.000 A 
ATOM     30  C   UNL     1       1.743   6.623  19.947  0.00  0.00    +0.000 A 
ATOM     31  C   UNL     1       1.533   7.908  20.447  0.00  0.00    +0.000 A 
ATOM     32  F   UNL     1       1.351   8.027  21.769  0.00  0.00    +0.000 F 
BRANCH  26  34
ATOM     33  C   UNL     1       1.326  11.274  18.897  0.00  0.00    +0.000 C 
ATOM     34  O   UNL     1       1.376  10.329  19.958  0.00  0.00    +0.000 OA
ENDBRANCH  26  34
ENDBRANCH  25  29
BRANCH  25  35
ATOM     35  C   UNL     1       1.896   3.955  19.132  0.00  0.00    +0.000 C 
BRANCH  35  36
ATOM     36  C   UNL     1       1.427   2.673  18.494  0.00  0.00    +0.000 C 
ATOM     37  O   UNL     1       0.264   2.298  18.497  0.00  0.00    +0.000 OA
BRANCH  36  38
ATOM     38  O   UNL     1       2.409   1.951  17.907  0.00  0.00    +0.000 OA
ATOM     39  H   UNL     1       3.278   2.389  17.856  0.00  0.00    +0.000 HD
ENDBRANCH  36  38
ENDBRANCH  35  36
ENDBRANCH  25  35
ENDBRANCH  21  25
ENDBRANCH   1  22
TORSDOF 11
ENDMDL
MODEL 5
REMARK VINA RESULT:      -8.3      1.573      2.055
REMARK  Name = 
REMARK  12 active torsions:
REMARK  status: ('A' for Active; 'I' for Inactive)
REMARK    1  A    between atoms: C_1  and  O_2
REMARK    2  A    between atoms: O_2  and  C_3
REMARK    3  A    between atoms: C_6  and  C_7
REMARK    4  A    between atoms: C_7  and  C_8
REMARK    5  A    between atoms: C_7  and  N_12
REMARK    6  A    between atoms: C_8  and  C_9
REMARK    7  A    between atoms: C_9  and  O_11
REMARK    8  A    between atoms: C_13  and  C_15
REMARK    9  A    between atoms: C_15  and  N_16
REMARK   10  A    between atoms: C_19  and  C_20
REMARK   11  A    between atoms: C_20  and  C_21
REMARK   12  A    between atoms: C_21  and  C_22
REMARK                            x       y       z     vdW  Elec       q    Type
REMARK                         _______ _______ _______ _____ _____    ______ ____
ROOT
ATOM      1  C   UNL     1       5.451   3.691  18.083  0.00  0.00    +0.000 C 
ENDROOT
BRANCH   1   2
ATOM      2  N   UNL     1       6.025   4.959  17.660  0.00  0.00    +0.000 N 
ATOM      3  C   UNL     1       6.053   5.360  16.279  0.00  0.00    +0.000 C 
ATOM      4  C   UNL     1       7.014   6.532  16.266  0.00  0.00    +0.000 C 
ATOM      5  C   UNL     1       6.881   7.137  17.667  0.00  0.00    +0.000 C 
ATOM      6  C   UNL     1       6.544   5.919  18.509  0.00  0.00    +0.000 C 
ATOM      7  O   UNL     1       6.665   5.801  19.717  0.00  0.00    +0.000 OA
BRANCH   5   8
ATOM      8  C   UNL     1       8.134   7.858  18.146  0.00  0.00    +0.000 C 
BRANCH   8   9
ATOM      9  C   UNL     1       8.347   9.189  17.422  0.00  0.00    +0.000 C 
BRANCH   9  10
ATOM     10  C   UNL     1       8.900  10.226  18.361  0.00  0.00    +0.000 A 
ATOM     11  C   UNL     1       9.094   9.921  19.704  0.00  0.00    +0.000 A 
ATOM     12  C   UNL     1       9.574  10.913  20.546  0.00  0.00    +0.000 A 
ATOM     13  C   UNL     1       9.854  12.176  20.024  0.00  0.00    +0.000 A 
ATOM     14  C   UNL     1       9.615  12.404  18.665  0.00  0.00    +0.000 A 
ATOM     15  N   UNL     1       9.149  11.451  17.840  0.00  0.00    +0.000 NA
ATOM     16  N   UNL     1       9.903  13.630  18.080  0.00  0.00    +0.000 N 
ATOM     17  C   UNL     1       9.905  14.778  18.958  0.00  0.00    +0.000 C 
ATOM     18  C   UNL     1      10.831  14.490  20.135  0.00  0.00    +0.000 C 
ATOM     19  C   UNL     1      10.306  13.292  20.925  0.00  0.00    +0.000 C 
ATOM     20  H   UNL     1       9.440  13.694  17.180  0.00  0.00    +0.000 HD
ENDBRANCH   9  10
ENDBRANCH   8   9
ENDBRANCH   5   8
ENDBRANCH   1   2
BRANCH   1  22
ATOM     21  N   UNL     1       3.615   4.646  19.357  0.00  0.00    +0.000 N 
ATOM     22  C   UNL     1       3.948   3.797  18.328  0.00  0.00    +0.000 C 
ATOM     23  O   UNL     1       3.112   3.249  17.609  0.00  0.00    +0.000 OA
ATOM     24  H   UNL     1       4.372   4.878  19.997  0.00  0.00    +0.000 HD
BRANCH  21  25
ATOM     25  C   UNL     1       2.250   4.925  19.753  0.00  0.00    +0.000 C 
BRANCH  25  29
ATOM     26  C   UNL     1       1.417   9.196  19.693  0.00  0.00    +0.000 A 
ATOM     27  C   UNL     1       1.950   8.574  18.563  0.00  0.00    +0.000 A 
ATOM     28  C   UNL     1       2.201   7.199  18.556  0.00  0.00    +0.000 A 
ATOM     29  C   UNL     1       1.916   6.408  19.680  0.00  0.00    +0.000 A 
ATOM     30  C   UNL     1       1.354   7.037  20.802  0.00  0.00    +0.000 A 
ATOM     31  C   UNL     1       1.112   8.410  20.805  0.00  0.00    +0.000 A 
ATOM     32  F   UNL     1       0.595   8.938  21.923  0.00  0.00    +0.000 F 
BRANCH  26  34
ATOM     33  C   UNL     1       1.741  11.137  18.367  0.00  0.00    +0.000 C 
ATOM     34  O   UNL     1       1.263  10.550  19.570  0.00  0.00    +0.000 OA
ENDBRANCH  26  34
ENDBRANCH  25  29
BRANCH  25  35
ATOM     35  C   UNL     1       1.899   4.345  21.128  0.00  0.00    +0.000 C 
BRANCH  35  36
ATOM     36  C   UNL     1       2.154   2.862  21.194  0.00  0.00    +0.000 C 
ATOM     37  O   UNL     1       2.770   2.317  22.098  0.00  0.00    +0.000 OA
BRANCH  36  38
ATOM     38  O   UNL     1       1.643   2.161  20.155  0.00  0.00    +0.000 OA
ATOM     39  H   UNL     1       0.775   2.466  19.832  0.00  0.00    +0.000 HD
ENDBRANCH  36  38
ENDBRANCH  35  36
ENDBRANCH  25  35
ENDBRANCH  21  25
ENDBRANCH   1  22
TORSDOF 11
ENDMDL
MODEL 6
REMARK VINA RESULT:      -8.2      1.473      1.886
REMARK  Name = 
REMARK  12 active torsions:
REMARK  status: ('A' for Active; 'I' for Inactive)
REMARK    1  A    between atoms: C_1  and  O_2
REMARK    2  A    between atoms: O_2  and  C_3
REMARK    3  A    between atoms: C_6  and  C_7
REMARK    4  A    between atoms: C_7  and  C_8
REMARK    5  A    between atoms: C_7  and  N_12
REMARK    6  A    between atoms: C_8  and  C_9
REMARK    7  A    between atoms: C_9  and  O_11
REMARK    8  A    between atoms: C_13  and  C_15
REMARK    9  A    between atoms: C_15  and  N_16
REMARK   10  A    between atoms: C_19  and  C_20
REMARK   11  A    between atoms: C_20  and  C_21
REMARK   12  A    between atoms: C_21  and  C_22
REMARK                            x       y       z     vdW  Elec       q    Type
REMARK                         _______ _______ _______ _____ _____    ______ ____
ROOT
ATOM      1  C   UNL     1       5.560   4.557  16.732  0.00  0.00    +0.000 C 
ENDROOT
BRANCH   1   2
ATOM      2  N   UNL     1       6.525   5.514  17.249  0.00  0.00    +0.000 N 
ATOM      3  C   UNL     1       7.501   5.153  18.241  0.00  0.00    +0.000 C 
ATOM      4  C   UNL     1       8.037   6.488  18.718  0.00  0.00    +0.000 C 
ATOM      5  C   UNL     1       7.874   7.410  17.505  0.00  0.00    +0.000 C 
ATOM      6  C   UNL     1       6.650   6.825  16.824  0.00  0.00    +0.000 C 
ATOM      7  O   UNL     1       5.918   7.378  16.020  0.00  0.00    +0.000 OA
BRANCH   5   8
ATOM      8  C   UNL     1       7.703   8.879  17.869  0.00  0.00    +0.000 C 
BRANCH   8   9
ATOM      9  C   UNL     1       8.791   9.366  18.828  0.00  0.00    +0.000 C 
BRANCH   9  10
ATOM     10  C   UNL     1       9.250  10.750  18.457  0.00  0.00    +0.000 A 
ATOM     11  C   UNL     1      10.455  10.930  17.786  0.00  0.00    +0.000 A 
ATOM     12  C   UNL     1      10.861  12.224  17.491  0.00  0.00    +0.000 A 
ATOM     13  C   UNL     1      10.051  13.296  17.865  0.00  0.00    +0.000 A 
ATOM     14  C   UNL     1       8.863  13.028  18.551  0.00  0.00    +0.000 A 
ATOM     15  N   UNL     1       8.460  11.780  18.844  0.00  0.00    +0.000 NA
ATOM     16  N   UNL     1       8.000  14.050  18.923  0.00  0.00    +0.000 N 
ATOM     17  C   UNL     1       8.589  15.359  19.096  0.00  0.00    +0.000 C 
ATOM     18  C   UNL     1       9.367  15.716  17.834  0.00  0.00    +0.000 C 
ATOM     19  C   UNL     1      10.499  14.712  17.624  0.00  0.00    +0.000 C 
ATOM     20  H   UNL     1       7.342  13.706  19.613  0.00  0.00    +0.000 HD
ENDBRANCH   9  10
ENDBRANCH   8   9
ENDBRANCH   5   8
ENDBRANCH   1   2
BRANCH   1  22
ATOM     21  N   UNL     1       3.896   5.703  18.084  0.00  0.00    +0.000 N 
ATOM     22  C   UNL     1       4.306   4.482  17.601  0.00  0.00    +0.000 C 
ATOM     23  O   UNL     1       3.671   3.442  17.772  0.00  0.00    +0.000 OA
ATOM     24  H   UNL     1       4.593   6.444  18.051  0.00  0.00    +0.000 HD
BRANCH  21  25
ATOM     25  C   UNL     1       2.717   5.882  18.906  0.00  0.00    +0.000 C 
BRANCH  25  29
ATOM     26  C   UNL     1       1.372  10.020  18.974  0.00  0.00    +0.000 A 
ATOM     27  C   UNL     1       1.908   9.480  17.803  0.00  0.00    +0.000 A 
ATOM     28  C   UNL     1       2.322   8.146  17.756  0.00  0.00    +0.000 A 
ATOM     29  C   UNL     1       2.202   7.314  18.880  0.00  0.00    +0.000 A 
ATOM     30  C   UNL     1       1.638   7.857  20.045  0.00  0.00    +0.000 A 
ATOM     31  C   UNL     1       1.231   9.190  20.086  0.00  0.00    +0.000 A 
ATOM     32  F   UNL     1       0.723   9.639  21.242  0.00  0.00    +0.000 F 
BRANCH  26  34
ATOM     33  C   UNL     1      -0.338  11.661  18.849  0.00  0.00    +0.000 C 
ATOM     34  O   UNL     1       1.049  11.346  18.885  0.00  0.00    +0.000 OA
ENDBRANCH  26  34
ENDBRANCH  25  29
BRANCH  25  35
ATOM     35  C   UNL     1       2.916   5.390  20.344  0.00  0.00    +0.000 C 
BRANCH  35  36
ATOM     36  C   UNL     1       2.139   4.130  20.620  0.00  0.00    +0.000 C 
ATOM     37  O   UNL     1       0.924   4.096  20.759  0.00  0.00    +0.000 OA
BRANCH  36  38
ATOM     38  O   UNL     1       2.898   3.013  20.706  0.00  0.00    +0.000 OA
ATOM     39  H   UNL     1       2.626   2.276  20.129  0.00  0.00    +0.000 HD
ENDBRANCH  36  38
ENDBRANCH  35  36
ENDBRANCH  25  35
ENDBRANCH  21  25
ENDBRANCH   1  22
TORSDOF 11
ENDMDL
MODEL 7
REMARK VINA RESULT:      -7.9      6.513     10.932
REMARK  Name = 
REMARK  12 active torsions:
REMARK  status: ('A' for Active; 'I' for Inactive)
REMARK    1  A    between atoms: C_1  and  O_2
REMARK    2  A    between atoms: O_2  and  C_3
REMARK    3  A    between atoms: C_6  and  C_7
REMARK    4  A    between atoms: C_7  and  C_8
REMARK    5  A    between atoms: C_7  and  N_12
REMARK    6  A    between atoms: C_8  and  C_9
REMARK    7  A    between atoms: C_9  and  O_11
REMARK    8  A    between atoms: C_13  and  C_15
REMARK    9  A    between atoms: C_15  and  N_16
REMARK   10  A    between atoms: C_19  and  C_20
REMARK   11  A    between atoms: C_20  and  C_21
REMARK   12  A    between atoms: C_21  and  C_22
REMARK                            x       y       z     vdW  Elec       q    Type
REMARK                         _______ _______ _______ _____ _____    ______ ____
ROOT
ATOM      1  C   UNL     1      -1.488  12.663  23.101  0.00  0.00    +0.000 C 
ENDROOT
BRANCH   1   2
ATOM      2  N   UNL     1      -0.938  11.734  22.126  0.00  0.00    +0.000 N 
ATOM      3  C   UNL     1      -1.025  11.972  20.710  0.00  0.00    +0.000 C 
ATOM      4  C   UNL     1      -0.653  10.637  20.098  0.00  0.00    +0.000 C 
ATOM      5  C   UNL     1       0.284  10.003  21.131  0.00  0.00    +0.000 C 
ATOM      6  C   UNL     1      -0.242  10.578  22.434  0.00  0.00    +0.000 C 
ATOM      7  O   UNL     1      -0.066  10.140  23.558  0.00  0.00    +0.000 OA
BRANCH   5   8
ATOM      8  C   UNL     1       0.278   8.480  21.113  0.00  0.00    +0.000 C 
BRANCH   8   9
ATOM      9  C   UNL     1       1.685   7.896  21.252  0.00  0.00    +0.000 C 
BRANCH   9  10
ATOM     10  C   UNL     1       1.920   6.818  20.228  0.00  0.00    +0.000 A 
ATOM     11  C   UNL     1       2.488   7.133  18.999  0.00  0.00    +0.000 A 
ATOM     12  C   UNL     1       2.658   6.118  18.068  0.00  0.00    +0.000 A 
ATOM     13  C   UNL     1       2.264   4.820  18.393  0.00  0.00    +0.000 A 
ATOM     14  C   UNL     1       1.686   4.592  19.646  0.00  0.00    +0.000 A 
ATOM     15  N   UNL     1       1.515   5.567  20.554  0.00  0.00    +0.000 NA
ATOM     16  N   UNL     1       1.302   3.317  20.039  0.00  0.00    +0.000 N 
ATOM     17  C   UNL     1       0.991   2.383  18.982  0.00  0.00    +0.000 C 
ATOM     18  C   UNL     1       2.165   2.337  18.009  0.00  0.00    +0.000 C 
ATOM     19  C   UNL     1       2.368   3.714  17.379  0.00  0.00    +0.000 C 
ATOM     20  H   UNL     1       0.687   3.381  20.844  0.00  0.00    +0.000 HD
ENDBRANCH   9  10
ENDBRANCH   8   9
ENDBRANCH   5   8
ENDBRANCH   1   2
BRANCH   1  22
ATOM     21  N   UNL     1      -3.751  13.339  22.527  0.00  0.00    +0.000 N 
ATOM     22  C   UNL     1      -2.993  12.477  23.283  0.00  0.00    +0.000 C 
ATOM     23  O   UNL     1      -3.477  11.576  23.968  0.00  0.00    +0.000 OA
ATOM     24  H   UNL     1      -3.259  14.154  22.166  0.00  0.00    +0.000 HD
BRANCH  21  25
ATOM     25  C   UNL     1      -5.199  13.329  22.515  0.00  0.00    +0.000 C 
BRANCH  25  29
ATOM     26  C   UNL     1      -6.844  13.247  18.486  0.00  0.00    +0.000 A 
ATOM     27  C   UNL     1      -7.506  13.948  19.496  0.00  0.00    +0.000 A 
ATOM     28  C   UNL     1      -6.979  14.005  20.790  0.00  0.00    +0.000 A 
ATOM     29  C   UNL     1      -5.769  13.368  21.104  0.00  0.00    +0.000 A 
ATOM     30  C   UNL     1      -5.096  12.689  20.077  0.00  0.00    +0.000 A 
ATOM     31  C   UNL     1      -5.630  12.631  18.790  0.00  0.00    +0.000 A 
ATOM     32  F   UNL     1      -4.937  11.943  17.871  0.00  0.00    +0.000 F 
BRANCH  26  34
ATOM     33  C   UNL     1      -7.328  14.395  16.467  0.00  0.00    +0.000 C 
ATOM     34  O   UNL     1      -7.495  13.243  17.284  0.00  0.00    +0.000 OA
ENDBRANCH  26  34
ENDBRANCH  25  29
BRANCH  25  35
ATOM     35  C   UNL     1      -5.808  14.431  23.389  0.00  0.00    +0.000 C 
BRANCH  35  36
ATOM     36  C   UNL     1      -4.810  15.515  23.703  0.00  0.00    +0.000 C 
ATOM     37  O   UNL     1      -4.563  16.450  22.955  0.00  0.00    +0.000 OA
BRANCH  36  38
ATOM     38  O   UNL     1      -4.191  15.375  24.898  0.00  0.00    +0.000 OA
ATOM     39  H   UNL     1      -3.377  15.899  25.011  0.00  0.00    +0.000 HD
ENDBRANCH  36  38
ENDBRANCH  35  36
ENDBRANCH  25  35
ENDBRANCH  21  25
ENDBRANCH   1  22
TORSDOF 11
ENDMDL
MODEL 8
REMARK VINA RESULT:      -7.9      1.509      2.073
REMARK  Name = 
REMARK  12 active torsions:
REMARK  status: ('A' for Active; 'I' for Inactive)
REMARK    1  A    between atoms: C_1  and  O_2
REMARK    2  A    between atoms: O_2  and  C_3
REMARK    3  A    between atoms: C_6  and  C_7
REMARK    4  A    between atoms: C_7  and  C_8
REMARK    5  A    between atoms: C_7  and  N_12
REMARK    6  A    between atoms: C_8  and  C_9
REMARK    7  A    between atoms: C_9  and  O_11
REMARK    8  A    between atoms: C_13  and  C_15
REMARK    9  A    between atoms: C_15  and  N_16
REMARK   10  A    between atoms: C_19  and  C_20
REMARK   11  A    between atoms: C_20  and  C_21
REMARK   12  A    between atoms: C_21  and  C_22
REMARK                            x       y       z     vdW  Elec       q    Type
REMARK                         _______ _______ _______ _____ _____    ______ ____
ROOT
ATOM      1  C   UNL     1       6.448   4.158  17.398  0.00  0.00    +0.000 C 
ENDROOT
BRANCH   1   2
ATOM      2  N   UNL     1       7.147   5.369  17.797  0.00  0.00    +0.000 N 
ATOM      3  C   UNL     1       8.040   5.399  18.923  0.00  0.00    +0.000 C 
ATOM      4  C   UNL     1       8.256   6.879  19.169  0.00  0.00    +0.000 C 
ATOM      5  C   UNL     1       8.080   7.516  17.787  0.00  0.00    +0.000 C 
ATOM      6  C   UNL     1       7.080   6.581  17.131  0.00  0.00    +0.000 C 
ATOM      7  O   UNL     1       6.367   6.819  16.171  0.00  0.00    +0.000 OA
BRANCH   5   8
ATOM      8  C   UNL     1       7.597   8.960  17.833  0.00  0.00    +0.000 C 
BRANCH   8   9
ATOM      9  C   UNL     1       8.689   9.947  17.417  0.00  0.00    +0.000 C 
BRANCH   9  10
ATOM     10  C   UNL     1       9.028  10.878  18.549  0.00  0.00    +0.000 A 
ATOM     11  C   UNL     1       9.298  10.369  19.815  0.00  0.00    +0.000 A 
ATOM     12  C   UNL     1       9.573  11.260  20.842  0.00  0.00    +0.000 A 
ATOM     13  C   UNL     1       9.579  12.629  20.575  0.00  0.00    +0.000 A 
ATOM     14  C   UNL     1       9.280  13.057  19.278  0.00  0.00    +0.000 A 
ATOM     15  N   UNL     1       9.011  12.204  18.276  0.00  0.00    +0.000 NA
ATOM     16  N   UNL     1       9.300  14.405  18.943  0.00  0.00    +0.000 N 
ATOM     17  C   UNL     1       9.077  15.340  20.021  0.00  0.00    +0.000 C 
ATOM     18  C   UNL     1      10.056  15.031  21.148  0.00  0.00    +0.000 C 
ATOM     19  C   UNL     1       9.802  13.622  21.683  0.00  0.00    +0.000 C 
ATOM     20  H   UNL     1       8.823  14.542  18.059  0.00  0.00    +0.000 HD
ENDBRANCH   9  10
ENDBRANCH   8   9
ENDBRANCH   5   8
ENDBRANCH   1   2
BRANCH   1  22
ATOM     21  N   UNL     1       4.187   4.819  17.999  0.00  0.00    +0.000 N 
ATOM     22  C   UNL     1       5.011   4.442  16.965  0.00  0.00    +0.000 C 
ATOM     23  O   UNL     1       4.652   4.429  15.787  0.00  0.00    +0.000 OA
ATOM     24  H   UNL     1       4.528   4.602  18.933  0.00  0.00    +0.000 HD
BRANCH  21  25
ATOM     25  C   UNL     1       2.792   5.165  17.823  0.00  0.00    +0.000 C 
BRANCH  25  29
ATOM     26  C   UNL     1       1.543   8.817  19.835  0.00  0.00    +0.000 A 
ATOM     27  C   UNL     1       1.723   7.643  20.568  0.00  0.00    +0.000 A 
ATOM     28  C   UNL     1       2.148   6.467  19.943  0.00  0.00    +0.000 A 
ATOM     29  C   UNL     1       2.411   6.439  18.565  0.00  0.00    +0.000 A 
ATOM     30  C   UNL     1       2.254   7.630  17.839  0.00  0.00    +0.000 A 
ATOM     31  C   UNL     1       1.824   8.798  18.468  0.00  0.00    +0.000 A 
ATOM     32  F   UNL     1       1.676   9.887  17.701  0.00  0.00    +0.000 F 
BRANCH  26  34
ATOM     33  C   UNL     1      -0.259  10.276  20.342  0.00  0.00    +0.000 C 
ATOM     34  O   UNL     1       1.086   9.876  20.570  0.00  0.00    +0.000 OA
ENDBRANCH  26  34
ENDBRANCH  25  29
BRANCH  25  35
ATOM     35  C   UNL     1       1.844   4.013  18.178  0.00  0.00    +0.000 C 
BRANCH  35  36
ATOM     36  C   UNL     1       2.587   2.826  18.732  0.00  0.00    +0.000 C 
ATOM     37  O   UNL     1       2.897   1.847  18.068  0.00  0.00    +0.000 OA
BRANCH  36  38
ATOM     38  O   UNL     1       2.891   2.921  20.047  0.00  0.00    +0.000 OA
ATOM     39  H   UNL     1       3.665   2.403  20.337  0.00  0.00    +0.000 HD
ENDBRANCH  36  38
ENDBRANCH  35  36
ENDBRANCH  25  35
ENDBRANCH  21  25
ENDBRANCH   1  22
TORSDOF 11
ENDMDL
MODEL 9
REMARK VINA RESULT:      -7.8      4.839      9.374
REMARK  Name = 
REMARK  12 active torsions:
REMARK  status: ('A' for Active; 'I' for Inactive)
REMARK    1  A    between atoms: C_1  and  O_2
REMARK    2  A    between atoms: O_2  and  C_3
REMARK    3  A    between atoms: C_6  and  C_7
REMARK    4  A    between atoms: C_7  and  C_8
REMARK    5  A    between atoms: C_7  and  N_12
REMARK    6  A    between atoms: C_8  and  C_9
REMARK    7  A    between atoms: C_9  and  O_11
REMARK    8  A    between atoms: C_13  and  C_15
REMARK    9  A    between atoms: C_15  and  N_16
REMARK   10  A    between atoms: C_19  and  C_20
REMARK   11  A    between atoms: C_20  and  C_21
REMARK   12  A    between atoms: C_21  and  C_22
REMARK                            x       y       z     vdW  Elec       q    Type
REMARK                         _______ _______ _______ _____ _____    ______ ____
ROOT
ATOM      1  C   UNL     1       2.340   6.787  20.033  0.00  0.00    +0.000 C 
ENDROOT
BRANCH   1   2
ATOM      2  N   UNL     1       1.919   8.026  19.399  0.00  0.00    +0.000 N 
ATOM      3  C   UNL     1       2.387   8.414  18.096  0.00  0.00    +0.000 C 
ATOM      4  C   UNL     1       1.987   9.872  17.991  0.00  0.00    +0.000 C 
ATOM      5  C   UNL     1       0.741   9.980  18.876  0.00  0.00    +0.000 C 
ATOM      6  C   UNL     1       1.007   8.921  19.931  0.00  0.00    +0.000 C 
ATOM      7  O   UNL     1       0.497   8.835  21.035  0.00  0.00    +0.000 OA
BRANCH   5   8
ATOM      8  C   UNL     1       0.529  11.366  19.471  0.00  0.00    +0.000 C 
BRANCH   8   9
ATOM      9  C   UNL     1      -0.185  12.308  18.500  0.00  0.00    +0.000 C 
BRANCH   9  10
ATOM     10  C   UNL     1      -1.637  11.935  18.365  0.00  0.00    +0.000 A 
ATOM     11  C   UNL     1      -2.078  11.233  17.249  0.00  0.00    +0.000 A 
ATOM     12  C   UNL     1      -3.429  10.936  17.143  0.00  0.00    +0.000 A 
ATOM     13  C   UNL     1      -4.298  11.342  18.157  0.00  0.00    +0.000 A 
ATOM     14  C   UNL     1      -3.775  12.058  19.237  0.00  0.00    +0.000 A 
ATOM     15  N   UNL     1      -2.468  12.352  19.349  0.00  0.00    +0.000 NA
ATOM     16  N   UNL     1      -4.583  12.461  20.292  0.00  0.00    +0.000 N 
ATOM     17  C   UNL     1      -5.988  12.629  19.999  0.00  0.00    +0.000 C 
ATOM     18  C   UNL     1      -6.509  11.349  19.354  0.00  0.00    +0.000 C 
ATOM     19  C   UNL     1      -5.778  11.099  18.036  0.00  0.00    +0.000 C 
ATOM     20  H   UNL     1      -4.102  13.167  20.839  0.00  0.00    +0.000 HD
ENDBRANCH   9  10
ENDBRANCH   8   9
ENDBRANCH   5   8
ENDBRANCH   1   2
BRANCH   1  22
ATOM     21  N   UNL     1       3.648   4.827  19.436  0.00  0.00    +0.000 N 
ATOM     22  C   UNL     1       2.683   5.708  19.008  0.00  0.00    +0.000 C 
ATOM     23  O   UNL     1       2.082   5.584  17.941  0.00  0.00    +0.000 OA
ATOM     24  H   UNL     1       4.207   5.139  20.228  0.00  0.00    +0.000 HD
BRANCH  21  25
ATOM     25  C   UNL     1       4.114   3.706  18.646  0.00  0.00    +0.000 C 
BRANCH  25  29
ATOM     26  C   UNL     1       6.794   5.041  15.487  0.00  0.00    +0.000 A 
ATOM     27  C   UNL     1       7.192   5.127  16.823  0.00  0.00    +0.000 A 
ATOM     28  C   UNL     1       6.354   4.680  17.848  0.00  0.00    +0.000 A 
ATOM     29  C   UNL     1       5.096   4.127  17.562  0.00  0.00    +0.000 A 
ATOM     30  C   UNL     1       4.715   4.019  16.216  0.00  0.00    +0.000 A 
ATOM     31  C   UNL     1       5.554   4.471  15.198  0.00  0.00    +0.000 A 
ATOM     32  F   UNL     1       5.106   4.354  13.940  0.00  0.00    +0.000 F 
BRANCH  26  34
ATOM     33  C   UNL     1       7.716   4.965  13.302  0.00  0.00    +0.000 C 
ATOM     34  O   UNL     1       7.697   5.552  14.597  0.00  0.00    +0.000 OA
ENDBRANCH  26  34
ENDBRANCH  25  29
BRANCH  25  35
ATOM     35  C   UNL     1       2.966   2.875  18.060  0.00  0.00    +0.000 C 
BRANCH  35  36
ATOM     36  C   UNL     1       2.064   2.327  19.135  0.00  0.00    +0.000 C 
ATOM     37  O   UNL     1       2.306   2.405  20.331  0.00  0.00    +0.000 OA
BRANCH  36  38
ATOM     38  O   UNL     1       0.942   1.729  18.672  0.00  0.00    +0.000 OA
ATOM     39  H   UNL     1       0.682   1.974  17.764  0.00  0.00    +0.000 HD
ENDBRANCH  36  38
ENDBRANCH  35  36
ENDBRANCH  25  35
ENDBRANCH  21  25
ENDBRANCH   1  22
TORSDOF 11
ENDMDL
