MODEL 1
REMARK VINA RESULT:      -8.4      0.000      0.000
REMARK  Name = 
REMARK  7 active torsions:
REMARK  status: ('A' for Active; 'I' for Inactive)
REMARK    1  A    between atoms: C_1  and  C_2
REMARK    2  A    between atoms: C_2  and  O_3
REMARK    3  A    between atoms: O_3  and  C_4
REMARK    4  A    between atoms: C_7  and  C_8
REMARK    5  A    between atoms: N_10  and  C_11
REMARK    6  A    between atoms: C_16  and  C_17
REMARK    7  A    between atoms: C_17  and  C_18
REMARK                            x       y       z     vdW  Elec       q    Type
REMARK                         _______ _______ _______ _____ _____    ______ ____
ROOT
ATOM      1  C   UNL     1       1.928   7.978  19.457  0.00  0.00    +0.000 A 
ATOM      2  C   UNL     1       2.777   8.389  18.425  0.00  0.00    +0.000 A 
ATOM      3  C   UNL     1       3.457   7.456  17.647  0.00  0.00    +0.000 A 
ATOM      4  C   UNL     1       3.292   6.102  17.894  0.00  0.00    +0.000 A 
ATOM      5  F   UNL     1       3.911   5.232  17.084  0.00  0.00    +0.000 F 
ATOM      6  C   UNL     1       2.478   5.636  18.932  0.00  0.00    +0.000 A 
ATOM      7  C   UNL     1       1.812   6.605  19.726  0.00  0.00    +0.000 A 
ENDROOT
BRANCH   6   8
ATOM      8  C   UNL     1       2.257   4.121  19.126  0.00  0.00    +0.000 C 
ATOM      9  C   UNL     1       1.381   3.921  20.404  0.00  0.00    +0.000 C 
ATOM     10  O   UNL     1       1.553   2.657  21.044  0.00  0.00    +0.000 OA
ATOM     11  C   UNL     1       2.910   2.468  21.385  0.00  0.00    +0.000 C 
ATOM     12  C   UNL     1       3.839   2.644  20.190  0.00  0.00    +0.000 C 
ATOM     13  N   UNL     1       5.036   1.988  20.183  0.00  0.00    +0.000 N 
ATOM     14  N   UNL     1       3.581   3.427  19.202  0.00  0.00    +0.000 NA
ATOM     15  H   UNL     1       5.444   1.658  21.046  0.00  0.00    +0.000 HD
ATOM     16  H   UNL     1       5.683   2.290  19.463  0.00  0.00    +0.000 HD
BRANCH   8  17
ATOM     17  C   UNL     1       1.476   3.510  17.923  0.00  0.00    +0.000 C 
ATOM     18  F   UNL     1       0.871   4.483  17.187  0.00  0.00    +0.000 F 
ATOM     19  F   UNL     1       2.320   2.862  17.075  0.00  0.00    +0.000 F 
ENDBRANCH   8  17
ENDBRANCH   6   8
BRANCH   1  22
ATOM     20  C   UNL     1       0.241   9.794  19.715  0.00  0.00    +0.000 C 
ATOM     21  O   UNL     1      -0.073   9.928  18.535  0.00  0.00    +0.000 OA
ATOM     22  N   UNL     1       1.163   8.889  20.223  0.00  0.00    +0.000 N 
ATOM     23  H   UNL     1       1.206   8.832  21.238  0.00  0.00    +0.000 HD
BRANCH  20  27
ATOM     24  C   UNL     1      -1.753  12.172  22.619  0.00  0.00    +0.000 A 
ATOM     25  C   UNL     1      -1.056  11.036  23.023  0.00  0.00    +0.000 A 
ATOM     26  C   UNL     1      -0.400  10.260  22.070  0.00  0.00    +0.000 A 
ATOM     27  C   UNL     1      -0.453  10.644  20.732  0.00  0.00    +0.000 A 
ATOM     28  N   UNL     1      -1.107  11.752  20.294  0.00  0.00    +0.000 NA
ATOM     29  C   UNL     1      -1.742  12.476  21.255  0.00  0.00    +0.000 A 
BRANCH  24  30
ATOM     30  O   UNL     1      -2.447  13.016  23.436  0.00  0.00    +0.000 OA
BRANCH  30  32
ATOM     31  C   UNL     1      -4.375  12.424  24.726  0.00  0.00    +0.000 C 
ATOM     32  C   UNL     1      -3.872  12.921  23.384  0.00  0.00    +0.000 C 
ENDBRANCH  30  32
ENDBRANCH  24  30
ENDBRANCH  20  27
ENDBRANCH   1  22
TORSDOF 6
ENDMDL
MODEL 2
REMARK VINA RESULT:      -8.3      3.035      4.157
REMARK  Name = 
REMARK  7 active torsions:
REMARK  status: ('A' for Active; 'I' for Inactive)
REMARK    1  A    between atoms: C_1  and  C_2
REMARK    2  A    between atoms: C_2  and  O_3
REMARK    3  A    between atoms: O_3  and  C_4
REMARK    4  A    between atoms: C_7  and  C_8
REMARK    5  A    between atoms: N_10  and  C_11
REMARK    6  A    between atoms: C_16  and  C_17
REMARK    7  A    between atoms: C_17  and  C_18
REMARK                            x       y       z     vdW  Elec       q    Type
REMARK                         _______ _______ _______ _____ _____    ______ ____
ROOT
ATOM      1  C   UNL     1       2.406   6.417  18.385  0.00  0.00    +0.000 A 
ATOM      2  C   UNL     1       1.681   5.248  18.137  0.00  0.00    +0.000 A 
ATOM      3  C   UNL     1       2.294   4.140  17.558  0.00  0.00    +0.000 A 
ATOM      4  C   UNL     1       3.639   4.192  17.223  0.00  0.00    +0.000 A 
ATOM      5  F   UNL     1       4.209   3.085  16.728  0.00  0.00    +0.000 F 
ATOM      6  C   UNL     1       4.404   5.346  17.423  0.00  0.00    +0.000 A 
ATOM      7  C   UNL     1       3.753   6.471  17.994  0.00  0.00    +0.000 A 
ENDROOT
BRANCH   6   8
ATOM      8  C   UNL     1       5.914   5.341  17.111  0.00  0.00    +0.000 C 
ATOM      9  C   UNL     1       6.640   4.556  18.250  0.00  0.00    +0.000 C 
ATOM     10  O   UNL     1       8.005   4.924  18.442  0.00  0.00    +0.000 OA
ATOM     11  C   UNL     1       8.101   6.308  18.707  0.00  0.00    +0.000 C 
ATOM     12  C   UNL     1       7.417   7.152  17.639  0.00  0.00    +0.000 C 
ATOM     13  N   UNL     1       7.859   8.424  17.422  0.00  0.00    +0.000 N 
ATOM     14  N   UNL     1       6.400   6.748  16.960  0.00  0.00    +0.000 NA
ATOM     15  H   UNL     1       8.390   8.910  18.131  0.00  0.00    +0.000 HD
ATOM     16  H   UNL     1       7.252   8.994  16.842  0.00  0.00    +0.000 HD
BRANCH   8  17
ATOM     17  C   UNL     1       6.207   4.598  15.771  0.00  0.00    +0.000 C 
ATOM     18  F   UNL     1       5.569   5.199  14.729  0.00  0.00    +0.000 F 
ATOM     19  F   UNL     1       7.535   4.636  15.475  0.00  0.00    +0.000 F 
ENDBRANCH   8  17
ENDBRANCH   6   8
BRANCH   1  22
ATOM     20  C   UNL     1       1.694   8.804  18.485  0.00  0.00    +0.000 C 
ATOM     21  O   UNL     1       2.002   9.140  17.345  0.00  0.00    +0.000 OA
ATOM     22  N   UNL     1       1.842   7.539  19.038  0.00  0.00    +0.000 N 
ATOM     23  H   UNL     1       1.419   7.410  19.954  0.00  0.00    +0.000 HD
BRANCH  20  27
ATOM     24  C   UNL     1      -0.095  11.730  20.997  0.00  0.00    +0.000 A 
ATOM     25  C   UNL     1       0.037  11.983  19.634  0.00  0.00    +0.000 A 
ATOM     26  C   UNL     1       0.620  11.021  18.812  0.00  0.00    +0.000 A 
ATOM     27  C   UNL     1       1.054   9.823  19.374  0.00  0.00    +0.000 A 
ATOM     28  N   UNL     1       0.932   9.526  20.695  0.00  0.00    +0.000 NA
ATOM     29  C   UNL     1       0.367  10.496  21.464  0.00  0.00    +0.000 A 
BRANCH  24  30
ATOM     30  O   UNL     1      -0.633  12.579  21.918  0.00  0.00    +0.000 OA
BRANCH  30  32
ATOM     31  C   UNL     1      -2.843  12.350  22.813  0.00  0.00    +0.000 C 
ATOM     32  C   UNL     1      -1.382  11.976  22.977  0.00  0.00    +0.000 C 
ENDBRANCH  30  32
ENDBRANCH  24  30
ENDBRANCH  20  27
ENDBRANCH   1  22
TORSDOF 6
ENDMDL
MODEL 3
REMARK VINA RESULT:      -8.2      3.017      4.025
REMARK  Name = 
REMARK  7 active torsions:
REMARK  status: ('A' for Active; 'I' for Inactive)
REMARK    1  A    between atoms: C_1  and  C_2
REMARK    2  A    between atoms: C_2  and  O_3
REMARK    3  A    between atoms: O_3  and  C_4
REMARK    4  A    between atoms: C_7  and  C_8
REMARK    5  A    between atoms: N_10  and  C_11
REMARK    6  A    between atoms: C_16  and  C_17
REMARK    7  A    between atoms: C_17  and  C_18
REMARK                            x       y       z     vdW  Elec       q    Type
REMARK                         _______ _______ _______ _____ _____    ______ ____
ROOT
ATOM      1  C   UNL     1       2.432   6.219  18.623  0.00  0.00    +0.000 A 
ATOM      2  C   UNL     1       1.699   5.074  18.295  0.00  0.00    +0.000 A 
ATOM      3  C   UNL     1       2.290   4.029  17.589  0.00  0.00    +0.000 A 
ATOM      4  C   UNL     1       3.619   4.120  17.206  0.00  0.00    +0.000 A 
ATOM      5  F   UNL     1       4.170   3.068  16.586  0.00  0.00    +0.000 F 
ATOM      6  C   UNL     1       4.390   5.255  17.483  0.00  0.00    +0.000 A 
ATOM      7  C   UNL     1       3.762   6.316  18.184  0.00  0.00    +0.000 A 
ENDROOT
BRANCH   6   8
ATOM      8  C   UNL     1       5.886   5.287  17.110  0.00  0.00    +0.000 C 
ATOM      9  C   UNL     1       6.672   4.485  18.196  0.00  0.00    +0.000 C 
ATOM     10  O   UNL     1       8.037   4.874  18.342  0.00  0.00    +0.000 OA
ATOM     11  C   UNL     1       8.118   6.251  18.643  0.00  0.00    +0.000 C 
ATOM     12  C   UNL     1       7.376   7.112  17.628  0.00  0.00    +0.000 C 
ATOM     13  N   UNL     1       7.785   8.398  17.429  0.00  0.00    +0.000 N 
ATOM     14  N   UNL     1       6.340   6.707  16.979  0.00  0.00    +0.000 NA
ATOM     15  H   UNL     1       8.336   8.874  18.131  0.00  0.00    +0.000 HD
ATOM     16  H   UNL     1       7.145   8.971  16.891  0.00  0.00    +0.000 HD
BRANCH   8  17
ATOM     17  C   UNL     1       6.137   4.587  15.739  0.00  0.00    +0.000 C 
ATOM     18  F   UNL     1       5.470   5.222  14.736  0.00  0.00    +0.000 F 
ATOM     19  F   UNL     1       7.456   4.633  15.405  0.00  0.00    +0.000 F 
ENDBRANCH   8  17
ENDBRANCH   6   8
BRANCH   1  22
ATOM     20  C   UNL     1       1.618   8.553  18.945  0.00  0.00    +0.000 C 
ATOM     21  O   UNL     1       1.773   8.966  17.799  0.00  0.00    +0.000 OA
ATOM     22  N   UNL     1       1.893   7.270  19.401  0.00  0.00    +0.000 N 
ATOM     23  H   UNL     1       1.588   7.070  20.351  0.00  0.00    +0.000 HD
BRANCH  20  27
ATOM     24  C   UNL     1      -0.069  11.179  21.831  0.00  0.00    +0.000 A 
ATOM     25  C   UNL     1       0.002   9.814  22.102  0.00  0.00    +0.000 A 
ATOM     26  C   UNL     1       0.559   8.956  21.156  0.00  0.00    +0.000 A 
ATOM     27  C   UNL     1       1.038   9.486  19.960  0.00  0.00    +0.000 A 
ATOM     28  N   UNL     1       1.004  10.811  19.659  0.00  0.00    +0.000 NA
ATOM     29  C   UNL     1       0.444  11.613  20.605  0.00  0.00    +0.000 A 
BRANCH  24  30
ATOM     30  O   UNL     1      -0.594  12.130  22.654  0.00  0.00    +0.000 OA
BRANCH  30  32
ATOM     31  C   UNL     1      -2.933  12.548  22.350  0.00  0.00    +0.000 C 
ATOM     32  C   UNL     1      -1.886  11.854  23.201  0.00  0.00    +0.000 C 
ENDBRANCH  30  32
ENDBRANCH  24  30
ENDBRANCH  20  27
ENDBRANCH   1  22
TORSDOF 6
ENDMDL
MODEL 4
REMARK VINA RESULT:      -8.1      1.076      1.177
REMARK  Name = 
REMARK  7 active torsions:
REMARK  status: ('A' for Active; 'I' for Inactive)
REMARK    1  A    between atoms: C_1  and  C_2
REMARK    2  A    between atoms: C_2  and  O_3
REMARK    3  A    between atoms: O_3  and  C_4
REMARK    4  A    between atoms: C_7  and  C_8
REMARK    5  A    between atoms: N_10  and  C_11
REMARK    6  A    between atoms: C_16  and  C_17
REMARK    7  A    between atoms: C_17  and  C_18
REMARK                            x       y       z     vdW  Elec       q    Type
REMARK                         _______ _______ _______ _____ _____    ______ ____
ROOT
ATOM      1  C   UNL     1       2.027   7.805  19.038  0.00  0.00    +0.000 A 
ATOM      2  C   UNL     1       2.972   8.139  18.064  0.00  0.00    +0.000 A 
ATOM      3  C   UNL     1       3.725   7.152  17.434  0.00  0.00    +0.000 A 
ATOM      4  C   UNL     1       3.538   5.821  17.773  0.00  0.00    +0.000 A 
ATOM      5  F   UNL     1       4.234   4.894  17.100  0.00  0.00    +0.000 F 
ATOM      6  C   UNL     1       2.627   5.433  18.761  0.00  0.00    +0.000 A 
ATOM      7  C   UNL     1       1.886   6.458  19.405  0.00  0.00    +0.000 A 
ENDROOT
BRANCH   6   8
ATOM      8  C   UNL     1       2.390   3.938  19.056  0.00  0.00    +0.000 C 
ATOM      9  C   UNL     1       1.481   3.833  20.322  0.00  0.00    +0.000 C 
ATOM     10  O   UNL     1       1.627   2.616  21.053  0.00  0.00    +0.000 OA
ATOM     11  C   UNL     1       2.974   2.444  21.442  0.00  0.00    +0.000 C 
ATOM     12  C   UNL     1       3.934   2.530  20.262  0.00  0.00    +0.000 C 
ATOM     13  N   UNL     1       5.125   1.868  20.331  0.00  0.00    +0.000 N 
ATOM     14  N   UNL     1       3.706   3.243  19.214  0.00  0.00    +0.000 NA
ATOM     15  H   UNL     1       5.508   1.597  21.226  0.00  0.00    +0.000 HD
ATOM     16  H   UNL     1       5.792   2.114  19.609  0.00  0.00    +0.000 HD
BRANCH   8  17
ATOM     17  C   UNL     1       1.635   3.248  17.879  0.00  0.00    +0.000 C 
ATOM     18  F   UNL     1       2.419   2.314  17.275  0.00  0.00    +0.000 F 
ATOM     19  F   UNL     1       0.536   2.584  18.331  0.00  0.00    +0.000 F 
ENDBRANCH   8  17
ENDBRANCH   6   8
BRANCH   1  22
ATOM     20  C   UNL     1       0.996   8.918  21.016  0.00  0.00    +0.000 C 
ATOM     21  O   UNL     1       1.536   8.262  21.903  0.00  0.00    +0.000 OA
ATOM     22  N   UNL     1       1.190   8.768  19.649  0.00  0.00    +0.000 N 
ATOM     23  H   UNL     1       0.755   9.480  19.066  0.00  0.00    +0.000 HD
BRANCH  20  27
ATOM     24  C   UNL     1      -1.666  12.025  22.169  0.00  0.00    +0.000 A 
ATOM     25  C   UNL     1      -1.276  11.071  23.106  0.00  0.00    +0.000 A 
ATOM     26  C   UNL     1      -0.401  10.056  22.727  0.00  0.00    +0.000 A 
ATOM     27  C   UNL     1       0.069  10.022  21.417  0.00  0.00    +0.000 A 
ATOM     28  N   UNL     1      -0.270  10.940  20.473  0.00  0.00    +0.000 NA
ATOM     29  C   UNL     1      -1.135  11.908  20.881  0.00  0.00    +0.000 A 
BRANCH  24  30
ATOM     30  O   UNL     1      -2.521  13.063  22.394  0.00  0.00    +0.000 OA
BRANCH  30  32
ATOM     31  C   UNL     1      -3.834  13.285  24.384  0.00  0.00    +0.000 C 
ATOM     32  C   UNL     1      -3.785  12.731  22.973  0.00  0.00    +0.000 C 
ENDBRANCH  30  32
ENDBRANCH  24  30
ENDBRANCH  20  27
ENDBRANCH   1  22
TORSDOF 6
ENDMDL
MODEL 5
REMARK VINA RESULT:      -8.1      1.350      1.739
REMARK  Name = 
REMARK  7 active torsions:
REMARK  status: ('A' for Active; 'I' for Inactive)
REMARK    1  A    between atoms: C_1  and  C_2
REMARK    2  A    between atoms: C_2  and  O_3
REMARK    3  A    between atoms: O_3  and  C_4
REMARK    4  A    between atoms: C_7  and  C_8
REMARK    5  A    between atoms: N_10  and  C_11
REMARK    6  A    between atoms: C_16  and  C_17
REMARK    7  A    between atoms: C_17  and  C_18
REMARK                            x       y       z     vdW  Elec       q    Type
REMARK                         _______ _______ _______ _____ _____    ______ ____
ROOT
ATOM      1  C   UNL     1       2.122   7.888  19.320  0.00  0.00    +0.000 A 
ATOM      2  C   UNL     1       2.756   8.390  18.179  0.00  0.00    +0.000 A 
ATOM      3  C   UNL     1       3.465   7.545  17.329  0.00  0.00    +0.000 A 
ATOM      4  C   UNL     1       3.545   6.191  17.614  0.00  0.00    +0.000 A 
ATOM      5  F   UNL     1       4.181   5.399  16.739  0.00  0.00    +0.000 F 
ATOM      6  C   UNL     1       2.956   5.641  18.757  0.00  0.00    +0.000 A 
ATOM      7  C   UNL     1       2.257   6.524  19.621  0.00  0.00    +0.000 A 
ENDROOT
BRANCH   6   8
ATOM      8  C   UNL     1       3.000   4.118  18.999  0.00  0.00    +0.000 C 
ATOM      9  C   UNL     1       2.020   3.440  17.989  0.00  0.00    +0.000 C 
ATOM     10  O   UNL     1       1.509   2.180  18.421  0.00  0.00    +0.000 OA
ATOM     11  C   UNL     1       0.857   2.323  19.666  0.00  0.00    +0.000 C 
ATOM     12  C   UNL     1       1.747   2.977  20.715  0.00  0.00    +0.000 C 
ATOM     13  N   UNL     1       1.525   2.702  22.033  0.00  0.00    +0.000 N 
ATOM     14  N   UNL     1       2.671   3.827  20.429  0.00  0.00    +0.000 NA
ATOM     15  H   UNL     1       0.630   2.344  22.337  0.00  0.00    +0.000 HD
ATOM     16  H   UNL     1       2.016   3.305  22.683  0.00  0.00    +0.000 HD
BRANCH   8  17
ATOM     17  C   UNL     1       4.425   3.549  18.721  0.00  0.00    +0.000 C 
ATOM     18  F   UNL     1       4.875   2.818  19.778  0.00  0.00    +0.000 F 
ATOM     19  F   UNL     1       4.411   2.703  17.655  0.00  0.00    +0.000 F 
ENDBRANCH   8  17
ENDBRANCH   6   8
BRANCH   1  22
ATOM     20  C   UNL     1       0.453   9.689  19.752  0.00  0.00    +0.000 C 
ATOM     21  O   UNL     1       0.207   9.999  18.590  0.00  0.00    +0.000 OA
ATOM     22  N   UNL     1       1.331   8.697  20.170  0.00  0.00    +0.000 N 
ATOM     23  H   UNL     1       1.318   8.494  21.167  0.00  0.00    +0.000 HD
BRANCH  20  27
ATOM     24  C   UNL     1      -1.657  11.670  22.866  0.00  0.00    +0.000 A 
ATOM     25  C   UNL     1      -0.970  10.490  23.143  0.00  0.00    +0.000 A 
ATOM     26  C   UNL     1      -0.276   9.845  22.123  0.00  0.00    +0.000 A 
ATOM     27  C   UNL     1      -0.282  10.399  20.845  0.00  0.00    +0.000 A 
ATOM     28  N   UNL     1      -0.924  11.555  20.531  0.00  0.00    +0.000 NA
ATOM     29  C   UNL     1      -1.597  12.148  21.554  0.00  0.00    +0.000 A 
BRANCH  24  30
ATOM     30  O   UNL     1      -2.384  12.400  23.758  0.00  0.00    +0.000 OA
BRANCH  30  32
ATOM     31  C   UNL     1      -4.547  12.448  24.786  0.00  0.00    +0.000 C 
ATOM     32  C   UNL     1      -3.779  12.538  23.480  0.00  0.00    +0.000 C 
ENDBRANCH  30  32
ENDBRANCH  24  30
ENDBRANCH  20  27
ENDBRANCH   1  22
TORSDOF 6
ENDMDL
MODEL 6
REMARK VINA RESULT:      -8.1      0.608      1.006
REMARK  Name = 
REMARK  7 active torsions:
REMARK  status: ('A' for Active; 'I' for Inactive)
REMARK    1  A    between atoms: C_1  and  C_2
REMARK    2  A    between atoms: C_2  and  O_3
REMARK    3  A    between atoms: O_3  and  C_4
REMARK    4  A    between atoms: C_7  and  C_8
REMARK    5  A    between atoms: N_10  and  C_11
REMARK    6  A    between atoms: C_16  and  C_17
REMARK    7  A    between atoms: C_17  and  C_18
REMARK                            x       y       z     vdW  Elec       q    Type
REMARK                         _______ _______ _______ _____ _____    ______ ____
ROOT
ATOM      1  C   UNL     1       2.067   7.948  19.273  0.00  0.00    +0.000 A 
ATOM      2  C   UNL     1       2.934   8.299  18.234  0.00  0.00    +0.000 A 
ATOM      3  C   UNL     1       3.598   7.320  17.499  0.00  0.00    +0.000 A 
ATOM      4  C   UNL     1       3.400   5.981  17.798  0.00  0.00    +0.000 A 
ATOM      5  F   UNL     1       4.005   5.067  17.027  0.00  0.00    +0.000 F 
ATOM      6  C   UNL     1       2.566   5.575  18.846  0.00  0.00    +0.000 A 
ATOM      7  C   UNL     1       1.917   6.590  19.595  0.00  0.00    +0.000 A 
ENDROOT
BRANCH   6   8
ATOM      8  C   UNL     1       2.309   4.075  19.097  0.00  0.00    +0.000 C 
ATOM      9  C   UNL     1       1.433   3.945  20.384  0.00  0.00    +0.000 C 
ATOM     10  O   UNL     1       1.576   2.701  21.070  0.00  0.00    +0.000 OA
ATOM     11  C   UNL     1       2.929   2.492  21.415  0.00  0.00    +0.000 C 
ATOM     12  C   UNL     1       3.858   2.600  20.212  0.00  0.00    +0.000 C 
ATOM     13  N   UNL     1       5.038   1.915  20.225  0.00  0.00    +0.000 N 
ATOM     14  N   UNL     1       3.616   3.352  19.195  0.00  0.00    +0.000 NA
ATOM     15  H   UNL     1       5.441   1.607  21.100  0.00  0.00    +0.000 HD
ATOM     16  H   UNL     1       5.690   2.173  19.493  0.00  0.00    +0.000 HD
BRANCH   8  17
ATOM     17  C   UNL     1       1.509   3.439  17.920  0.00  0.00    +0.000 C 
ATOM     18  F   UNL     1       0.879   4.395  17.183  0.00  0.00    +0.000 F 
ATOM     19  F   UNL     1       2.342   2.787  17.063  0.00  0.00    +0.000 F 
ENDBRANCH   8  17
ENDBRANCH   6   8
BRANCH   1  22
ATOM     20  C   UNL     1       0.420   9.811  19.445  0.00  0.00    +0.000 C 
ATOM     21  O   UNL     1       0.119   9.906  18.257  0.00  0.00    +0.000 OA
ATOM     22  N   UNL     1       1.317   8.906  19.996  0.00  0.00    +0.000 N 
ATOM     23  H   UNL     1       1.351   8.888  21.012  0.00  0.00    +0.000 HD
BRANCH  20  27
ATOM     24  C   UNL     1      -1.489  12.414  22.210  0.00  0.00    +0.000 A 
ATOM     25  C   UNL     1      -1.315  12.822  20.890  0.00  0.00    +0.000 A 
ATOM     26  C   UNL     1      -0.693  11.966  19.984  0.00  0.00    +0.000 A 
ATOM     27  C   UNL     1      -0.262  10.716  20.421  0.00  0.00    +0.000 A 
ATOM     28  N   UNL     1      -0.424  10.269  21.694  0.00  0.00    +0.000 NA
ATOM     29  C   UNL     1      -1.028  11.139  22.549  0.00  0.00    +0.000 A 
BRANCH  24  30
ATOM     30  O   UNL     1      -2.069  13.147  23.203  0.00  0.00    +0.000 OA
BRANCH  30  32
ATOM     31  C   UNL     1      -4.430  12.913  22.877  0.00  0.00    +0.000 C 
ATOM     32  C   UNL     1      -3.255  12.601  23.785  0.00  0.00    +0.000 C 
ENDBRANCH  30  32
ENDBRANCH  24  30
ENDBRANCH  20  27
ENDBRANCH   1  22
TORSDOF 6
ENDMDL
MODEL 7
REMARK VINA RESULT:      -8.1      1.526      2.091
REMARK  Name = 
REMARK  7 active torsions:
REMARK  status: ('A' for Active; 'I' for Inactive)
REMARK    1  A    between atoms: C_1  and  C_2
REMARK    2  A    between atoms: C_2  and  O_3
REMARK    3  A    between atoms: O_3  and  C_4
REMARK    4  A    between atoms: C_7  and  C_8
REMARK    5  A    between atoms: N_10  and  C_11
REMARK    6  A    between atoms: C_16  and  C_17
REMARK    7  A    between atoms: C_17  and  C_18
REMARK                            x       y       z     vdW  Elec       q    Type
REMARK                         _______ _______ _______ _____ _____    ______ ____
ROOT
ATOM      1  C   UNL     1       2.194   7.824  19.241  0.00  0.00    +0.000 A 
ATOM      2  C   UNL     1       2.784   8.296  18.064  0.00  0.00    +0.000 A 
ATOM      3  C   UNL     1       3.522   7.443  17.247  0.00  0.00    +0.000 A 
ATOM      4  C   UNL     1       3.674   6.111  17.599  0.00  0.00    +0.000 A 
ATOM      5  F   UNL     1       4.336   5.307  16.756  0.00  0.00    +0.000 F 
ATOM      6  C   UNL     1       3.129   5.594  18.780  0.00  0.00    +0.000 A 
ATOM      7  C   UNL     1       2.400   6.485  19.608  0.00  0.00    +0.000 A 
ENDROOT
BRANCH   6   8
ATOM      8  C   UNL     1       3.254   4.090  19.099  0.00  0.00    +0.000 C 
ATOM      9  C   UNL     1       2.489   3.297  17.991  0.00  0.00    +0.000 C 
ATOM     10  O   UNL     1       2.017   2.015  18.405  0.00  0.00    +0.000 OA
ATOM     11  C   UNL     1       1.178   2.149  19.533  0.00  0.00    +0.000 C 
ATOM     12  C   UNL     1       1.849   2.913  20.667  0.00  0.00    +0.000 C 
ATOM     13  N   UNL     1       1.455   2.669  21.950  0.00  0.00    +0.000 N 
ATOM     14  N   UNL     1       2.738   3.826  20.478  0.00  0.00    +0.000 NA
ATOM     15  H   UNL     1       0.555   2.250  22.139  0.00  0.00    +0.000 HD
ATOM     16  H   UNL     1       1.797   3.334  22.636  0.00  0.00    +0.000 HD
BRANCH   8  17
ATOM     17  C   UNL     1       4.743   3.630  19.059  0.00  0.00    +0.000 C 
ATOM     18  F   UNL     1       5.558   4.559  19.631  0.00  0.00    +0.000 F 
ATOM     19  F   UNL     1       4.917   2.484  19.773  0.00  0.00    +0.000 F 
ENDBRANCH   8  17
ENDBRANCH   6   8
BRANCH   1  22
ATOM     20  C   UNL     1       0.517   9.631  19.611  0.00  0.00    +0.000 C 
ATOM     21  O   UNL     1       0.314   9.942  18.440  0.00  0.00    +0.000 OA
ATOM     22  N   UNL     1       1.376   8.637  20.061  0.00  0.00    +0.000 N 
ATOM     23  H   UNL     1       1.326   8.434  21.056  0.00  0.00    +0.000 HD
BRANCH  20  27
ATOM     24  C   UNL     1      -1.654  11.698  22.625  0.00  0.00    +0.000 A 
ATOM     25  C   UNL     1      -1.760  12.108  21.298  0.00  0.00    +0.000 A 
ATOM     26  C   UNL     1      -1.051  11.428  20.312  0.00  0.00    +0.000 A 
ATOM     27  C   UNL     1      -0.254  10.345  20.677  0.00  0.00    +0.000 A 
ATOM     28  N   UNL     1      -0.132   9.899  21.955  0.00  0.00    +0.000 NA
ATOM     29  C   UNL     1      -0.833  10.598  22.888  0.00  0.00    +0.000 A 
BRANCH  24  30
ATOM     30  O   UNL     1      -2.279  12.273  23.692  0.00  0.00    +0.000 OA
BRANCH  30  32
ATOM     31  C   UNL     1      -4.446  12.400  24.703  0.00  0.00    +0.000 C 
ATOM     32  C   UNL     1      -3.618  12.727  23.475  0.00  0.00    +0.000 C 
ENDBRANCH  30  32
ENDBRANCH  24  30
ENDBRANCH  20  27
ENDBRANCH   1  22
TORSDOF 6
ENDMDL
MODEL 8
REMARK VINA RESULT:      -8.1      1.323      1.372
REMARK  Name = 
REMARK  7 active torsions:
REMARK  status: ('A' for Active; 'I' for Inactive)
REMARK    1  A    between atoms: C_1  and  C_2
REMARK    2  A    between atoms: C_2  and  O_3
REMARK    3  A    between atoms: O_3  and  C_4
REMARK    4  A    between atoms: C_7  and  C_8
REMARK    5  A    between atoms: N_10  and  C_11
REMARK    6  A    between atoms: C_16  and  C_17
REMARK    7  A    between atoms: C_17  and  C_18
REMARK                            x       y       z     vdW  Elec       q    Type
REMARK                         _______ _______ _______ _____ _____    ______ ____
ROOT
ATOM      1  C   UNL     1       2.103   7.989  19.085  0.00  0.00    +0.000 A 
ATOM      2  C   UNL     1       3.005   8.290  18.060  0.00  0.00    +0.000 A 
ATOM      3  C   UNL     1       3.678   7.276  17.382  0.00  0.00    +0.000 A 
ATOM      4  C   UNL     1       3.453   5.952  17.725  0.00  0.00    +0.000 A 
ATOM      5  F   UNL     1       4.069   5.002  17.008  0.00  0.00    +0.000 F 
ATOM      6  C   UNL     1       2.584   5.596  18.762  0.00  0.00    +0.000 A 
ATOM      7  C   UNL     1       1.926   6.646  19.453  0.00  0.00    +0.000 A 
ENDROOT
BRANCH   6   8
ATOM      8  C   UNL     1       2.301   4.110  19.062  0.00  0.00    +0.000 C 
ATOM      9  C   UNL     1       1.436   4.036  20.361  0.00  0.00    +0.000 C 
ATOM     10  O   UNL     1       1.562   2.811  21.083  0.00  0.00    +0.000 OA
ATOM     11  C   UNL     1       2.914   2.585  21.420  0.00  0.00    +0.000 C 
ATOM     12  C   UNL     1       3.832   2.638  20.205  0.00  0.00    +0.000 C 
ATOM     13  N   UNL     1       4.998   1.931  20.228  0.00  0.00    +0.000 N 
ATOM     14  N   UNL     1       3.593   3.364  19.168  0.00  0.00    +0.000 NA
ATOM     15  H   UNL     1       5.404   1.642  21.107  0.00  0.00    +0.000 HD
ATOM     16  H   UNL     1       5.647   2.153  19.481  0.00  0.00    +0.000 HD
BRANCH   8  17
ATOM     17  C   UNL     1       1.475   3.454  17.913  0.00  0.00    +0.000 C 
ATOM     18  F   UNL     1       0.854   4.399  17.155  0.00  0.00    +0.000 F 
ATOM     19  F   UNL     1       2.286   2.763  17.066  0.00  0.00    +0.000 F 
ENDBRANCH   8  17
ENDBRANCH   6   8
BRANCH   1  22
ATOM     20  C   UNL     1       1.106   9.037  21.115  0.00  0.00    +0.000 C 
ATOM     21  O   UNL     1       1.533   8.253  21.960  0.00  0.00    +0.000 OA
ATOM     22  N   UNL     1       1.345   8.982  19.748  0.00  0.00    +0.000 N 
ATOM     23  H   UNL     1       1.014   9.783  19.215  0.00  0.00    +0.000 HD
BRANCH  20  27
ATOM     24  C   UNL     1      -1.269  12.307  22.430  0.00  0.00    +0.000 A 
ATOM     25  C   UNL     1      -1.311  11.103  23.128  0.00  0.00    +0.000 A 
ATOM     26  C   UNL     1      -0.529  10.033  22.698  0.00  0.00    +0.000 A 
ATOM     27  C   UNL     1       0.283  10.197  21.578  0.00  0.00    +0.000 A 
ATOM     28  N   UNL     1       0.369  11.357  20.875  0.00  0.00    +0.000 NA
ATOM     29  C   UNL     1      -0.419  12.372  21.323  0.00  0.00    +0.000 A 
BRANCH  24  30
ATOM     30  O   UNL     1      -1.984  13.429  22.728  0.00  0.00    +0.000 OA
BRANCH  30  32
ATOM     31  C   UNL     1      -1.375  14.939  24.484  0.00  0.00    +0.000 C 
ATOM     32  C   UNL     1      -1.227  14.608  23.011  0.00  0.00    +0.000 C 
ENDBRANCH  30  32
ENDBRANCH  24  30
ENDBRANCH  20  27
ENDBRANCH   1  22
TORSDOF 6
ENDMDL
MODEL 9
REMARK VINA RESULT:      -8.0      1.170      1.579
REMARK  Name = 
REMARK  7 active torsions:
REMARK  status: ('A' for Active; 'I' for Inactive)
REMARK    1  A    between atoms: C_1  and  C_2
REMARK    2  A    between atoms: C_2  and  O_3
REMARK    3  A    between atoms: O_3  and  C_4
REMARK    4  A    between atoms: C_7  and  C_8
REMARK    5  A    between atoms: N_10  and  C_11
REMARK    6  A    between atoms: C_16  and  C_17
REMARK    7  A    between atoms: C_17  and  C_18
REMARK                            x       y       z     vdW  Elec       q    Type
REMARK                         _______ _______ _______ _____ _____    ______ ____
ROOT
ATOM      1  C   UNL     1       2.497   7.626  18.740  0.00  0.00    +0.000 A 
ATOM      2  C   UNL     1       3.414   7.836  17.705  0.00  0.00    +0.000 A 
ATOM      3  C   UNL     1       4.065   6.763  17.101  0.00  0.00    +0.000 A 
ATOM      4  C   UNL     1       3.803   5.470  17.527  0.00  0.00    +0.000 A 
ATOM      5  F   UNL     1       4.400   4.460  16.879  0.00  0.00    +0.000 F 
ATOM      6  C   UNL     1       2.918   5.205  18.578  0.00  0.00    +0.000 A 
ATOM      7  C   UNL     1       2.283   6.314  19.193  0.00  0.00    +0.000 A 
ENDROOT
BRANCH   6   8
ATOM      8  C   UNL     1       2.594   3.749  18.971  0.00  0.00    +0.000 C 
ATOM      9  C   UNL     1       1.679   3.783  20.237  0.00  0.00    +0.000 C 
ATOM     10  O   UNL     1       1.753   2.612  21.049  0.00  0.00    +0.000 OA
ATOM     11  C   UNL     1       3.087   2.388  21.455  0.00  0.00    +0.000 C 
ATOM     12  C   UNL     1       4.052   2.338  20.277  0.00  0.00    +0.000 C 
ATOM     13  N   UNL     1       5.202   1.615  20.396  0.00  0.00    +0.000 N 
ATOM     14  N   UNL     1       3.867   2.991  19.182  0.00  0.00    +0.000 NA
ATOM     15  H   UNL     1       5.568   1.383  21.309  0.00  0.00    +0.000 HD
ATOM     16  H   UNL     1       5.883   1.772  19.662  0.00  0.00    +0.000 HD
BRANCH   8  17
ATOM     17  C   UNL     1       1.801   3.026  17.840  0.00  0.00    +0.000 C 
ATOM     18  F   UNL     1       2.458   1.912  17.416  0.00  0.00    +0.000 F 
ATOM     19  F   UNL     1       0.589   2.602  18.292  0.00  0.00    +0.000 F 
ENDBRANCH   8  17
ENDBRANCH   6   8
BRANCH   1  22
ATOM     20  C   UNL     1       0.856   9.501  18.669  0.00  0.00    +0.000 C 
ATOM     21  O   UNL     1       0.538   9.427  17.485  0.00  0.00    +0.000 OA
ATOM     22  N   UNL     1       1.760   8.679  19.330  0.00  0.00    +0.000 N 
ATOM     23  H   UNL     1       1.809   8.805  20.338  0.00  0.00    +0.000 HD
BRANCH  20  27
ATOM     24  C   UNL     1      -1.038  12.473  21.045  0.00  0.00    +0.000 A 
ATOM     25  C   UNL     1      -1.654  12.033  19.876  0.00  0.00    +0.000 A 
ATOM     26  C   UNL     1      -1.033  11.056  19.101  0.00  0.00    +0.000 A 
ATOM     27  C   UNL     1       0.190  10.537  19.518  0.00  0.00    +0.000 A 
ATOM     28  N   UNL     1       0.821  10.924  20.658  0.00  0.00    +0.000 NA
ATOM     29  C   UNL     1       0.186  11.887  21.380  0.00  0.00    +0.000 A 
BRANCH  24  30
ATOM     30  O   UNL     1      -1.521  13.426  21.892  0.00  0.00    +0.000 OA
BRANCH  30  32
ATOM     31  C   UNL     1      -3.010  12.324  23.411  0.00  0.00    +0.000 C 
ATOM     32  C   UNL     1      -1.680  13.039  23.259  0.00  0.00    +0.000 C 
ENDBRANCH  30  32
ENDBRANCH  24  30
ENDBRANCH  20  27
ENDBRANCH   1  22
TORSDOF 6
ENDMDL
