MODEL 1
REMARK VINA RESULT:      -6.7      0.000      0.000
REMARK  Name = 
REMARK  5 active torsions:
REMARK  status: ('A' for Active; 'I' for Inactive)
REMARK    1  A    between atoms: C_2  and  C_3
REMARK    2  A    between atoms: C_3  and  S_4
REMARK    3  A    between atoms: S_4  and  C_5
REMARK    4  A    between atoms: N_13  and  S_14
REMARK    5  A    between atoms: S_14  and  C_17
REMARK                            x       y       z     vdW  Elec       q    Type
REMARK                         _______ _______ _______ _____ _____    ______ ____
ROOT
ATOM      1  O   UNL     1       1.452   9.227  19.480  0.00  0.00    +0.000 OA
ATOM      2  C   UNL     1       1.369   8.207  20.173  0.00  0.00    +0.000 C 
ATOM      3  N   UNL     1       2.044   7.047  19.802  0.00  0.00    +0.000 N 
ATOM      4  C   UNL     1       2.219   5.846  20.634  0.00  0.00    +0.000 C 
ATOM      5  C   UNL     1       2.173   4.549  19.802  0.00  0.00    +0.000 C 
ATOM      6  N   UNL     1       3.081   4.595  18.610  0.00  0.00    +0.000 NA
ATOM      7  C   UNL     1       2.768   5.811  17.782  0.00  0.00    +0.000 C 
ATOM      8  C   UNL     1       2.896   7.098  18.605  0.00  0.00    +0.000 C 
ENDROOT
BRANCH   6   9
ATOM      9  S   UNL     1       4.747   4.355  18.891  0.00  0.00    +0.000 S 
ATOM     10  O   UNL     1       5.210   5.421  19.757  0.00  0.00    +0.000 OA
ATOM     11  O   UNL     1       4.951   2.968  19.245  0.00  0.00    +0.000 OA
BRANCH   9  12
ATOM     12  C   UNL     1       5.504   4.631  17.308  0.00  0.00    +0.000 A 
ATOM     13  C   UNL     1       6.437   5.663  17.166  0.00  0.00    +0.000 A 
ATOM     14  C   UNL     1       7.124   5.806  15.957  0.00  0.00    +0.000 A 
ATOM     15  C   UNL     1       6.881   4.915  14.910  0.00  0.00    +0.000 A 
ATOM     16 CL   UNL     1       7.756   5.070  13.436  0.00  0.00    +0.000 Cl
ATOM     17  C   UNL     1       5.946   3.890  15.052  0.00  0.00    +0.000 A 
ATOM     18  C   UNL     1       5.251   3.744  16.255  0.00  0.00    +0.000 A 
ENDBRANCH   9  12
ENDBRANCH   6   9
BRANCH   2  19
ATOM     19  C   UNL     1       0.564   8.194  21.469  0.00  0.00    +0.000 C 
BRANCH  19  20
ATOM     20  S   UNL     1       1.198   9.397  22.671  0.00  0.00    +0.000 S 
BRANCH  20  21
ATOM     21  C   UNL     1      -0.023  10.630  22.535  0.00  0.00    +0.000 A 
ATOM     22  N   UNL     1      -1.162  10.669  23.300  0.00  0.00    +0.000 NA
ATOM     23  C   UNL     1      -1.737  11.786  22.913  0.00  0.00    +0.000 A 
ATOM     24  N   UNL     1      -0.976  12.378  21.954  0.00  0.00    +0.000 N 
ATOM     25  N   UNL     1       0.133  11.671  21.712  0.00  0.00    +0.000 NA
ATOM     26  H   UNL     1      -1.133  13.244  21.450  0.00  0.00    +0.000 HD
ENDBRANCH  20  21
ENDBRANCH  19  20
ENDBRANCH   2  19
TORSDOF 5
ENDMDL
MODEL 2
REMARK VINA RESULT:      -6.7      2.145      2.247
REMARK  Name = 
REMARK  5 active torsions:
REMARK  status: ('A' for Active; 'I' for Inactive)
REMARK    1  A    between atoms: C_2  and  C_3
REMARK    2  A    between atoms: C_3  and  S_4
REMARK    3  A    between atoms: S_4  and  C_5
REMARK    4  A    between atoms: N_13  and  S_14
REMARK    5  A    between atoms: S_14  and  C_17
REMARK                            x       y       z     vdW  Elec       q    Type
REMARK                         _______ _______ _______ _____ _____    ______ ____
ROOT
ATOM      1  O   UNL     1       1.768   9.274  17.454  0.00  0.00    +0.000 OA
ATOM      2  C   UNL     1       1.715   8.725  18.561  0.00  0.00    +0.000 C 
ATOM      3  N   UNL     1       2.297   7.476  18.756  0.00  0.00    +0.000 N 
ATOM      4  C   UNL     1       2.507   6.815  20.053  0.00  0.00    +0.000 C 
ATOM      5  C   UNL     1       2.318   5.287  19.966  0.00  0.00    +0.000 C 
ATOM      6  N   UNL     1       3.095   4.671  18.841  0.00  0.00    +0.000 NA
ATOM      7  C   UNL     1       2.749   5.361  17.551  0.00  0.00    +0.000 C 
ATOM      8  C   UNL     1       3.018   6.868  17.629  0.00  0.00    +0.000 C 
ENDROOT
BRANCH   6   9
ATOM      9  S   UNL     1       4.770   4.449  19.083  0.00  0.00    +0.000 S 
ATOM     10  O   UNL     1       5.253   5.550  19.893  0.00  0.00    +0.000 OA
ATOM     11  O   UNL     1       4.990   3.078  19.486  0.00  0.00    +0.000 OA
BRANCH   9  12
ATOM     12  C   UNL     1       5.480   4.664  17.470  0.00  0.00    +0.000 A 
ATOM     13  C   UNL     1       6.416   5.682  17.264  0.00  0.00    +0.000 A 
ATOM     14  C   UNL     1       7.066   5.778  16.030  0.00  0.00    +0.000 A 
ATOM     15  C   UNL     1       6.783   4.855  15.022  0.00  0.00    +0.000 A 
ATOM     16 CL   UNL     1       7.614   4.952  13.517  0.00  0.00    +0.000 Cl
ATOM     17  C   UNL     1       5.845   3.843  15.227  0.00  0.00    +0.000 A 
ATOM     18  C   UNL     1       5.187   3.745  16.455  0.00  0.00    +0.000 A 
ENDBRANCH   9  12
ENDBRANCH   6   9
BRANCH   2  19
ATOM     19  C   UNL     1       1.053   9.411  19.752  0.00  0.00    +0.000 C 
BRANCH  19  20
ATOM     20  S   UNL     1       0.943  11.208  19.525  0.00  0.00    +0.000 S 
BRANCH  20  21
ATOM     21  C   UNL     1      -0.600  11.317  18.727  0.00  0.00    +0.000 A 
ATOM     22  N   UNL     1      -1.491  10.277  18.635  0.00  0.00    +0.000 NA
ATOM     23  C   UNL     1      -2.520  10.827  18.030  0.00  0.00    +0.000 A 
ATOM     24  N   UNL     1      -2.247  12.132  17.766  0.00  0.00    +0.000 N 
ATOM     25  N   UNL     1      -1.037  12.474  18.221  0.00  0.00    +0.000 NA
ATOM     26  H   UNL     1      -2.823  12.833  17.312  0.00  0.00    +0.000 HD
ENDBRANCH  20  21
ENDBRANCH  19  20
ENDBRANCH   2  19
TORSDOF 5
ENDMDL
MODEL 3
REMARK VINA RESULT:      -6.6      2.037      2.393
REMARK  Name = 
REMARK  5 active torsions:
REMARK  status: ('A' for Active; 'I' for Inactive)
REMARK    1  A    between atoms: C_2  and  C_3
REMARK    2  A    between atoms: C_3  and  S_4
REMARK    3  A    between atoms: S_4  and  C_5
REMARK    4  A    between atoms: N_13  and  S_14
REMARK    5  A    between atoms: S_14  and  C_17
REMARK                            x       y       z     vdW  Elec       q    Type
REMARK                         _______ _______ _______ _____ _____    ______ ____
ROOT
ATOM      1  O   UNL     1       1.970   9.399  17.464  0.00  0.00    +0.000 OA
ATOM      2  C   UNL     1       1.803   8.773  18.518  0.00  0.00    +0.000 C 
ATOM      3  N   UNL     1       2.373   7.515  18.688  0.00  0.00    +0.000 N 
ATOM      4  C   UNL     1       2.447   6.764  19.951  0.00  0.00    +0.000 C 
ATOM      5  C   UNL     1       2.284   5.246  19.736  0.00  0.00    +0.000 C 
ATOM      6  N   UNL     1       3.186   4.713  18.663  0.00  0.00    +0.000 NA
ATOM      7  C   UNL     1       2.975   5.491  17.394  0.00  0.00    +0.000 C 
ATOM      8  C   UNL     1       3.219   6.990  17.606  0.00  0.00    +0.000 C 
ENDROOT
BRANCH   6   9
ATOM      9  S   UNL     1       4.827   4.479  19.071  0.00  0.00    +0.000 S 
ATOM     10  O   UNL     1       5.266   5.635  19.828  0.00  0.00    +0.000 OA
ATOM     11  O   UNL     1       4.974   3.143  19.602  0.00  0.00    +0.000 OA
BRANCH   9  12
ATOM     12  C   UNL     1       5.680   4.545  17.515  0.00  0.00    +0.000 A 
ATOM     13  C   UNL     1       5.301   3.674  16.489  0.00  0.00    +0.000 A 
ATOM     14  C   UNL     1       5.886   3.805  15.226  0.00  0.00    +0.000 A 
ATOM     15  C   UNL     1       6.833   4.805  14.999  0.00  0.00    +0.000 A 
ATOM     16 CL   UNL     1       7.523   4.988  13.433  0.00  0.00    +0.000 Cl
ATOM     17  C   UNL     1       7.214   5.669  16.025  0.00  0.00    +0.000 A 
ATOM     18  C   UNL     1       6.638   5.541  17.291  0.00  0.00    +0.000 A 
ENDBRANCH   9  12
ENDBRANCH   6   9
BRANCH   2  19
ATOM     19  C   UNL     1       1.008   9.371  19.675  0.00  0.00    +0.000 C 
BRANCH  19  20
ATOM     20  S   UNL     1       0.966  11.183  19.603  0.00  0.00    +0.000 S 
BRANCH  20  21
ATOM     21  C   UNL     1      -0.631  11.424  18.955  0.00  0.00    +0.000 A 
ATOM     22  N   UNL     1      -1.216  10.595  18.031  0.00  0.00    +0.000 NA
ATOM     23  C   UNL     1      -2.418  11.112  17.895  0.00  0.00    +0.000 A 
ATOM     24  N   UNL     1      -2.535  12.205  18.695  0.00  0.00    +0.000 N 
ATOM     25  N   UNL     1      -1.416  12.411  19.398  0.00  0.00    +0.000 NA
ATOM     26  H   UNL     1      -3.325  12.827  18.826  0.00  0.00    +0.000 HD
ENDBRANCH  20  21
ENDBRANCH  19  20
ENDBRANCH   2  19
TORSDOF 5
ENDMDL
MODEL 4
REMARK VINA RESULT:      -6.6      1.136      1.552
REMARK  Name = 
REMARK  5 active torsions:
REMARK  status: ('A' for Active; 'I' for Inactive)
REMARK    1  A    between atoms: C_2  and  C_3
REMARK    2  A    between atoms: C_3  and  S_4
REMARK    3  A    between atoms: S_4  and  C_5
REMARK    4  A    between atoms: N_13  and  S_14
REMARK    5  A    between atoms: S_14  and  C_17
REMARK                            x       y       z     vdW  Elec       q    Type
REMARK                         _______ _______ _______ _____ _____    ______ ____
ROOT
ATOM      1  O   UNL     1       1.970   9.397  17.625  0.00  0.00    +0.000 OA
ATOM      2  C   UNL     1       1.810   8.733  18.656  0.00  0.00    +0.000 C 
ATOM      3  N   UNL     1       2.392   7.474  18.780  0.00  0.00    +0.000 N 
ATOM      4  C   UNL     1       2.476   6.679  20.015  0.00  0.00    +0.000 C 
ATOM      5  C   UNL     1       2.325   5.169  19.747  0.00  0.00    +0.000 C 
ATOM      6  N   UNL     1       3.228   4.682  18.653  0.00  0.00    +0.000 NA
ATOM      7  C   UNL     1       3.007   5.503  17.413  0.00  0.00    +0.000 C 
ATOM      8  C   UNL     1       3.239   6.995  17.678  0.00  0.00    +0.000 C 
ENDROOT
BRANCH   6   9
ATOM      9  S   UNL     1       4.872   4.447  19.048  0.00  0.00    +0.000 S 
ATOM     10  O   UNL     1       5.315   5.599  19.809  0.00  0.00    +0.000 OA
ATOM     11  O   UNL     1       5.024   3.108  19.570  0.00  0.00    +0.000 OA
BRANCH   9  12
ATOM     12  C   UNL     1       5.714   4.524  17.487  0.00  0.00    +0.000 A 
ATOM     13  C   UNL     1       5.321   3.667  16.454  0.00  0.00    +0.000 A 
ATOM     14  C   UNL     1       5.897   3.807  15.188  0.00  0.00    +0.000 A 
ATOM     15  C   UNL     1       6.850   4.802  14.965  0.00  0.00    +0.000 A 
ATOM     16 CL   UNL     1       7.530   4.997  13.396  0.00  0.00    +0.000 Cl
ATOM     17  C   UNL     1       7.246   5.652  15.998  0.00  0.00    +0.000 A 
ATOM     18  C   UNL     1       6.678   5.515  17.267  0.00  0.00    +0.000 A 
ENDBRANCH   9  12
ENDBRANCH   6   9
BRANCH   2  19
ATOM     19  C   UNL     1       1.014   9.282  19.835  0.00  0.00    +0.000 C 
BRANCH  19  20
ATOM     20  S   UNL     1       0.851  11.088  19.760  0.00  0.00    +0.000 S 
BRANCH  20  21
ATOM     21  C   UNL     1      -0.284  11.343  21.056  0.00  0.00    +0.000 A 
ATOM     22  N   UNL     1      -0.057  10.972  22.357  0.00  0.00    +0.000 NA
ATOM     23  C   UNL     1      -1.127  11.417  22.978  0.00  0.00    +0.000 A 
ATOM     24  N   UNL     1      -1.955  12.016  22.082  0.00  0.00    +0.000 N 
ATOM     25  N   UNL     1      -1.429  12.002  20.853  0.00  0.00    +0.000 NA
ATOM     26  H   UNL     1      -2.855  12.461  22.232  0.00  0.00    +0.000 HD
ENDBRANCH  20  21
ENDBRANCH  19  20
ENDBRANCH   2  19
TORSDOF 5
ENDMDL
MODEL 5
REMARK VINA RESULT:      -6.5      5.053      8.059
REMARK  Name = 
REMARK  5 active torsions:
REMARK  status: ('A' for Active; 'I' for Inactive)
REMARK    1  A    between atoms: C_2  and  C_3
REMARK    2  A    between atoms: C_3  and  S_4
REMARK    3  A    between atoms: S_4  and  C_5
REMARK    4  A    between atoms: N_13  and  S_14
REMARK    5  A    between atoms: S_14  and  C_17
REMARK                            x       y       z     vdW  Elec       q    Type
REMARK                         _______ _______ _______ _____ _____    ______ ____
ROOT
ATOM      1  O   UNL     1       6.961   5.066  19.192  0.00  0.00    +0.000 OA
ATOM      2  C   UNL     1       6.377   4.443  18.298  0.00  0.00    +0.000 C 
ATOM      3  N   UNL     1       5.174   3.794  18.564  0.00  0.00    +0.000 N 
ATOM      4  C   UNL     1       4.266   3.215  17.562  0.00  0.00    +0.000 C 
ATOM      5  C   UNL     1       3.594   1.921  18.064  0.00  0.00    +0.000 C 
ATOM      6  N   UNL     1       2.974   2.081  19.420  0.00  0.00    +0.000 NA
ATOM      7  C   UNL     1       4.001   2.598  20.388  0.00  0.00    +0.000 C 
ATOM      8  C   UNL     1       4.603   3.925  19.912  0.00  0.00    +0.000 C 
ENDROOT
BRANCH   6   9
ATOM      9  S   UNL     1       1.473   2.891  19.499  0.00  0.00    +0.000 S 
ATOM     10  O   UNL     1       0.673   2.456  18.371  0.00  0.00    +0.000 OA
ATOM     11  O   UNL     1       0.973   2.784  20.851  0.00  0.00    +0.000 OA
BRANCH   9  12
ATOM     12  C   UNL     1       1.877   4.594  19.200  0.00  0.00    +0.000 A 
ATOM     13  C   UNL     1       1.980   5.052  17.883  0.00  0.00    +0.000 A 
ATOM     14  C   UNL     1       2.177   6.415  17.643  0.00  0.00    +0.000 A 
ATOM     15  C   UNL     1       2.261   7.305  18.716  0.00  0.00    +0.000 A 
ATOM     16 CL   UNL     1       2.465   8.988  18.417  0.00  0.00    +0.000 Cl
ATOM     17  C   UNL     1       2.164   6.845  20.029  0.00  0.00    +0.000 A 
ATOM     18  C   UNL     1       1.972   5.484  20.276  0.00  0.00    +0.000 A 
ENDBRANCH   9  12
ENDBRANCH   6   9
BRANCH   2  19
ATOM     19  C   UNL     1       6.926   4.398  16.876  0.00  0.00    +0.000 C 
BRANCH  19  20
ATOM     20  S   UNL     1       6.007   5.495  15.760  0.00  0.00    +0.000 S 
BRANCH  20  21
ATOM     21  C   UNL     1       6.472   4.822  14.224  0.00  0.00    +0.000 A 
ATOM     22  N   UNL     1       5.795   3.806  13.596  0.00  0.00    +0.000 NA
ATOM     23  C   UNL     1       6.446   3.681  12.460  0.00  0.00    +0.000 A 
ATOM     24  N   UNL     1       7.468   4.575  12.422  0.00  0.00    +0.000 N 
ATOM     25  N   UNL     1       7.491   5.330  13.526  0.00  0.00    +0.000 NA
ATOM     26  H   UNL     1       8.155   4.739  11.694  0.00  0.00    +0.000 HD
ENDBRANCH  20  21
ENDBRANCH  19  20
ENDBRANCH   2  19
TORSDOF 5
ENDMDL
MODEL 6
REMARK VINA RESULT:      -6.5      0.829      1.422
REMARK  Name = 
REMARK  5 active torsions:
REMARK  status: ('A' for Active; 'I' for Inactive)
REMARK    1  A    between atoms: C_2  and  C_3
REMARK    2  A    between atoms: C_3  and  S_4
REMARK    3  A    between atoms: S_4  and  C_5
REMARK    4  A    between atoms: N_13  and  S_14
REMARK    5  A    between atoms: S_14  and  C_17
REMARK                            x       y       z     vdW  Elec       q    Type
REMARK                         _______ _______ _______ _____ _____    ______ ____
ROOT
ATOM      1  O   UNL     1       1.530   9.123  19.199  0.00  0.00    +0.000 OA
ATOM      2  C   UNL     1       1.425   8.138  19.938  0.00  0.00    +0.000 C 
ATOM      3  N   UNL     1       2.129   6.969  19.659  0.00  0.00    +0.000 N 
ATOM      4  C   UNL     1       2.276   5.814  20.557  0.00  0.00    +0.000 C 
ATOM      5  C   UNL     1       2.283   4.477  19.790  0.00  0.00    +0.000 C 
ATOM      6  N   UNL     1       3.245   4.474  18.641  0.00  0.00    +0.000 NA
ATOM      7  C   UNL     1       2.959   5.643  17.739  0.00  0.00    +0.000 C 
ATOM      8  C   UNL     1       3.035   6.971  18.501  0.00  0.00    +0.000 C 
ENDROOT
BRANCH   6   9
ATOM      9  S   UNL     1       4.899   4.269  19.011  0.00  0.00    +0.000 S 
ATOM     10  O   UNL     1       5.325   5.413  19.793  0.00  0.00    +0.000 OA
ATOM     11  O   UNL     1       5.090   2.922  19.499  0.00  0.00    +0.000 OA
BRANCH   9  12
ATOM     12  C   UNL     1       5.720   4.403  17.442  0.00  0.00    +0.000 A 
ATOM     13  C   UNL     1       5.262   3.641  16.362  0.00  0.00    +0.000 A 
ATOM     14  C   UNL     1       5.826   3.833  15.098  0.00  0.00    +0.000 A 
ATOM     15  C   UNL     1       6.832   4.785  14.923  0.00  0.00    +0.000 A 
ATOM     16 CL   UNL     1       7.498   5.046  13.357  0.00  0.00    +0.000 Cl
ATOM     17  C   UNL     1       7.292   5.540  16.002  0.00  0.00    +0.000 A 
ATOM     18  C   UNL     1       6.737   5.350  17.269  0.00  0.00    +0.000 A 
ENDBRANCH   9  12
ENDBRANCH   6   9
BRANCH   2  19
ATOM     19  C   UNL     1       0.561   8.180  21.195  0.00  0.00    +0.000 C 
BRANCH  19  20
ATOM     20  S   UNL     1       1.125   9.449  22.362  0.00  0.00    +0.000 S 
BRANCH  20  21
ATOM     21  C   UNL     1       0.454  10.869  21.611  0.00  0.00    +0.000 A 
ATOM     22  N   UNL     1       1.190  11.976  21.270  0.00  0.00    +0.000 NA
ATOM     23  C   UNL     1       0.302  12.746  20.680  0.00  0.00    +0.000 A 
ATOM     24  N   UNL     1      -0.908  12.127  20.682  0.00  0.00    +0.000 N 
ATOM     25  N   UNL     1      -0.832  10.919  21.250  0.00  0.00    +0.000 NA
ATOM     26  H   UNL     1      -1.796  12.446  20.308  0.00  0.00    +0.000 HD
ENDBRANCH  20  21
ENDBRANCH  19  20
ENDBRANCH   2  19
TORSDOF 5
ENDMDL
MODEL 7
REMARK VINA RESULT:      -6.4      4.344      9.664
REMARK  Name = 
REMARK  5 active torsions:
REMARK  status: ('A' for Active; 'I' for Inactive)
REMARK    1  A    between atoms: C_2  and  C_3
REMARK    2  A    between atoms: C_3  and  S_4
REMARK    3  A    between atoms: S_4  and  C_5
REMARK    4  A    between atoms: N_13  and  S_14
REMARK    5  A    between atoms: S_14  and  C_17
REMARK                            x       y       z     vdW  Elec       q    Type
REMARK                         _______ _______ _______ _____ _____    ______ ____
ROOT
ATOM      1  O   UNL     1       2.822   5.922  20.136  0.00  0.00    +0.000 OA
ATOM      2  C   UNL     1       2.704   6.767  19.241  0.00  0.00    +0.000 C 
ATOM      3  N   UNL     1       1.945   7.914  19.451  0.00  0.00    +0.000 N 
ATOM      4  C   UNL     1       1.903   9.094  18.574  0.00  0.00    +0.000 C 
ATOM      5  C   UNL     1       0.498   9.727  18.516  0.00  0.00    +0.000 C 
ATOM      6  N   UNL     1      -0.086   9.965  19.876  0.00  0.00    +0.000 NA
ATOM      7  C   UNL     1      -0.073   8.684  20.663  0.00  0.00    +0.000 C 
ATOM      8  C   UNL     1       1.344   8.110  20.778  0.00  0.00    +0.000 C 
ENDROOT
BRANCH   6   9
ATOM      9  S   UNL     1       0.488  11.319  20.743  0.00  0.00    +0.000 S 
ATOM     10  O   UNL     1       1.328  10.834  21.821  0.00  0.00    +0.000 OA
ATOM     11  O   UNL     1       0.985  12.287  19.792  0.00  0.00    +0.000 OA
BRANCH   9  12
ATOM     12  C   UNL     1      -0.963  12.000  21.507  0.00  0.00    +0.000 A 
ATOM     13  C   UNL     1      -1.429  11.449  22.705  0.00  0.00    +0.000 A 
ATOM     14  C   UNL     1      -2.496  12.058  23.371  0.00  0.00    +0.000 A 
ATOM     15  C   UNL     1      -3.081  13.210  22.841  0.00  0.00    +0.000 A 
ATOM     16 CL   UNL     1      -4.370  13.979  23.683  0.00  0.00    +0.000 Cl
ATOM     17  C   UNL     1      -2.619  13.754  21.643  0.00  0.00    +0.000 A 
ATOM     18  C   UNL     1      -1.556  13.148  20.969  0.00  0.00    +0.000 A 
ENDBRANCH   9  12
ENDBRANCH   6   9
BRANCH   2  19
ATOM     19  C   UNL     1       3.416   6.604  17.901  0.00  0.00    +0.000 C 
BRANCH  19  20
ATOM     20  S   UNL     1       4.226   4.987  17.757  0.00  0.00    +0.000 S 
BRANCH  20  21
ATOM     21  C   UNL     1       5.805   5.384  18.374  0.00  0.00    +0.000 A 
ATOM     22  N   UNL     1       6.689   6.218  17.737  0.00  0.00    +0.000 NA
ATOM     23  C   UNL     1       7.693   6.281  18.583  0.00  0.00    +0.000 A 
ATOM     24  N   UNL     1       7.420   5.509  19.668  0.00  0.00    +0.000 N 
ATOM     25  N   UNL     1       6.212   4.945  19.568  0.00  0.00    +0.000 NA
ATOM     26  H   UNL     1       7.980   5.340  20.498  0.00  0.00    +0.000 HD
ENDBRANCH  20  21
ENDBRANCH  19  20
ENDBRANCH   2  19
TORSDOF 5
ENDMDL
MODEL 8
REMARK VINA RESULT:      -6.4      1.091      1.245
REMARK  Name = 
REMARK  5 active torsions:
REMARK  status: ('A' for Active; 'I' for Inactive)
REMARK    1  A    between atoms: C_2  and  C_3
REMARK    2  A    between atoms: C_3  and  S_4
REMARK    3  A    between atoms: S_4  and  C_5
REMARK    4  A    between atoms: N_13  and  S_14
REMARK    5  A    between atoms: S_14  and  C_17
REMARK                            x       y       z     vdW  Elec       q    Type
REMARK                         _______ _______ _______ _____ _____    ______ ____
ROOT
ATOM      1  O   UNL     1       1.722   9.274  17.639  0.00  0.00    +0.000 OA
ATOM      2  C   UNL     1       1.678   8.674  18.719  0.00  0.00    +0.000 C 
ATOM      3  N   UNL     1       2.281   7.426  18.857  0.00  0.00    +0.000 N 
ATOM      4  C   UNL     1       2.502   6.709  20.122  0.00  0.00    +0.000 C 
ATOM      5  C   UNL     1       2.337   5.184  19.963  0.00  0.00    +0.000 C 
ATOM      6  N   UNL     1       3.125   4.635  18.812  0.00  0.00    +0.000 NA
ATOM      7  C   UNL     1       2.768   5.377  17.554  0.00  0.00    +0.000 C 
ATOM      8  C   UNL     1       3.012   6.883  17.703  0.00  0.00    +0.000 C 
ENDROOT
BRANCH   6   9
ATOM      9  S   UNL     1       4.804   4.429  19.045  0.00  0.00    +0.000 S 
ATOM     10  O   UNL     1       5.279   5.535  19.854  0.00  0.00    +0.000 OA
ATOM     11  O   UNL     1       5.040   3.061  19.445  0.00  0.00    +0.000 OA
BRANCH   9  12
ATOM     12  C   UNL     1       5.503   4.654  17.428  0.00  0.00    +0.000 A 
ATOM     13  C   UNL     1       6.420   5.688  17.217  0.00  0.00    +0.000 A 
ATOM     14  C   UNL     1       7.064   5.792  15.980  0.00  0.00    +0.000 A 
ATOM     15  C   UNL     1       6.793   4.862  14.975  0.00  0.00    +0.000 A 
ATOM     16 CL   UNL     1       7.616   4.971  13.466  0.00  0.00    +0.000 Cl
ATOM     17  C   UNL     1       5.873   3.835  15.186  0.00  0.00    +0.000 A 
ATOM     18  C   UNL     1       5.223   3.727  16.417  0.00  0.00    +0.000 A 
ENDBRANCH   9  12
ENDBRANCH   6   9
BRANCH   2  19
ATOM     19  C   UNL     1       1.004   9.292  19.940  0.00  0.00    +0.000 C 
BRANCH  19  20
ATOM     20  S   UNL     1       0.742  11.076  19.739  0.00  0.00    +0.000 S 
BRANCH  20  21
ATOM     21  C   UNL     1      -0.270  11.390  21.120  0.00  0.00    +0.000 A 
ATOM     22  N   UNL     1      -1.461  12.070  21.058  0.00  0.00    +0.000 NA
ATOM     23  C   UNL     1      -1.900  12.003  22.295  0.00  0.00    +0.000 A 
ATOM     24  N   UNL     1      -1.003  11.324  23.058  0.00  0.00    +0.000 N 
ATOM     25  N   UNL     1       0.034  10.903  22.326  0.00  0.00    +0.000 NA
ATOM     26  H   UNL     1      -1.038  11.097  24.047  0.00  0.00    +0.000 HD
ENDBRANCH  20  21
ENDBRANCH  19  20
ENDBRANCH   2  19
TORSDOF 5
ENDMDL
MODEL 9
REMARK VINA RESULT:      -6.4      1.655      2.096
REMARK  Name = 
REMARK  5 active torsions:
REMARK  status: ('A' for Active; 'I' for Inactive)
REMARK    1  A    between atoms: C_2  and  C_3
REMARK    2  A    between atoms: C_3  and  S_4
REMARK    3  A    between atoms: S_4  and  C_5
REMARK    4  A    between atoms: N_13  and  S_14
REMARK    5  A    between atoms: S_14  and  C_17
REMARK                            x       y       z     vdW  Elec       q    Type
REMARK                         _______ _______ _______ _____ _____    ______ ____
ROOT
ATOM      1  O   UNL     1       1.966   9.364  17.819  0.00  0.00    +0.000 OA
ATOM      2  C   UNL     1       1.806   8.667  18.828  0.00  0.00    +0.000 C 
ATOM      3  N   UNL     1       2.386   7.404  18.909  0.00  0.00    +0.000 N 
ATOM      4  C   UNL     1       2.470   6.569  20.117  0.00  0.00    +0.000 C 
ATOM      5  C   UNL     1       2.317   5.067  19.799  0.00  0.00    +0.000 C 
ATOM      6  N   UNL     1       3.219   4.617  18.689  0.00  0.00    +0.000 NA
ATOM      7  C   UNL     1       2.998   5.478  17.477  0.00  0.00    +0.000 C 
ATOM      8  C   UNL     1       3.232   6.960  17.791  0.00  0.00    +0.000 C 
ENDROOT
BRANCH   6   9
ATOM      9  S   UNL     1       4.863   4.367  19.075  0.00  0.00    +0.000 S 
ATOM     10  O   UNL     1       5.314   5.502  19.856  0.00  0.00    +0.000 OA
ATOM     11  O   UNL     1       5.010   3.017  19.571  0.00  0.00    +0.000 OA
BRANCH   9  12
ATOM     12  C   UNL     1       5.701   4.468  17.512  0.00  0.00    +0.000 A 
ATOM     13  C   UNL     1       5.277   3.658  16.454  0.00  0.00    +0.000 A 
ATOM     14  C   UNL     1       5.852   3.822  15.191  0.00  0.00    +0.000 A 
ATOM     15  C   UNL     1       6.835   4.794  14.996  0.00  0.00    +0.000 A 
ATOM     16 CL   UNL     1       7.515   5.019  13.430  0.00  0.00    +0.000 Cl
ATOM     17  C   UNL     1       7.261   5.597  16.054  0.00  0.00    +0.000 A 
ATOM     18  C   UNL     1       6.694   5.436  17.320  0.00  0.00    +0.000 A 
ENDBRANCH   9  12
ENDBRANCH   6   9
BRANCH   2  19
ATOM     19  C   UNL     1       1.011   9.178  20.025  0.00  0.00    +0.000 C 
BRANCH  19  20
ATOM     20  S   UNL     1      -0.311  10.315  19.525  0.00  0.00    +0.000 S 
BRANCH  20  21
ATOM     21  C   UNL     1       0.428  11.837  19.938  0.00  0.00    +0.000 A 
ATOM     22  N   UNL     1       0.089  13.035  19.361  0.00  0.00    +0.000 NA
ATOM     23  C   UNL     1       0.833  13.897  20.019  0.00  0.00    +0.000 A 
ATOM     24  N   UNL     1       1.588  13.236  20.936  0.00  0.00    +0.000 N 
ATOM     25  N   UNL     1       1.330  11.924  20.920  0.00  0.00    +0.000 NA
ATOM     26  H   UNL     1       2.262  13.601  21.601  0.00  0.00    +0.000 HD
ENDBRANCH  20  21
ENDBRANCH  19  20
ENDBRANCH   2  19
TORSDOF 5
ENDMDL
