MODEL 1
REMARK VINA RESULT:      -6.6      0.000      0.000
REMARK  Name = 
REMARK  6 active torsions:
REMARK  status: ('A' for Active; 'I' for Inactive)
REMARK    1  A    between atoms: C_1  and  C_2
REMARK    2  A    between atoms: C_2  and  S_3
REMARK    3  A    between atoms: S_3  and  C_4
REMARK    4  A    between atoms: N_6  and  C_7
REMARK    5  A    between atoms: C_11  and  C_12
REMARK    6  A    between atoms: C_12  and  O_14
REMARK                            x       y       z     vdW  Elec       q    Type
REMARK                         _______ _______ _______ _____ _____    ______ ____
ROOT
ATOM      1  C   UNL     1       4.506   4.102  17.848  0.00  0.00    +0.000 A 
ATOM      2  C   UNL     1       5.367   4.544  18.864  0.00  0.00    +0.000 A 
ATOM      3  C   UNL     1       6.672   4.958  18.576  0.00  0.00    +0.000 A 
ATOM      4  C   UNL     1       7.133   4.943  17.262  0.00  0.00    +0.000 A 
ATOM      5  C   UNL     1       6.286   4.525  16.231  0.00  0.00    +0.000 A 
ATOM      6  C   UNL     1       4.984   4.101  16.530  0.00  0.00    +0.000 A 
ENDROOT
BRANCH   1   9
ATOM      7  C   UNL     1       2.700   2.495  18.418  0.00  0.00    +0.000 C 
ATOM      8  N   UNL     1       3.320   1.369  18.347  0.00  0.00    +0.000 NA
ATOM      9  N   UNL     1       3.188   3.743  18.171  0.00  0.00    +0.000 N 
ATOM     10  H   UNL     1       2.634   0.628  18.521  0.00  0.00    +0.000 HD
ATOM     11  H   UNL     1       2.498   4.480  18.108  0.00  0.00    +0.000 HD
BRANCH   7  12
ATOM     12  S   UNL     1       0.998   2.453  18.821  0.00  0.00    +0.000 S 
BRANCH  12  14
ATOM     13  C   UNL     1       1.641   2.857  21.460  0.00  0.00    +0.000 C 
ATOM     14  C   UNL     1       1.002   3.554  20.271  0.00  0.00    +0.000 C 
ENDBRANCH  12  14
ENDBRANCH   7  12
ENDBRANCH   1   9
BRANCH   5  15
ATOM     15  C   UNL     1       6.819   4.500  14.845  0.00  0.00    +0.000 C 
ATOM     16  O   UNL     1       7.587   5.349  14.421  0.00  0.00    +0.000 OA
BRANCH  15  17
ATOM     17  O   UNL     1       6.351   3.487  14.089  0.00  0.00    +0.000 OA
ATOM     18  H   UNL     1       6.415   2.598  14.490  0.00  0.00    +0.000 HD
ENDBRANCH  15  17
ENDBRANCH   5  15
TORSDOF 5
ENDMDL
MODEL 2
REMARK VINA RESULT:      -6.6      2.037      2.825
REMARK  Name = 
REMARK  6 active torsions:
REMARK  status: ('A' for Active; 'I' for Inactive)
REMARK    1  A    between atoms: C_1  and  C_2
REMARK    2  A    between atoms: C_2  and  S_3
REMARK    3  A    between atoms: S_3  and  C_4
REMARK    4  A    between atoms: N_6  and  C_7
REMARK    5  A    between atoms: C_11  and  C_12
REMARK    6  A    between atoms: C_12  and  O_14
REMARK                            x       y       z     vdW  Elec       q    Type
REMARK                         _______ _______ _______ _____ _____    ______ ____
ROOT
ATOM      1  C   UNL     1       4.518   4.174  17.793  0.00  0.00    +0.000 A 
ATOM      2  C   UNL     1       5.005   3.903  16.505  0.00  0.00    +0.000 A 
ATOM      3  C   UNL     1       6.321   4.212  16.150  0.00  0.00    +0.000 A 
ATOM      4  C   UNL     1       7.176   4.793  17.084  0.00  0.00    +0.000 A 
ATOM      5  C   UNL     1       6.720   5.054  18.379  0.00  0.00    +0.000 A 
ATOM      6  C   UNL     1       5.394   4.751  18.722  0.00  0.00    +0.000 A 
ENDROOT
BRANCH   1   9
ATOM      7  C   UNL     1       2.738   2.554  18.403  0.00  0.00    +0.000 C 
ATOM      8  N   UNL     1       3.377   1.437  18.361  0.00  0.00    +0.000 NA
ATOM      9  N   UNL     1       3.206   3.803  18.125  0.00  0.00    +0.000 N 
ATOM     10  H   UNL     1       2.702   0.689  18.553  0.00  0.00    +0.000 HD
ATOM     11  H   UNL     1       2.505   4.527  18.044  0.00  0.00    +0.000 HD
BRANCH   7  12
ATOM     12  S   UNL     1       1.037   2.494  18.807  0.00  0.00    +0.000 S 
BRANCH  12  14
ATOM     13  C   UNL     1       1.706   2.829  21.449  0.00  0.00    +0.000 C 
ATOM     14  C   UNL     1       1.040   3.551  20.291  0.00  0.00    +0.000 C 
ENDBRANCH  12  14
ENDBRANCH   7  12
ENDBRANCH   1   9
BRANCH   5  15
ATOM     15  C   UNL     1       7.652   5.695  19.341  0.00  0.00    +0.000 C 
ATOM     16  O   UNL     1       7.823   5.270  20.472  0.00  0.00    +0.000 OA
BRANCH  15  17
ATOM     17  O   UNL     1       8.256   6.805  18.871  0.00  0.00    +0.000 OA
ATOM     18  H   UNL     1       7.777   7.277  18.162  0.00  0.00    +0.000 HD
ENDBRANCH  15  17
ENDBRANCH   5  15
TORSDOF 5
ENDMDL
MODEL 3
REMARK VINA RESULT:      -6.5      2.087      2.789
REMARK  Name = 
REMARK  6 active torsions:
REMARK  status: ('A' for Active; 'I' for Inactive)
REMARK    1  A    between atoms: C_1  and  C_2
REMARK    2  A    between atoms: C_2  and  S_3
REMARK    3  A    between atoms: S_3  and  C_4
REMARK    4  A    between atoms: N_6  and  C_7
REMARK    5  A    between atoms: C_11  and  C_12
REMARK    6  A    between atoms: C_12  and  O_14
REMARK                            x       y       z     vdW  Elec       q    Type
REMARK                         _______ _______ _______ _____ _____    ______ ____
ROOT
ATOM      1  C   UNL     1       4.752   4.122  17.612  0.00  0.00    +0.000 A 
ATOM      2  C   UNL     1       5.262   3.847  16.334  0.00  0.00    +0.000 A 
ATOM      3  C   UNL     1       6.546   4.259  15.964  0.00  0.00    +0.000 A 
ATOM      4  C   UNL     1       7.345   4.948  16.873  0.00  0.00    +0.000 A 
ATOM      5  C   UNL     1       6.865   5.216  18.159  0.00  0.00    +0.000 A 
ATOM      6  C   UNL     1       5.572   4.809  18.517  0.00  0.00    +0.000 A 
ENDROOT
BRANCH   1   9
ATOM      7  C   UNL     1       3.141   2.396  18.381  0.00  0.00    +0.000 C 
ATOM      8  N   UNL     1       3.898   1.360  18.489  0.00  0.00    +0.000 NA
ATOM      9  N   UNL     1       3.478   3.647  17.962  0.00  0.00    +0.000 N 
ATOM     10  H   UNL     1       3.304   0.570  18.757  0.00  0.00    +0.000 HD
ATOM     11  H   UNL     1       2.705   4.273  17.779  0.00  0.00    +0.000 HD
BRANCH   7  12
ATOM     12  S   UNL     1       1.443   2.193  18.756  0.00  0.00    +0.000 S 
BRANCH  12  14
ATOM     13  C   UNL     1       1.108   4.245  20.550  0.00  0.00    +0.000 C 
ATOM     14  C   UNL     1       1.444   2.765  20.485  0.00  0.00    +0.000 C 
ENDBRANCH  12  14
ENDBRANCH   7  12
ENDBRANCH   1   9
BRANCH   5  15
ATOM     15  C   UNL     1       7.736   5.974  19.093  0.00  0.00    +0.000 C 
ATOM     16  O   UNL     1       8.313   6.998  18.768  0.00  0.00    +0.000 OA
BRANCH  15  17
ATOM     17  O   UNL     1       7.864   5.410  20.312  0.00  0.00    +0.000 OA
ATOM     18  H   UNL     1       7.221   5.711  20.984  0.00  0.00    +0.000 HD
ENDBRANCH  15  17
ENDBRANCH   5  15
TORSDOF 5
ENDMDL
MODEL 4
REMARK VINA RESULT:      -6.4      1.348      1.648
REMARK  Name = 
REMARK  6 active torsions:
REMARK  status: ('A' for Active; 'I' for Inactive)
REMARK    1  A    between atoms: C_1  and  C_2
REMARK    2  A    between atoms: C_2  and  S_3
REMARK    3  A    between atoms: S_3  and  C_4
REMARK    4  A    between atoms: N_6  and  C_7
REMARK    5  A    between atoms: C_11  and  C_12
REMARK    6  A    between atoms: C_12  and  O_14
REMARK                            x       y       z     vdW  Elec       q    Type
REMARK                         _______ _______ _______ _____ _____    ______ ____
ROOT
ATOM      1  C   UNL     1       3.987   4.670  17.570  0.00  0.00    +0.000 A 
ATOM      2  C   UNL     1       3.877   6.052  17.783  0.00  0.00    +0.000 A 
ATOM      3  C   UNL     1       4.653   6.960  17.055  0.00  0.00    +0.000 A 
ATOM      4  C   UNL     1       5.549   6.497  16.094  0.00  0.00    +0.000 A 
ATOM      5  C   UNL     1       5.661   5.125  15.851  0.00  0.00    +0.000 A 
ATOM      6  C   UNL     1       4.888   4.222  16.594  0.00  0.00    +0.000 A 
ENDROOT
BRANCH   1   9
ATOM      7  C   UNL     1       1.830   3.549  18.079  0.00  0.00    +0.000 C 
ATOM      8  N   UNL     1       1.039   4.109  17.231  0.00  0.00    +0.000 NA
ATOM      9  N   UNL     1       3.154   3.795  18.285  0.00  0.00    +0.000 N 
ATOM     10  H   UNL     1       0.097   3.742  17.400  0.00  0.00    +0.000 HD
ATOM     11  H   UNL     1       3.555   3.379  19.115  0.00  0.00    +0.000 HD
BRANCH   7  12
ATOM     12  S   UNL     1       1.140   2.361  19.162  0.00  0.00    +0.000 S 
BRANCH  12  14
ATOM     13  C   UNL     1       2.126   2.715  21.700  0.00  0.00    +0.000 C 
ATOM     14  C   UNL     1       1.147   3.321  20.710  0.00  0.00    +0.000 C 
ENDBRANCH  12  14
ENDBRANCH   7  12
ENDBRANCH   1   9
BRANCH   5  15
ATOM     15  C   UNL     1       6.643   4.666  14.836  0.00  0.00    +0.000 C 
ATOM     16  O   UNL     1       7.628   5.319  14.533  0.00  0.00    +0.000 OA
BRANCH  15  17
ATOM     17  O   UNL     1       6.330   3.490  14.253  0.00  0.00    +0.000 OA
ATOM     18  H   UNL     1       5.498   3.079  14.557  0.00  0.00    +0.000 HD
ENDBRANCH  15  17
ENDBRANCH   5  15
TORSDOF 5
ENDMDL
MODEL 5
REMARK VINA RESULT:      -6.3      2.237      2.842
REMARK  Name = 
REMARK  6 active torsions:
REMARK  status: ('A' for Active; 'I' for Inactive)
REMARK    1  A    between atoms: C_1  and  C_2
REMARK    2  A    between atoms: C_2  and  S_3
REMARK    3  A    between atoms: S_3  and  C_4
REMARK    4  A    between atoms: N_6  and  C_7
REMARK    5  A    between atoms: C_11  and  C_12
REMARK    6  A    between atoms: C_12  and  O_14
REMARK                            x       y       z     vdW  Elec       q    Type
REMARK                         _______ _______ _______ _____ _____    ______ ____
ROOT
ATOM      1  C   UNL     1       4.676   4.662  18.118  0.00  0.00    +0.000 A 
ATOM      2  C   UNL     1       4.657   4.166  16.805  0.00  0.00    +0.000 A 
ATOM      3  C   UNL     1       5.578   4.610  15.851  0.00  0.00    +0.000 A 
ATOM      4  C   UNL     1       6.541   5.554  16.200  0.00  0.00    +0.000 A 
ATOM      5  C   UNL     1       6.592   6.047  17.507  0.00  0.00    +0.000 A 
ATOM      6  C   UNL     1       5.657   5.605  18.454  0.00  0.00    +0.000 A 
ENDROOT
BRANCH   1   9
ATOM      7  C   UNL     1       3.910   3.051  19.846  0.00  0.00    +0.000 C 
ATOM      8  N   UNL     1       4.876   2.200  19.856  0.00  0.00    +0.000 NA
ATOM      9  N   UNL     1       3.766   4.153  19.059  0.00  0.00    +0.000 N 
ATOM     10  H   UNL     1       4.624   1.455  20.515  0.00  0.00    +0.000 HD
ATOM     11  H   UNL     1       2.855   4.592  19.078  0.00  0.00    +0.000 HD
BRANCH   7  12
ATOM     12  S   UNL     1       2.564   2.754  20.924  0.00  0.00    +0.000 S 
BRANCH  12  14
ATOM     13  C   UNL     1       0.780   2.395  18.867  0.00  0.00    +0.000 C 
ATOM     14  C   UNL     1       1.207   3.418  19.905  0.00  0.00    +0.000 C 
ENDBRANCH  12  14
ENDBRANCH   7  12
ENDBRANCH   1   9
BRANCH   5  15
ATOM     15  C   UNL     1       7.617   7.070  17.837  0.00  0.00    +0.000 C 
ATOM     16  O   UNL     1       7.838   8.032  17.121  0.00  0.00    +0.000 OA
BRANCH  15  17
ATOM     17  O   UNL     1       8.306   6.819  18.969  0.00  0.00    +0.000 OA
ATOM     18  H   UNL     1       8.046   6.009  19.449  0.00  0.00    +0.000 HD
ENDBRANCH  15  17
ENDBRANCH   5  15
TORSDOF 5
ENDMDL
MODEL 6
REMARK VINA RESULT:      -6.3      0.983      1.100
REMARK  Name = 
REMARK  6 active torsions:
REMARK  status: ('A' for Active; 'I' for Inactive)
REMARK    1  A    between atoms: C_1  and  C_2
REMARK    2  A    between atoms: C_2  and  S_3
REMARK    3  A    between atoms: S_3  and  C_4
REMARK    4  A    between atoms: N_6  and  C_7
REMARK    5  A    between atoms: C_11  and  C_12
REMARK    6  A    between atoms: C_12  and  O_14
REMARK                            x       y       z     vdW  Elec       q    Type
REMARK                         _______ _______ _______ _____ _____    ______ ____
ROOT
ATOM      1  C   UNL     1       4.913   4.366  17.721  0.00  0.00    +0.000 A 
ATOM      2  C   UNL     1       5.547   5.332  18.518  0.00  0.00    +0.000 A 
ATOM      3  C   UNL     1       6.632   6.070  18.034  0.00  0.00    +0.000 A 
ATOM      4  C   UNL     1       7.096   5.857  16.737  0.00  0.00    +0.000 A 
ATOM      5  C   UNL     1       6.467   4.915  15.919  0.00  0.00    +0.000 A 
ATOM      6  C   UNL     1       5.388   4.171  16.417  0.00  0.00    +0.000 A 
ENDROOT
BRANCH   1   9
ATOM      7  C   UNL     1       3.779   2.682  19.151  0.00  0.00    +0.000 C 
ATOM      8  N   UNL     1       4.780   2.101  19.715  0.00  0.00    +0.000 NA
ATOM      9  N   UNL     1       3.796   3.682  18.227  0.00  0.00    +0.000 N 
ATOM     10  H   UNL     1       4.409   1.343  20.297  0.00  0.00    +0.000 HD
ATOM     11  H   UNL     1       2.913   3.879  17.775  0.00  0.00    +0.000 HD
BRANCH   7  12
ATOM     12  S   UNL     1       2.179   2.099  19.553  0.00  0.00    +0.000 S 
BRANCH  12  14
ATOM     13  C   UNL     1       1.179   4.436  20.589  0.00  0.00    +0.000 C 
ATOM     14  C   UNL     1       1.836   3.134  21.011  0.00  0.00    +0.000 C 
ENDBRANCH  12  14
ENDBRANCH   7  12
ENDBRANCH   1   9
BRANCH   5  15
ATOM     15  C   UNL     1       7.003   4.698  14.551  0.00  0.00    +0.000 C 
ATOM     16  O   UNL     1       7.798   5.462  14.029  0.00  0.00    +0.000 OA
BRANCH  15  17
ATOM     17  O   UNL     1       6.505   3.612  13.926  0.00  0.00    +0.000 OA
ATOM     18  H   UNL     1       5.603   3.712  13.562  0.00  0.00    +0.000 HD
ENDBRANCH  15  17
ENDBRANCH   5  15
TORSDOF 5
ENDMDL
MODEL 7
REMARK VINA RESULT:      -6.3      1.365      1.524
REMARK  Name = 
REMARK  6 active torsions:
REMARK  status: ('A' for Active; 'I' for Inactive)
REMARK    1  A    between atoms: C_1  and  C_2
REMARK    2  A    between atoms: C_2  and  S_3
REMARK    3  A    between atoms: S_3  and  C_4
REMARK    4  A    between atoms: N_6  and  C_7
REMARK    5  A    between atoms: C_11  and  C_12
REMARK    6  A    between atoms: C_12  and  O_14
REMARK                            x       y       z     vdW  Elec       q    Type
REMARK                         _______ _______ _______ _____ _____    ______ ____
ROOT
ATOM      1  C   UNL     1       5.305   4.573  18.625  0.00  0.00    +0.000 A 
ATOM      2  C   UNL     1       6.263   5.386  19.251  0.00  0.00    +0.000 A 
ATOM      3  C   UNL     1       7.335   5.924  18.532  0.00  0.00    +0.000 A 
ATOM      4  C   UNL     1       7.463   5.660  17.170  0.00  0.00    +0.000 A 
ATOM      5  C   UNL     1       6.510   4.869  16.521  0.00  0.00    +0.000 A 
ATOM      6  C   UNL     1       5.444   4.325  17.253  0.00  0.00    +0.000 A 
ENDROOT
BRANCH   1   9
ATOM      7  C   UNL     1       4.095   2.887  19.988  0.00  0.00    +0.000 C 
ATOM      8  N   UNL     1       4.918   1.898  19.973  0.00  0.00    +0.000 NA
ATOM      9  N   UNL     1       4.216   4.095  19.371  0.00  0.00    +0.000 N 
ATOM     10  H   UNL     1       4.478   1.121  20.476  0.00  0.00    +0.000 HD
ATOM     11  H   UNL     1       3.383   4.668  19.358  0.00  0.00    +0.000 HD
BRANCH   7  12
ATOM     12  S   UNL     1       2.589   2.667  20.853  0.00  0.00    +0.000 S 
BRANCH  12  14
ATOM     13  C   UNL     1       0.841   2.478  18.745  0.00  0.00    +0.000 C 
ATOM     14  C   UNL     1       1.451   3.493  19.696  0.00  0.00    +0.000 C 
ENDBRANCH  12  14
ENDBRANCH   7  12
ENDBRANCH   1   9
BRANCH   5  15
ATOM     15  C   UNL     1       6.690   4.590  15.074  0.00  0.00    +0.000 C 
ATOM     16  O   UNL     1       7.212   5.387  14.312  0.00  0.00    +0.000 OA
BRANCH  15  17
ATOM     17  O   UNL     1       6.193   3.403  14.672  0.00  0.00    +0.000 OA
ATOM     18  H   UNL     1       6.825   2.815  14.215  0.00  0.00    +0.000 HD
ENDBRANCH  15  17
ENDBRANCH   5  15
TORSDOF 5
ENDMDL
MODEL 8
REMARK VINA RESULT:      -6.2      2.142      2.896
REMARK  Name = 
REMARK  6 active torsions:
REMARK  status: ('A' for Active; 'I' for Inactive)
REMARK    1  A    between atoms: C_1  and  C_2
REMARK    2  A    between atoms: C_2  and  S_3
REMARK    3  A    between atoms: S_3  and  C_4
REMARK    4  A    between atoms: N_6  and  C_7
REMARK    5  A    between atoms: C_11  and  C_12
REMARK    6  A    between atoms: C_12  and  O_14
REMARK                            x       y       z     vdW  Elec       q    Type
REMARK                         _______ _______ _______ _____ _____    ______ ____
ROOT
ATOM      1  C   UNL     1       4.864   3.969  17.712  0.00  0.00    +0.000 A 
ATOM      2  C   UNL     1       5.140   3.973  16.337  0.00  0.00    +0.000 A 
ATOM      3  C   UNL     1       6.257   4.640  15.825  0.00  0.00    +0.000 A 
ATOM      4  C   UNL     1       7.123   5.310  16.687  0.00  0.00    +0.000 A 
ATOM      5  C   UNL     1       6.879   5.303  18.064  0.00  0.00    +0.000 A 
ATOM      6  C   UNL     1       5.750   4.640  18.566  0.00  0.00    +0.000 A 
ENDROOT
BRANCH   1   9
ATOM      7  C   UNL     1       2.475   3.674  18.322  0.00  0.00    +0.000 C 
ATOM      8  N   UNL     1       2.002   4.851  18.100  0.00  0.00    +0.000 NA
ATOM      9  N   UNL     1       3.761   3.244  18.191  0.00  0.00    +0.000 N 
ATOM     10  H   UNL     1       1.014   4.843  18.375  0.00  0.00    +0.000 HD
ATOM     11  H   UNL     1       3.963   2.335  18.584  0.00  0.00    +0.000 HD
BRANCH   7  12
ATOM     12  S   UNL     1       1.368   2.463  18.929  0.00  0.00    +0.000 S 
BRANCH  12  14
ATOM     13  C   UNL     1       2.193   2.836  21.521  0.00  0.00    +0.000 C 
ATOM     14  C   UNL     1       1.041   3.152  20.583  0.00  0.00    +0.000 C 
ENDBRANCH  12  14
ENDBRANCH   7  12
ENDBRANCH   1   9
BRANCH   5  15
ATOM     15  C   UNL     1       7.810   6.047  18.950  0.00  0.00    +0.000 C 
ATOM     16  O   UNL     1       8.261   7.142  18.656  0.00  0.00    +0.000 OA
BRANCH  15  17
ATOM     17  O   UNL     1       8.143   5.391  20.080  0.00  0.00    +0.000 OA
ATOM     18  H   UNL     1       7.398   5.169  20.672  0.00  0.00    +0.000 HD
ENDBRANCH  15  17
ENDBRANCH   5  15
TORSDOF 5
ENDMDL
MODEL 9
REMARK VINA RESULT:      -6.2      1.378      1.725
REMARK  Name = 
REMARK  6 active torsions:
REMARK  status: ('A' for Active; 'I' for Inactive)
REMARK    1  A    between atoms: C_1  and  C_2
REMARK    2  A    between atoms: C_2  and  S_3
REMARK    3  A    between atoms: S_3  and  C_4
REMARK    4  A    between atoms: N_6  and  C_7
REMARK    5  A    between atoms: C_11  and  C_12
REMARK    6  A    between atoms: C_12  and  O_14
REMARK                            x       y       z     vdW  Elec       q    Type
REMARK                         _______ _______ _______ _____ _____    ______ ____
ROOT
ATOM      1  C   UNL     1       5.357   4.502  18.649  0.00  0.00    +0.000 A 
ATOM      2  C   UNL     1       6.271   5.362  19.278  0.00  0.00    +0.000 A 
ATOM      3  C   UNL     1       7.320   5.950  18.563  0.00  0.00    +0.000 A 
ATOM      4  C   UNL     1       7.465   5.693  17.201  0.00  0.00    +0.000 A 
ATOM      5  C   UNL     1       6.554   4.856  16.550  0.00  0.00    +0.000 A 
ATOM      6  C   UNL     1       5.513   4.261  17.277  0.00  0.00    +0.000 A 
ENDROOT
BRANCH   1   9
ATOM      7  C   UNL     1       4.228   2.763  20.014  0.00  0.00    +0.000 C 
ATOM      8  N   UNL     1       5.102   1.818  20.009  0.00  0.00    +0.000 NA
ATOM      9  N   UNL     1       4.290   3.972  19.390  0.00  0.00    +0.000 N 
ATOM     10  H   UNL     1       4.699   1.022  20.514  0.00  0.00    +0.000 HD
ATOM     11  H   UNL     1       3.428   4.501  19.369  0.00  0.00    +0.000 HD
BRANCH   7  12
ATOM     12  S   UNL     1       2.731   2.469  20.871  0.00  0.00    +0.000 S 
BRANCH  12  14
ATOM     13  C   UNL     1       0.894   4.448  20.372  0.00  0.00    +0.000 C 
ATOM     14  C   UNL     1       2.185   4.188  21.127  0.00  0.00    +0.000 C 
ENDBRANCH  12  14
ENDBRANCH   7  12
ENDBRANCH   1   9
BRANCH   5  15
ATOM     15  C   UNL     1       6.753   4.586  15.103  0.00  0.00    +0.000 C 
ATOM     16  O   UNL     1       6.177   3.683  14.518  0.00  0.00    +0.000 OA
BRANCH  15  17
ATOM     17  O   UNL     1       7.652   5.396  14.507  0.00  0.00    +0.000 OA
ATOM     18  H   UNL     1       7.311   5.922  13.757  0.00  0.00    +0.000 HD
ENDBRANCH  15  17
ENDBRANCH   5  15
TORSDOF 5
ENDMDL
