MODEL 1
REMARK VINA RESULT:      -7.1      0.000      0.000
REMARK  Name = 
REMARK  7 active torsions:
REMARK  status: ('A' for Active; 'I' for Inactive)
REMARK    1  A    between atoms: C_1  and  C_2
REMARK    2  A    between atoms: C_2  and  O_3
REMARK    3  A    between atoms: O_3  and  C_4
REMARK    4  A    between atoms: C_4  and  C_6
REMARK    5  A    between atoms: C_12  and  O_13
REMARK    6  A    between atoms: O_13  and  C_14
REMARK    7  A    between atoms: C_32  and  C_33
REMARK                            x       y       z     vdW  Elec       q    Type
REMARK                         _______ _______ _______ _____ _____    ______ ____
ROOT
ATOM      1  C   UNL     1      -1.173  12.956  22.884  0.00  0.00    +0.000 C 
ATOM      2  C   UNL     1      -0.418  11.619  22.703  0.00  0.00    +0.000 C 
ATOM      3  C   UNL     1      -0.936  10.291  23.192  0.00  0.00    +0.000 C 
ATOM      4  O   UNL     1       0.043   9.260  22.933  0.00  0.00    +0.000 OA
ATOM      5  C   UNL     1       0.583   9.247  21.670  0.00  0.00    +0.000 A 
ATOM      6  C   UNL     1       1.211   8.057  21.282  0.00  0.00    +0.000 A 
ATOM      7  C   UNL     1       1.696   7.896  19.986  0.00  0.00    +0.000 A 
ATOM      8  C   UNL     1       1.537   8.942  19.072  0.00  0.00    +0.000 A 
ATOM      9  C   UNL     1       0.930  10.139  19.463  0.00  0.00    +0.000 A 
ATOM     10  C   UNL     1       0.512  10.333  20.786  0.00  0.00    +0.000 A 
ATOM     11  C   UNL     1      -0.219  11.557  21.209  0.00  0.00    +0.000 C 
ATOM     12  N   UNL     1       0.210  12.937  20.992  0.00  0.00    +0.000 N 
ATOM     13  C   UNL     1       1.252  13.374  20.224  0.00  0.00    +0.000 C 
ATOM     14  O   UNL     1       2.229  12.723  19.887  0.00  0.00    +0.000 OA
ATOM     15  C   UNL     1       1.151  14.765  19.768  0.00  0.00    +0.000 A 
ATOM     16  C   UNL     1       2.208  15.634  20.060  0.00  0.00    +0.000 A 
ATOM     17  C   UNL     1       2.115  16.962  19.660  0.00  0.00    +0.000 A 
ATOM     18  C   UNL     1       1.049  17.358  18.854  0.00  0.00    +0.000 A 
ATOM     19  F   UNL     1       0.981  18.630  18.446  0.00  0.00    +0.000 F 
ATOM     20  C   UNL     1       0.003  16.488  18.542  0.00  0.00    +0.000 A 
ATOM     21  C   UNL     1      -0.013  15.222  19.124  0.00  0.00    +0.000 A 
ATOM     22  N   UNL     1      -1.272  14.579  19.239  0.00  0.00    +0.000 N 
ATOM     23  C   UNL     1      -1.767  13.963  20.395  0.00  0.00    +0.000 C 
ATOM     24  O   UNL     1      -2.928  13.559  20.404  0.00  0.00    +0.000 OA
ATOM     25  C   UNL     1      -0.805  13.812  21.623  0.00  0.00    +0.000 C 
ATOM     26  C   UNL     1      -0.393  15.200  22.170  0.00  0.00    +0.000 C 
ATOM     27  H   UNL     1      -1.999  14.809  18.568  0.00  0.00    +0.000 HD
ENDROOT
BRANCH   1  28
ATOM     28  C   UNL     1      -2.612  12.905  23.305  0.00  0.00    +0.000 C 
ATOM     29  O   UNL     1      -3.360  11.972  23.029  0.00  0.00    +0.000 OA
BRANCH  28  30
ATOM     30  O   UNL     1      -2.888  13.868  24.223  0.00  0.00    +0.000 OA
BRANCH  30  32
ATOM     31  C   UNL     1      -3.797  16.000  24.850  0.00  0.00    +0.000 C 
ATOM     32  C   UNL     1      -3.751  14.924  23.780  0.00  0.00    +0.000 C 
ENDBRANCH  30  32
ENDBRANCH  28  30
ENDBRANCH   1  28
BRANCH   7  33
ATOM     33  O   UNL     1       2.317   6.795  19.475  0.00  0.00    +0.000 OA
ATOM     34  C   UNL     1       2.147   5.582  20.187  0.00  0.00    +0.000 C 
ENDBRANCH   7  33
TORSDOF 4
ENDMDL
MODEL 2
REMARK VINA RESULT:      -6.9      1.235      1.430
REMARK  Name = 
REMARK  7 active torsions:
REMARK  status: ('A' for Active; 'I' for Inactive)
REMARK    1  A    between atoms: C_1  and  C_2
REMARK    2  A    between atoms: C_2  and  O_3
REMARK    3  A    between atoms: O_3  and  C_4
REMARK    4  A    between atoms: C_4  and  C_6
REMARK    5  A    between atoms: C_12  and  O_13
REMARK    6  A    between atoms: O_13  and  C_14
REMARK    7  A    between atoms: C_32  and  C_33
REMARK                            x       y       z     vdW  Elec       q    Type
REMARK                         _______ _______ _______ _____ _____    ______ ____
ROOT
ATOM      1  C   UNL     1      -0.465  12.047  22.448  0.00  0.00    +0.000 C 
ATOM      2  C   UNL     1       0.354  10.815  21.997  0.00  0.00    +0.000 C 
ATOM      3  C   UNL     1       0.031   9.400  22.404  0.00  0.00    +0.000 C 
ATOM      4  O   UNL     1       1.032   8.501  21.877  0.00  0.00    +0.000 OA
ATOM      5  C   UNL     1       1.355   8.669  20.551  0.00  0.00    +0.000 A 
ATOM      6  C   UNL     1       2.002   7.592  19.935  0.00  0.00    +0.000 A 
ATOM      7  C   UNL     1       2.276   7.611  18.569  0.00  0.00    +0.000 A 
ATOM      8  C   UNL     1       1.886   8.724  17.819  0.00  0.00    +0.000 A 
ATOM      9  C   UNL     1       1.259   9.810  18.436  0.00  0.00    +0.000 A 
ATOM     10  C   UNL     1       1.051   9.827  19.822  0.00  0.00    +0.000 A 
ATOM     11  C   UNL     1       0.306  10.925  20.494  0.00  0.00    +0.000 C 
ATOM     12  N   UNL     1       0.582  12.355  20.373  0.00  0.00    +0.000 N 
ATOM     13  C   UNL     1       1.444  12.967  19.508  0.00  0.00    +0.000 C 
ATOM     14  O   UNL     1       2.399  12.452  18.950  0.00  0.00    +0.000 OA
ATOM     15  C   UNL     1       1.158  14.381  19.239  0.00  0.00    +0.000 A 
ATOM     16  C   UNL     1       2.175  15.314  19.461  0.00  0.00    +0.000 A 
ATOM     17  C   UNL     1       1.913  16.660  19.237  0.00  0.00    +0.000 A 
ATOM     18  C   UNL     1       0.699  17.031  18.659  0.00  0.00    +0.000 A 
ATOM     19  F   UNL     1       0.463  18.325  18.417  0.00  0.00    +0.000 F 
ATOM     20  C   UNL     1      -0.312  16.100  18.415  0.00  0.00    +0.000 A 
ATOM     21  C   UNL     1      -0.129  14.785  18.842  0.00  0.00    +0.000 A 
ATOM     22  N   UNL     1      -1.297  14.014  19.076  0.00  0.00    +0.000 N 
ATOM     23  C   UNL     1      -1.543  13.239  20.216  0.00  0.00    +0.000 C 
ATOM     24  O   UNL     1      -2.651  12.725  20.359  0.00  0.00    +0.000 OA
ATOM     25  C   UNL     1      -0.381  13.058  21.252  0.00  0.00    +0.000 C 
ATOM     26  C   UNL     1       0.003  14.417  21.886  0.00  0.00    +0.000 C 
ATOM     27  H   UNL     1      -2.141  14.240  18.559  0.00  0.00    +0.000 HD
ENDROOT
BRANCH   1  28
ATOM     28  C   UNL     1      -1.806  11.813  23.079  0.00  0.00    +0.000 C 
ATOM     29  O   UNL     1      -2.287  10.696  23.241  0.00  0.00    +0.000 OA
BRANCH  28  30
ATOM     30  O   UNL     1      -2.275  12.945  23.666  0.00  0.00    +0.000 OA
BRANCH  30  32
ATOM     31  C   UNL     1      -4.378  12.613  24.776  0.00  0.00    +0.000 C 
ATOM     32  C   UNL     1      -3.686  13.172  23.546  0.00  0.00    +0.000 C 
ENDBRANCH  30  32
ENDBRANCH  28  30
ENDBRANCH   1  28
BRANCH   7  33
ATOM     33  O   UNL     1       2.890   6.634  17.844  0.00  0.00    +0.000 OA
ATOM     34  C   UNL     1       4.221   6.891  17.430  0.00  0.00    +0.000 C 
ENDBRANCH   7  33
TORSDOF 4
ENDMDL
MODEL 3
REMARK VINA RESULT:      -6.7      3.343      6.687
REMARK  Name = 
REMARK  7 active torsions:
REMARK  status: ('A' for Active; 'I' for Inactive)
REMARK    1  A    between atoms: C_1  and  C_2
REMARK    2  A    between atoms: C_2  and  O_3
REMARK    3  A    between atoms: O_3  and  C_4
REMARK    4  A    between atoms: C_4  and  C_6
REMARK    5  A    between atoms: C_12  and  O_13
REMARK    6  A    between atoms: O_13  and  C_14
REMARK    7  A    between atoms: C_32  and  C_33
REMARK                            x       y       z     vdW  Elec       q    Type
REMARK                         _______ _______ _______ _____ _____    ______ ____
ROOT
ATOM      1  C   UNL     1      -2.643  11.857  18.005  0.00  0.00    +0.000 C 
ATOM      2  C   UNL     1      -3.859  12.218  18.888  0.00  0.00    +0.000 C 
ATOM      3  C   UNL     1      -5.153  11.445  18.888  0.00  0.00    +0.000 C 
ATOM      4  O   UNL     1      -6.106  12.088  19.764  0.00  0.00    +0.000 OA
ATOM      5  C   UNL     1      -5.637  12.443  21.006  0.00  0.00    +0.000 A 
ATOM      6  C   UNL     1      -6.609  12.693  21.982  0.00  0.00    +0.000 A 
ATOM      7  C   UNL     1      -6.245  12.953  23.301  0.00  0.00    +0.000 A 
ATOM      8  C   UNL     1      -4.889  12.951  23.639  0.00  0.00    +0.000 A 
ATOM      9  C   UNL     1      -3.915  12.723  22.662  0.00  0.00    +0.000 A 
ATOM     10  C   UNL     1      -4.274  12.539  21.321  0.00  0.00    +0.000 A 
ATOM     11  C   UNL     1      -3.270  12.203  20.276  0.00  0.00    +0.000 C 
ATOM     12  N   UNL     1      -2.039  12.939  19.994  0.00  0.00    +0.000 N 
ATOM     13  C   UNL     1      -1.488  13.951  20.727  0.00  0.00    +0.000 C 
ATOM     14  O   UNL     1      -2.072  14.679  21.514  0.00  0.00    +0.000 OA
ATOM     15  C   UNL     1      -0.047  14.151  20.531  0.00  0.00    +0.000 A 
ATOM     16  C   UNL     1       0.398  15.422  20.154  0.00  0.00    +0.000 A 
ATOM     17  C   UNL     1       1.756  15.620  19.936  0.00  0.00    +0.000 A 
ATOM     18  C   UNL     1       2.652  14.597  20.242  0.00  0.00    +0.000 A 
ATOM     19  F   UNL     1       3.961  14.804  20.061  0.00  0.00    +0.000 F 
ATOM     20  C   UNL     1       2.214  13.333  20.641  0.00  0.00    +0.000 A 
ATOM     21  C   UNL     1       0.845  13.070  20.647  0.00  0.00    +0.000 A 
ATOM     22  N   UNL     1       0.447  11.713  20.527  0.00  0.00    +0.000 N 
ATOM     23  C   UNL     1      -0.531  11.228  19.650  0.00  0.00    +0.000 C 
ATOM     24  O   UNL     1      -0.688  10.013  19.546  0.00  0.00    +0.000 OA
ATOM     25  C   UNL     1      -1.386  12.268  18.847  0.00  0.00    +0.000 C 
ATOM     26  C   UNL     1      -0.491  13.085  17.884  0.00  0.00    +0.000 C 
ATOM     27  H   UNL     1       1.078  10.990  20.859  0.00  0.00    +0.000 HD
ENDROOT
BRANCH   1  28
ATOM     28  C   UNL     1      -2.631  10.517  17.329  0.00  0.00    +0.000 C 
ATOM     29  O   UNL     1      -3.087   9.501  17.844  0.00  0.00    +0.000 OA
BRANCH  28  30
ATOM     30  O   UNL     1      -2.301  10.634  16.016  0.00  0.00    +0.000 OA
BRANCH  30  32
ATOM     31  C   UNL     1      -3.691  10.210  14.105  0.00  0.00    +0.000 C 
ATOM     32  C   UNL     1      -2.786   9.594  15.156  0.00  0.00    +0.000 C 
ENDBRANCH  30  32
ENDBRANCH  28  30
ENDBRANCH   1  28
BRANCH   7  33
ATOM     33  O   UNL     1      -7.083  13.204  24.347  0.00  0.00    +0.000 OA
ATOM     34  C   UNL     1      -7.916  14.345  24.234  0.00  0.00    +0.000 C 
ENDBRANCH   7  33
TORSDOF 4
ENDMDL
MODEL 4
REMARK VINA RESULT:      -6.4      3.474      7.278
REMARK  Name = 
REMARK  7 active torsions:
REMARK  status: ('A' for Active; 'I' for Inactive)
REMARK    1  A    between atoms: C_1  and  C_2
REMARK    2  A    between atoms: C_2  and  O_3
REMARK    3  A    between atoms: O_3  and  C_4
REMARK    4  A    between atoms: C_4  and  C_6
REMARK    5  A    between atoms: C_12  and  O_13
REMARK    6  A    between atoms: O_13  and  C_14
REMARK    7  A    between atoms: C_32  and  C_33
REMARK                            x       y       z     vdW  Elec       q    Type
REMARK                         _______ _______ _______ _____ _____    ______ ____
ROOT
ATOM      1  C   UNL     1      -0.670  11.490  21.164  0.00  0.00    +0.000 C 
ATOM      2  C   UNL     1      -1.698  12.275  22.011  0.00  0.00    +0.000 C 
ATOM      3  C   UNL     1      -1.334  13.103  23.216  0.00  0.00    +0.000 C 
ATOM      4  O   UNL     1      -2.532  13.638  23.821  0.00  0.00    +0.000 OA
ATOM      5  C   UNL     1      -3.431  14.222  22.961  0.00  0.00    +0.000 A 
ATOM      6  C   UNL     1      -4.376  15.074  23.545  0.00  0.00    +0.000 A 
ATOM      7  C   UNL     1      -5.263  15.803  22.756  0.00  0.00    +0.000 A 
ATOM      8  C   UNL     1      -5.190  15.676  21.366  0.00  0.00    +0.000 A 
ATOM      9  C   UNL     1      -4.262  14.810  20.781  0.00  0.00    +0.000 A 
ATOM     10  C   UNL     1      -3.421  14.017  21.574  0.00  0.00    +0.000 A 
ATOM     11  C   UNL     1      -2.362  13.156  20.982  0.00  0.00    +0.000 C 
ATOM     12  N   UNL     1      -2.549  12.159  19.932  0.00  0.00    +0.000 N 
ATOM     13  C   UNL     1      -3.667  11.942  19.178  0.00  0.00    +0.000 C 
ATOM     14  O   UNL     1      -4.811  12.257  19.468  0.00  0.00    +0.000 OA
ATOM     15  C   UNL     1      -3.434  11.272  17.893  0.00  0.00    +0.000 A 
ATOM     16  C   UNL     1      -4.147  10.100  17.621  0.00  0.00    +0.000 A 
ATOM     17  C   UNL     1      -3.917   9.437  16.422  0.00  0.00    +0.000 A 
ATOM     18  C   UNL     1      -3.099  10.031  15.461  0.00  0.00    +0.000 A 
ATOM     19  F   UNL     1      -2.906   9.403  14.295  0.00  0.00    +0.000 F 
ATOM     20  C   UNL     1      -2.402  11.212  15.719  0.00  0.00    +0.000 A 
ATOM     21  C   UNL     1      -2.462  11.759  17.000  0.00  0.00    +0.000 A 
ATOM     22  N   UNL     1      -1.388  12.597  17.396  0.00  0.00    +0.000 N 
ATOM     23  C   UNL     1      -0.692  12.507  18.608  0.00  0.00    +0.000 C 
ATOM     24  O   UNL     1       0.307  13.204  18.775  0.00  0.00    +0.000 OA
ATOM     25  C   UNL     1      -1.232  11.521  19.700  0.00  0.00    +0.000 C 
ATOM     26  C   UNL     1      -1.162  10.058  19.199  0.00  0.00    +0.000 C 
ATOM     27  H   UNL     1      -0.877  13.103  16.680  0.00  0.00    +0.000 HD
ENDROOT
BRANCH   1  28
ATOM     28  C   UNL     1       0.787  11.788  21.364  0.00  0.00    +0.000 C 
ATOM     29  O   UNL     1       1.224  12.923  21.528  0.00  0.00    +0.000 OA
BRANCH  28  30
ATOM     30  O   UNL     1       1.491  10.650  21.598  0.00  0.00    +0.000 OA
BRANCH  30  32
ATOM     31  C   UNL     1       1.097   8.284  21.486  0.00  0.00    +0.000 C 
ATOM     32  C   UNL     1       0.760   9.576  22.206  0.00  0.00    +0.000 C 
ENDBRANCH  30  32
ENDBRANCH  28  30
ENDBRANCH   1  28
BRANCH   7  33
ATOM     33  O   UNL     1      -6.223  16.669  23.190  0.00  0.00    +0.000 OA
ATOM     34  C   UNL     1      -6.599  17.701  22.294  0.00  0.00    +0.000 C 
ENDBRANCH   7  33
TORSDOF 4
ENDMDL
MODEL 5
REMARK VINA RESULT:      -6.4      2.926      7.202
REMARK  Name = 
REMARK  7 active torsions:
REMARK  status: ('A' for Active; 'I' for Inactive)
REMARK    1  A    between atoms: C_1  and  C_2
REMARK    2  A    between atoms: C_2  and  O_3
REMARK    3  A    between atoms: O_3  and  C_4
REMARK    4  A    between atoms: C_4  and  C_6
REMARK    5  A    between atoms: C_12  and  O_13
REMARK    6  A    between atoms: O_13  and  C_14
REMARK    7  A    between atoms: C_32  and  C_33
REMARK                            x       y       z     vdW  Elec       q    Type
REMARK                         _______ _______ _______ _____ _____    ______ ____
ROOT
ATOM      1  C   UNL     1       0.139  14.776  20.649  0.00  0.00    +0.000 C 
ATOM      2  C   UNL     1      -1.066  15.167  21.535  0.00  0.00    +0.000 C 
ATOM      3  C   UNL     1      -1.816  16.468  21.404  0.00  0.00    +0.000 C 
ATOM      4  O   UNL     1      -2.831  16.552  22.427  0.00  0.00    +0.000 OA
ATOM      5  C   UNL     1      -3.620  15.437  22.586  0.00  0.00    +0.000 A 
ATOM      6  C   UNL     1      -4.827  15.629  23.269  0.00  0.00    +0.000 A 
ATOM      7  C   UNL     1      -5.750  14.593  23.390  0.00  0.00    +0.000 A 
ATOM      8  C   UNL     1      -5.457  13.356  22.810  0.00  0.00    +0.000 A 
ATOM      9  C   UNL     1      -4.242  13.155  22.146  0.00  0.00    +0.000 A 
ATOM     10  C   UNL     1      -3.279  14.170  22.090  0.00  0.00    +0.000 A 
ATOM     11  C   UNL     1      -2.019  14.019  21.314  0.00  0.00    +0.000 C 
ATOM     12  N   UNL     1      -1.062  12.920  21.428  0.00  0.00    +0.000 N 
ATOM     13  C   UNL     1      -1.212  11.755  22.125  0.00  0.00    +0.000 C 
ATOM     14  O   UNL     1      -1.970  11.561  23.062  0.00  0.00    +0.000 OA
ATOM     15  C   UNL     1      -0.369  10.643  21.670  0.00  0.00    +0.000 A 
ATOM     16  C   UNL     1       0.461  10.018  22.605  0.00  0.00    +0.000 A 
ATOM     17  C   UNL     1       1.287   8.982  22.185  0.00  0.00    +0.000 A 
ATOM     18  C   UNL     1       1.159   8.495  20.885  0.00  0.00    +0.000 A 
ATOM     19  F   UNL     1       1.935   7.477  20.494  0.00  0.00    +0.000 F 
ATOM     20  C   UNL     1       0.316   9.101  19.953  0.00  0.00    +0.000 A 
ATOM     21  C   UNL     1      -0.347  10.274  20.313  0.00  0.00    +0.000 A 
ATOM     22  N   UNL     1      -0.746  11.140  19.261  0.00  0.00    +0.000 N 
ATOM     23  C   UNL     1      -0.527  12.522  19.221  0.00  0.00    +0.000 C 
ATOM     24  O   UNL     1      -0.801  13.138  18.193  0.00  0.00    +0.000 OA
ATOM     25  C   UNL     1       0.053  13.218  20.500  0.00  0.00    +0.000 C 
ATOM     26  C   UNL     1       1.476  12.693  20.811  0.00  0.00    +0.000 C 
ATOM     27  H   UNL     1      -0.937  10.739  18.348  0.00  0.00    +0.000 HD
ENDROOT
BRANCH   1  28
ATOM     28  C   UNL     1       0.404  15.587  19.415  0.00  0.00    +0.000 C 
ATOM     29  O   UNL     1      -0.489  16.057  18.716  0.00  0.00    +0.000 OA
BRANCH  28  30
ATOM     30  O   UNL     1       1.713  15.941  19.333  0.00  0.00    +0.000 OA
BRANCH  30  32
ATOM     31  C   UNL     1       3.249  16.255  17.514  0.00  0.00    +0.000 C 
ATOM     32  C   UNL     1       2.488  15.242  18.349  0.00  0.00    +0.000 C 
ENDBRANCH  30  32
ENDBRANCH  28  30
ENDBRANCH   1  28
BRANCH   7  33
ATOM     33  O   UNL     1      -6.960  14.645  24.018  0.00  0.00    +0.000 OA
ATOM     34  C   UNL     1      -7.648  13.415  24.172  0.00  0.00    +0.000 C 
ENDBRANCH   7  33
TORSDOF 4
ENDMDL
MODEL 6
REMARK VINA RESULT:      -6.3      2.512      5.194
REMARK  Name = 
REMARK  7 active torsions:
REMARK  status: ('A' for Active; 'I' for Inactive)
REMARK    1  A    between atoms: C_1  and  C_2
REMARK    2  A    between atoms: C_2  and  O_3
REMARK    3  A    between atoms: O_3  and  C_4
REMARK    4  A    between atoms: C_4  and  C_6
REMARK    5  A    between atoms: C_12  and  O_13
REMARK    6  A    between atoms: O_13  and  C_14
REMARK    7  A    between atoms: C_32  and  C_33
REMARK                            x       y       z     vdW  Elec       q    Type
REMARK                         _______ _______ _______ _____ _____    ______ ____
ROOT
ATOM      1  C   UNL     1       0.844  14.644  19.301  0.00  0.00    +0.000 C 
ATOM      2  C   UNL     1       1.223  13.287  18.665  0.00  0.00    +0.000 C 
ATOM      3  C   UNL     1       2.581  12.983  18.086  0.00  0.00    +0.000 C 
ATOM      4  O   UNL     1       2.578  11.660  17.505  0.00  0.00    +0.000 OA
ATOM      5  C   UNL     1       2.036  10.662  18.280  0.00  0.00    +0.000 A 
ATOM      6  C   UNL     1       2.373   9.352  17.920  0.00  0.00    +0.000 A 
ATOM      7  C   UNL     1       1.969   8.272  18.701  0.00  0.00    +0.000 A 
ATOM      8  C   UNL     1       1.226   8.517  19.859  0.00  0.00    +0.000 A 
ATOM      9  C   UNL     1       0.870   9.823  20.209  0.00  0.00    +0.000 A 
ATOM     10  C   UNL     1       1.208  10.905  19.385  0.00  0.00    +0.000 A 
ATOM     11  C   UNL     1       0.924  12.311  19.775  0.00  0.00    +0.000 C 
ATOM     12  N   UNL     1      -0.371  12.847  20.190  0.00  0.00    +0.000 N 
ATOM     13  C   UNL     1      -1.512  12.148  20.463  0.00  0.00    +0.000 C 
ATOM     14  O   UNL     1      -1.790  11.027  20.068  0.00  0.00    +0.000 OA
ATOM     15  C   UNL     1      -2.475  12.840  21.329  0.00  0.00    +0.000 A 
ATOM     16  C   UNL     1      -3.784  12.999  20.865  0.00  0.00    +0.000 A 
ATOM     17  C   UNL     1      -4.701  13.677  21.660  0.00  0.00    +0.000 A 
ATOM     18  C   UNL     1      -4.338  14.047  22.954  0.00  0.00    +0.000 A 
ATOM     19  F   UNL     1      -5.234  14.671  23.727  0.00  0.00    +0.000 F 
ATOM     20  C   UNL     1      -3.038  13.870  23.430  0.00  0.00    +0.000 A 
ATOM     21  C   UNL     1      -2.063  13.391  22.556  0.00  0.00    +0.000 A 
ATOM     22  N   UNL     1      -0.713  13.709  22.856  0.00  0.00    +0.000 N 
ATOM     23  C   UNL     1       0.221  14.219  21.946  0.00  0.00    +0.000 C 
ATOM     24  O   UNL     1       1.320  14.581  22.362  0.00  0.00    +0.000 OA
ATOM     25  C   UNL     1      -0.183  14.296  20.434  0.00  0.00    +0.000 C 
ATOM     26  C   UNL     1      -1.367  15.272  20.233  0.00  0.00    +0.000 C 
ATOM     27  H   UNL     1      -0.455  13.868  23.824  0.00  0.00    +0.000 HD
ENDROOT
BRANCH   1  28
ATOM     28  C   UNL     1       1.948  15.607  19.624  0.00  0.00    +0.000 C 
ATOM     29  O   UNL     1       3.055  15.252  20.018  0.00  0.00    +0.000 OA
BRANCH  28  30
ATOM     30  O   UNL     1       1.652  16.857  19.183  0.00  0.00    +0.000 OA
BRANCH  30  32
ATOM     31  C   UNL     1       1.018  18.108  17.234  0.00  0.00    +0.000 C 
ATOM     32  C   UNL     1       2.031  17.148  17.830  0.00  0.00    +0.000 C 
ENDBRANCH  30  32
ENDBRANCH  28  30
ENDBRANCH   1  28
BRANCH   7  33
ATOM     33  O   UNL     1       2.232   6.953  18.473  0.00  0.00    +0.000 OA
ATOM     34  C   UNL     1       2.852   6.237  19.527  0.00  0.00    +0.000 C 
ENDBRANCH   7  33
TORSDOF 4
ENDMDL
MODEL 7
REMARK VINA RESULT:      -6.3      2.798      6.945
REMARK  Name = 
REMARK  7 active torsions:
REMARK  status: ('A' for Active; 'I' for Inactive)
REMARK    1  A    between atoms: C_1  and  C_2
REMARK    2  A    between atoms: C_2  and  O_3
REMARK    3  A    between atoms: O_3  and  C_4
REMARK    4  A    between atoms: C_4  and  C_6
REMARK    5  A    between atoms: C_12  and  O_13
REMARK    6  A    between atoms: O_13  and  C_14
REMARK    7  A    between atoms: C_32  and  C_33
REMARK                            x       y       z     vdW  Elec       q    Type
REMARK                         _______ _______ _______ _____ _____    ______ ____
ROOT
ATOM      1  C   UNL     1       0.508  11.443  20.811  0.00  0.00    +0.000 C 
ATOM      2  C   UNL     1       1.224  12.693  20.250  0.00  0.00    +0.000 C 
ATOM      3  C   UNL     1       2.266  12.645  19.162  0.00  0.00    +0.000 C 
ATOM      4  O   UNL     1       2.787  13.971  18.927  0.00  0.00    +0.000 OA
ATOM      5  C   UNL     1       1.853  14.971  18.797  0.00  0.00    +0.000 A 
ATOM      6  C   UNL     1       2.297  16.153  18.190  0.00  0.00    +0.000 A 
ATOM      7  C   UNL     1       1.407  17.188  17.910  0.00  0.00    +0.000 A 
ATOM      8  C   UNL     1       0.058  17.025  18.237  0.00  0.00    +0.000 A 
ATOM      9  C   UNL     1      -0.383  15.855  18.862  0.00  0.00    +0.000 A 
ATOM     10  C   UNL     1       0.521  14.845  19.216  0.00  0.00    +0.000 A 
ATOM     11  C   UNL     1       0.070  13.552  19.797  0.00  0.00    +0.000 C 
ATOM     12  N   UNL     1      -0.794  13.386  20.964  0.00  0.00    +0.000 N 
ATOM     13  C   UNL     1      -1.485  14.355  21.634  0.00  0.00    +0.000 C 
ATOM     14  O   UNL     1      -1.236  15.550  21.641  0.00  0.00    +0.000 OA
ATOM     15  C   UNL     1      -2.639  13.879  22.404  0.00  0.00    +0.000 A 
ATOM     16  C   UNL     1      -2.699  14.191  23.766  0.00  0.00    +0.000 A 
ATOM     17  C   UNL     1      -3.771  13.724  24.516  0.00  0.00    +0.000 A 
ATOM     18  C   UNL     1      -4.830  13.088  23.869  0.00  0.00    +0.000 A 
ATOM     19  F   UNL     1      -5.875  12.667  24.591  0.00  0.00    +0.000 F 
ATOM     20  C   UNL     1      -4.785  12.793  22.505  0.00  0.00    +0.000 A 
ATOM     21  C   UNL     1      -3.615  13.067  21.798  0.00  0.00    +0.000 A 
ATOM     22  N   UNL     1      -3.382  12.314  20.618  0.00  0.00    +0.000 N 
ATOM     23  C   UNL     1      -2.182  11.672  20.289  0.00  0.00    +0.000 C 
ATOM     24  O   UNL     1      -2.150  10.940  19.302  0.00  0.00    +0.000 OA
ATOM     25  C   UNL     1      -0.931  11.930  21.197  0.00  0.00    +0.000 C 
ATOM     26  C   UNL     1      -1.177  11.398  22.630  0.00  0.00    +0.000 C 
ATOM     27  H   UNL     1      -4.181  11.953  20.106  0.00  0.00    +0.000 HD
ENDROOT
BRANCH   1  28
ATOM     28  C   UNL     1       0.636  10.154  20.053  0.00  0.00    +0.000 C 
ATOM     29  O   UNL     1       0.451   9.053  20.564  0.00  0.00    +0.000 OA
BRANCH  28  30
ATOM     30  O   UNL     1       0.717  10.378  18.716  0.00  0.00    +0.000 OA
BRANCH  30  32
ATOM     31  C   UNL     1       2.394   8.915  17.814  0.00  0.00    +0.000 C 
ATOM     32  C   UNL     1       0.909   9.216  17.898  0.00  0.00    +0.000 C 
ENDBRANCH  30  32
ENDBRANCH  28  30
ENDBRANCH   1  28
BRANCH   7  33
ATOM     33  O   UNL     1       1.701  18.381  17.320  0.00  0.00    +0.000 OA
ATOM     34  C   UNL     1       1.103  18.631  16.059  0.00  0.00    +0.000 C 
ENDBRANCH   7  33
TORSDOF 4
ENDMDL
MODEL 8
REMARK VINA RESULT:      -6.2      3.288      6.801
REMARK  Name = 
REMARK  7 active torsions:
REMARK  status: ('A' for Active; 'I' for Inactive)
REMARK    1  A    between atoms: C_1  and  C_2
REMARK    2  A    between atoms: C_2  and  O_3
REMARK    3  A    between atoms: O_3  and  C_4
REMARK    4  A    between atoms: C_4  and  C_6
REMARK    5  A    between atoms: C_12  and  O_13
REMARK    6  A    between atoms: O_13  and  C_14
REMARK    7  A    between atoms: C_32  and  C_33
REMARK                            x       y       z     vdW  Elec       q    Type
REMARK                         _______ _______ _______ _____ _____    ______ ____
ROOT
ATOM      1  C   UNL     1      -1.582  12.406  19.270  0.00  0.00    +0.000 C 
ATOM      2  C   UNL     1      -0.728  13.644  18.913  0.00  0.00    +0.000 C 
ATOM      3  C   UNL     1      -1.124  15.060  19.245  0.00  0.00    +0.000 C 
ATOM      4  O   UNL     1      -0.148  15.978  18.706  0.00  0.00    +0.000 OA
ATOM      5  C   UNL     1       1.170  15.668  18.948  0.00  0.00    +0.000 A 
ATOM      6  C   UNL     1       2.087  16.714  18.790  0.00  0.00    +0.000 A 
ATOM      7  C   UNL     1       3.430  16.539  19.115  0.00  0.00    +0.000 A 
ATOM      8  C   UNL     1       3.849  15.301  19.611  0.00  0.00    +0.000 A 
ATOM      9  C   UNL     1       2.939  14.249  19.749  0.00  0.00    +0.000 A 
ATOM     10  C   UNL     1       1.604  14.397  19.350  0.00  0.00    +0.000 A 
ATOM     11  C   UNL     1       0.593  13.328  19.570  0.00  0.00    +0.000 C 
ATOM     12  N   UNL     1       0.710  11.932  19.157  0.00  0.00    +0.000 N 
ATOM     13  C   UNL     1       1.814  11.301  18.657  0.00  0.00    +0.000 C 
ATOM     14  O   UNL     1       2.769  11.832  18.113  0.00  0.00    +0.000 OA
ATOM     15  C   UNL     1       1.823   9.842  18.812  0.00  0.00    +0.000 A 
ATOM     16  C   UNL     1       1.993   9.057  17.667  0.00  0.00    +0.000 A 
ATOM     17  C   UNL     1       1.976   7.673  17.792  0.00  0.00    +0.000 A 
ATOM     18  C   UNL     1       1.940   7.105  19.065  0.00  0.00    +0.000 A 
ATOM     19  F   UNL     1       1.955   5.772  19.182  0.00  0.00    +0.000 F 
ATOM     20  C   UNL     1       1.792   7.885  20.213  0.00  0.00    +0.000 A 
ATOM     21  C   UNL     1       1.589   9.257  20.069  0.00  0.00    +0.000 A 
ATOM     22  N   UNL     1       0.931   9.928  21.133  0.00  0.00    +0.000 N 
ATOM     23  C   UNL     1      -0.138  10.820  20.991  0.00  0.00    +0.000 C 
ATOM     24  O   UNL     1      -0.708  11.231  22.000  0.00  0.00    +0.000 OA
ATOM     25  C   UNL     1      -0.551  11.258  19.544  0.00  0.00    +0.000 C 
ATOM     26  C   UNL     1      -1.057  10.043  18.729  0.00  0.00    +0.000 C 
ATOM     27  H   UNL     1       1.013   9.549  22.071  0.00  0.00    +0.000 HD
ENDROOT
BRANCH   1  28
ATOM     28  C   UNL     1      -2.713  12.582  20.241  0.00  0.00    +0.000 C 
ATOM     29  O   UNL     1      -2.664  13.350  21.197  0.00  0.00    +0.000 OA
BRANCH  28  30
ATOM     30  O   UNL     1      -3.850  11.999  19.779  0.00  0.00    +0.000 OA
BRANCH  30  32
ATOM     31  C   UNL     1      -5.271  11.208  18.013  0.00  0.00    +0.000 C 
ATOM     32  C   UNL     1      -3.997  11.959  18.353  0.00  0.00    +0.000 C 
ENDBRANCH  30  32
ENDBRANCH  28  30
ENDBRANCH   1  28
BRANCH   7  33
ATOM     33  O   UNL     1       4.423  17.468  19.017  0.00  0.00    +0.000 OA
ATOM     34  C   UNL     1       5.745  16.974  18.886  0.00  0.00    +0.000 C 
ENDBRANCH   7  33
TORSDOF 4
ENDMDL
MODEL 9
REMARK VINA RESULT:      -6.2      2.792      6.927
REMARK  Name = 
REMARK  7 active torsions:
REMARK  status: ('A' for Active; 'I' for Inactive)
REMARK    1  A    between atoms: C_1  and  C_2
REMARK    2  A    between atoms: C_2  and  O_3
REMARK    3  A    between atoms: O_3  and  C_4
REMARK    4  A    between atoms: C_4  and  C_6
REMARK    5  A    between atoms: C_12  and  O_13
REMARK    6  A    between atoms: O_13  and  C_14
REMARK    7  A    between atoms: C_32  and  C_33
REMARK                            x       y       z     vdW  Elec       q    Type
REMARK                         _______ _______ _______ _____ _____    ______ ____
ROOT
ATOM      1  C   UNL     1       0.594  11.742  21.052  0.00  0.00    +0.000 C 
ATOM      2  C   UNL     1       1.237  13.012  20.448  0.00  0.00    +0.000 C 
ATOM      3  C   UNL     1       2.322  12.986  19.403  0.00  0.00    +0.000 C 
ATOM      4  O   UNL     1       2.753  14.334  19.112  0.00  0.00    +0.000 OA
ATOM      5  C   UNL     1       1.753  15.252  18.894  0.00  0.00    +0.000 A 
ATOM      6  C   UNL     1       2.132  16.430  18.239  0.00  0.00    +0.000 A 
ATOM      7  C   UNL     1       1.181  17.378  17.870  0.00  0.00    +0.000 A 
ATOM      8  C   UNL     1      -0.165  17.131  18.157  0.00  0.00    +0.000 A 
ATOM      9  C   UNL     1      -0.543  15.965  18.830  0.00  0.00    +0.000 A 
ATOM     10  C   UNL     1       0.418  15.047  19.272  0.00  0.00    +0.000 A 
ATOM     11  C   UNL     1       0.042  13.756  19.907  0.00  0.00    +0.000 C 
ATOM     12  N   UNL     1      -0.853  13.586  21.050  0.00  0.00    +0.000 N 
ATOM     13  C   UNL     1      -1.640  14.534  21.640  0.00  0.00    +0.000 C 
ATOM     14  O   UNL     1      -1.481  15.744  21.589  0.00  0.00    +0.000 OA
ATOM     15  C   UNL     1      -2.786  14.013  22.394  0.00  0.00    +0.000 A 
ATOM     16  C   UNL     1      -2.922  14.391  23.734  0.00  0.00    +0.000 A 
ATOM     17  C   UNL     1      -3.986  13.884  24.470  0.00  0.00    +0.000 A 
ATOM     18  C   UNL     1      -4.968  13.136  23.821  0.00  0.00    +0.000 A 
ATOM     19  F   UNL     1      -6.007  12.676  24.528  0.00  0.00    +0.000 F 
ATOM     20  C   UNL     1      -4.848  12.774  22.479  0.00  0.00    +0.000 A 
ATOM     21  C   UNL     1      -3.674  13.098  21.800  0.00  0.00    +0.000 A 
ATOM     22  N   UNL     1      -3.339  12.304  20.673  0.00  0.00    +0.000 N 
ATOM     23  C   UNL     1      -2.083  11.739  20.422  0.00  0.00    +0.000 C 
ATOM     24  O   UNL     1      -1.958  10.960  19.479  0.00  0.00    +0.000 OA
ATOM     25  C   UNL     1      -0.891  12.138  21.359  0.00  0.00    +0.000 C 
ATOM     26  C   UNL     1      -1.154  11.666  22.810  0.00  0.00    +0.000 C 
ATOM     27  H   UNL     1      -4.088  11.857  20.153  0.00  0.00    +0.000 HD
ENDROOT
BRANCH   1  28
ATOM     28  C   UNL     1       0.847  10.429  20.372  0.00  0.00    +0.000 C 
ATOM     29  O   UNL     1       0.903  10.304  19.153  0.00  0.00    +0.000 OA
BRANCH  28  30
ATOM     30  O   UNL     1       1.253   9.487  21.262  0.00  0.00    +0.000 OA
BRANCH  30  32
ATOM     31  C   UNL     1       1.506   7.140  20.822  0.00  0.00    +0.000 C 
ATOM     32  C   UNL     1       0.542   8.241  21.222  0.00  0.00    +0.000 C 
ENDBRANCH  30  32
ENDBRANCH  28  30
ENDBRANCH   1  28
BRANCH   7  33
ATOM     33  O   UNL     1       1.408  18.558  17.225  0.00  0.00    +0.000 OA
ATOM     34  C   UNL     1       0.998  18.631  15.871  0.00  0.00    +0.000 C 
ENDBRANCH   7  33
TORSDOF 4
ENDMDL
