MODEL 1
REMARK VINA RESULT:      -8.8      0.000      0.000
REMARK  Name = 
REMARK  5 active torsions:
REMARK  status: ('A' for Active; 'I' for Inactive)
REMARK    1  A    between atoms: C_2  and  C_4
REMARK    2  A    between atoms: C_4  and  C_5
REMARK    3  A    between atoms: C_5  and  N_6
REMARK    4  A    between atoms: C_8  and  C_9
REMARK    5  A    between atoms: C_11  and  C_12
REMARK                            x       y       z     vdW  Elec       q    Type
REMARK                         _______ _______ _______ _____ _____    ______ ____
ROOT
ATOM      1  N   UNL     1       3.587   6.588  17.760  0.00  0.00    +0.000 N 
ATOM      2  C   UNL     1       3.162   7.772  18.306  0.00  0.00    +0.000 A 
ATOM      3  C   UNL     1       2.261   7.492  19.310  0.00  0.00    +0.000 A 
ATOM      4  C   UNL     1       2.183   6.080  19.417  0.00  0.00    +0.000 A 
ATOM      5  N   UNL     1       1.461   5.325  20.273  0.00  0.00    +0.000 NA
ATOM      6  C   UNL     1       1.645   4.013  20.149  0.00  0.00    +0.000 A 
ATOM      7  N   UNL     1       0.995   3.201  21.049  0.00  0.00    +0.000 N 
ATOM      8  N   UNL     1       2.427   3.410  19.242  0.00  0.00    +0.000 NA
ATOM      9  C   UNL     1       3.142   4.165  18.380  0.00  0.00    +0.000 A 
ATOM     10  C   UNL     1       3.030   5.539  18.457  0.00  0.00    +0.000 A 
ATOM     11  H   UNL     1       0.220   3.642  21.520  0.00  0.00    +0.000 HD
ATOM     12  H   UNL     1       0.944   2.235  20.768  0.00  0.00    +0.000 HD
ENDROOT
BRANCH   3  13
ATOM     13  C   UNL     1       1.587   8.535  20.052  0.00  0.00    +0.000 A 
ATOM     14  C   UNL     1       1.613   9.850  19.575  0.00  0.00    +0.000 A 
ATOM     15  C   UNL     1       0.954  10.882  20.247  0.00  0.00    +0.000 A 
ATOM     16  C   UNL     1       0.265  10.536  21.420  0.00  0.00    +0.000 A 
ATOM     17  N   UNL     1      -0.500  11.274  22.291  0.00  0.00    +0.000 N 
ATOM     18  N   UNL     1      -0.989  10.576  23.329  0.00  0.00    +0.000 NA
ATOM     19  C   UNL     1      -0.550   9.334  23.094  0.00  0.00    +0.000 A 
ATOM     20  C   UNL     1       0.230   9.243  21.922  0.00  0.00    +0.000 A 
ATOM     21  C   UNL     1       0.891   8.219  21.229  0.00  0.00    +0.000 A 
ATOM     22  H   UNL     1      -0.712  12.264  22.226  0.00  0.00    +0.000 HD
BRANCH  15  23
ATOM     23  C   UNL     1       0.924  12.250  19.745  0.00  0.00    +0.000 A 
ATOM     24  C   UNL     1      -0.158  13.080  19.536  0.00  0.00    +0.000 A 
ATOM     25  C   UNL     1       0.226  14.383  19.063  0.00  0.00    +0.000 A 
ATOM     26  C   UNL     1      -0.551  15.521  18.752  0.00  0.00    +0.000 A 
ATOM     27  C   UNL     1       0.066  16.699  18.319  0.00  0.00    +0.000 A 
ATOM     28  C   UNL     1       1.447  16.765  18.192  0.00  0.00    +0.000 A 
ATOM     29  C   UNL     1       2.237  15.659  18.489  0.00  0.00    +0.000 A 
ATOM     30  C   UNL     1       1.607  14.481  18.919  0.00  0.00    +0.000 A 
ATOM     31  S   UNL     1       2.384  13.025  19.312  0.00  0.00    +0.000 S 
ENDBRANCH  15  23
ENDBRANCH   3  13
BRANCH   1  32
ATOM     32  C   UNL     1       4.493   6.501  16.623  0.00  0.00    +0.000 C 
BRANCH  32  33
ATOM     33  C   UNL     1       5.964   6.601  17.033  0.00  0.00    +0.000 C 
BRANCH  33  35
ATOM     34  N   UNL     1       6.653   4.301  17.118  0.00  0.00    +0.000 N 
ATOM     35  C   UNL     1       6.777   5.484  16.464  0.00  0.00    +0.000 C 
ATOM     36  O   UNL     1       7.504   5.595  15.473  0.00  0.00    +0.000 OA
ATOM     37  H   UNL     1       7.166   3.504  16.764  0.00  0.00    +0.000 HD
ATOM     38  H   UNL     1       6.062   4.171  17.930  0.00  0.00    +0.000 HD
ENDBRANCH  33  35
ENDBRANCH  32  33
ENDBRANCH   1  32
TORSDOF 5
ENDMDL
MODEL 2
REMARK VINA RESULT:      -8.7      3.233      8.554
REMARK  Name = 
REMARK  5 active torsions:
REMARK  status: ('A' for Active; 'I' for Inactive)
REMARK    1  A    between atoms: C_2  and  C_4
REMARK    2  A    between atoms: C_4  and  C_5
REMARK    3  A    between atoms: C_5  and  N_6
REMARK    4  A    between atoms: C_8  and  C_9
REMARK    5  A    between atoms: C_11  and  C_12
REMARK                            x       y       z     vdW  Elec       q    Type
REMARK                         _______ _______ _______ _____ _____    ______ ____
ROOT
ATOM      1  N   UNL     1       0.814  10.627  19.185  0.00  0.00    +0.000 N 
ATOM      2  C   UNL     1       1.321   9.437  18.729  0.00  0.00    +0.000 A 
ATOM      3  C   UNL     1       1.447   8.577  19.798  0.00  0.00    +0.000 A 
ATOM      4  C   UNL     1       0.939   9.253  20.937  0.00  0.00    +0.000 A 
ATOM      5  N   UNL     1       0.820   8.815  22.209  0.00  0.00    +0.000 NA
ATOM      6  C   UNL     1       0.254   9.682  23.045  0.00  0.00    +0.000 A 
ATOM      7  N   UNL     1       0.035   9.258  24.335  0.00  0.00    +0.000 N 
ATOM      8  N   UNL     1      -0.149  10.924  22.738  0.00  0.00    +0.000 NA
ATOM      9  C   UNL     1      -0.022  11.364  21.467  0.00  0.00    +0.000 A 
ATOM     10  C   UNL     1       0.534  10.518  20.528  0.00  0.00    +0.000 A 
ATOM     11  H   UNL     1       0.584   8.456  24.605  0.00  0.00    +0.000 HD
ATOM     12  H   UNL     1      -0.142  10.004  24.988  0.00  0.00    +0.000 HD
ENDROOT
BRANCH   3  13
ATOM     13  C   UNL     1       2.004   7.250  19.657  0.00  0.00    +0.000 A 
ATOM     14  C   UNL     1       2.811   6.953  18.552  0.00  0.00    +0.000 A 
ATOM     15  C   UNL     1       3.389   5.692  18.391  0.00  0.00    +0.000 A 
ATOM     16  C   UNL     1       3.124   4.741  19.388  0.00  0.00    +0.000 A 
ATOM     17  N   UNL     1       3.547   3.445  19.561  0.00  0.00    +0.000 N 
ATOM     18  N   UNL     1       3.053   2.841  20.654  0.00  0.00    +0.000 NA
ATOM     19  C   UNL     1       2.314   3.799  21.223  0.00  0.00    +0.000 A 
ATOM     20  C   UNL     1       2.321   5.004  20.489  0.00  0.00    +0.000 A 
ATOM     21  C   UNL     1       1.755   6.278  20.637  0.00  0.00    +0.000 A 
ATOM     22  H   UNL     1       4.169   2.922  18.953  0.00  0.00    +0.000 HD
BRANCH  15  23
ATOM     23  C   UNL     1       4.273   5.373  17.277  0.00  0.00    +0.000 A 
ATOM     24  C   UNL     1       4.118   4.430  16.281  0.00  0.00    +0.000 A 
ATOM     25  C   UNL     1       5.197   4.444  15.331  0.00  0.00    +0.000 A 
ATOM     26  C   UNL     1       5.415   3.674  14.167  0.00  0.00    +0.000 A 
ATOM     27  C   UNL     1       6.554   3.889  13.383  0.00  0.00    +0.000 A 
ATOM     28  C   UNL     1       7.480   4.860  13.738  0.00  0.00    +0.000 A 
ATOM     29  C   UNL     1       7.292   5.631  14.881  0.00  0.00    +0.000 A 
ATOM     30  C   UNL     1       6.149   5.405  15.661  0.00  0.00    +0.000 A 
ATOM     31  S   UNL     1       5.746   6.221  17.093  0.00  0.00    +0.000 S 
ENDBRANCH  15  23
ENDBRANCH   3  13
BRANCH   1  32
ATOM     32  C   UNL     1       0.614  11.798  18.341  0.00  0.00    +0.000 C 
BRANCH  32  33
ATOM     33  C   UNL     1      -0.818  12.333  18.406  0.00  0.00    +0.000 C 
BRANCH  33  35
ATOM     34  N   UNL     1      -2.055  11.652  16.462  0.00  0.00    +0.000 N 
ATOM     35  C   UNL     1      -1.791  11.395  17.768  0.00  0.00    +0.000 C 
ATOM     36  O   UNL     1      -2.319  10.445  18.353  0.00  0.00    +0.000 OA
ATOM     37  H   UNL     1      -2.692  11.036  15.973  0.00  0.00    +0.000 HD
ATOM     38  H   UNL     1      -1.636  12.418  15.948  0.00  0.00    +0.000 HD
ENDBRANCH  33  35
ENDBRANCH  32  33
ENDBRANCH   1  32
TORSDOF 5
ENDMDL
MODEL 3
REMARK VINA RESULT:      -8.7      0.582      1.062
REMARK  Name = 
REMARK  5 active torsions:
REMARK  status: ('A' for Active; 'I' for Inactive)
REMARK    1  A    between atoms: C_2  and  C_4
REMARK    2  A    between atoms: C_4  and  C_5
REMARK    3  A    between atoms: C_5  and  N_6
REMARK    4  A    between atoms: C_8  and  C_9
REMARK    5  A    between atoms: C_11  and  C_12
REMARK                            x       y       z     vdW  Elec       q    Type
REMARK                         _______ _______ _______ _____ _____    ______ ____
ROOT
ATOM      1  N   UNL     1       3.610   6.571  17.728  0.00  0.00    +0.000 N 
ATOM      2  C   UNL     1       3.200   7.748  18.300  0.00  0.00    +0.000 A 
ATOM      3  C   UNL     1       2.285   7.458  19.289  0.00  0.00    +0.000 A 
ATOM      4  C   UNL     1       2.182   6.045  19.358  0.00  0.00    +0.000 A 
ATOM      5  N   UNL     1       1.439   5.281  20.189  0.00  0.00    +0.000 NA
ATOM      6  C   UNL     1       1.602   3.970  20.032  0.00  0.00    +0.000 A 
ATOM      7  N   UNL     1       0.930   3.146  20.906  0.00  0.00    +0.000 N 
ATOM      8  N   UNL     1       2.382   3.376  19.118  0.00  0.00    +0.000 NA
ATOM      9  C   UNL     1       3.118   4.142  18.281  0.00  0.00    +0.000 A 
ATOM     10  C   UNL     1       3.029   5.514  18.393  0.00  0.00    +0.000 A 
ATOM     11  H   UNL     1       0.158   3.588  21.380  0.00  0.00    +0.000 HD
ATOM     12  H   UNL     1       0.866   2.189  20.599  0.00  0.00    +0.000 HD
ENDROOT
BRANCH   3  13
ATOM     13  C   UNL     1       1.622   8.493  20.051  0.00  0.00    +0.000 A 
ATOM     14  C   UNL     1       1.686   9.821  19.615  0.00  0.00    +0.000 A 
ATOM     15  C   UNL     1       1.038  10.847  20.308  0.00  0.00    +0.000 A 
ATOM     16  C   UNL     1       0.322  10.482  21.458  0.00  0.00    +0.000 A 
ATOM     17  N   UNL     1      -0.441  11.210  22.339  0.00  0.00    +0.000 N 
ATOM     18  N   UNL     1      -0.963  10.492  23.346  0.00  0.00    +0.000 NA
ATOM     19  C   UNL     1      -0.549   9.249  23.081  0.00  0.00    +0.000 A 
ATOM     20  C   UNL     1       0.249   9.175  21.919  0.00  0.00    +0.000 A 
ATOM     21  C   UNL     1       0.899   8.158  21.206  0.00  0.00    +0.000 A 
ATOM     22  H   UNL     1      -0.629  12.207  22.300  0.00  0.00    +0.000 HD
BRANCH  15  23
ATOM     23  C   UNL     1       1.048  12.230  19.847  0.00  0.00    +0.000 A 
ATOM     24  C   UNL     1       2.122  13.050  19.566  0.00  0.00    +0.000 A 
ATOM     25  C   UNL     1       1.721  14.347  19.095  0.00  0.00    +0.000 A 
ATOM     26  C   UNL     1       2.487  15.460  18.681  0.00  0.00    +0.000 A 
ATOM     27  C   UNL     1       1.854  16.627  18.240  0.00  0.00    +0.000 A 
ATOM     28  C   UNL     1       0.468  16.706  18.204  0.00  0.00    +0.000 A 
ATOM     29  C   UNL     1      -0.311  15.627  18.609  0.00  0.00    +0.000 A 
ATOM     30  C   UNL     1       0.334  14.463  19.052  0.00  0.00    +0.000 A 
ATOM     31  S   UNL     1      -0.430  13.051  19.602  0.00  0.00    +0.000 S 
ENDBRANCH  15  23
ENDBRANCH   3  13
BRANCH   1  32
ATOM     32  C   UNL     1       4.525   6.497  16.596  0.00  0.00    +0.000 C 
BRANCH  32  33
ATOM     33  C   UNL     1       5.993   6.560  17.023  0.00  0.00    +0.000 C 
BRANCH  33  35
ATOM     34  N   UNL     1       6.695   4.263  17.088  0.00  0.00    +0.000 N 
ATOM     35  C   UNL     1       6.792   5.446  16.429  0.00  0.00    +0.000 C 
ATOM     36  O   UNL     1       7.486   5.558  15.414  0.00  0.00    +0.000 OA
ATOM     37  H   UNL     1       7.200   3.467  16.719  0.00  0.00    +0.000 HD
ATOM     38  H   UNL     1       6.132   4.132  17.920  0.00  0.00    +0.000 HD
ENDBRANCH  33  35
ENDBRANCH  32  33
ENDBRANCH   1  32
TORSDOF 5
ENDMDL
MODEL 4
REMARK VINA RESULT:      -8.4      3.028      8.468
REMARK  Name = 
REMARK  5 active torsions:
REMARK  status: ('A' for Active; 'I' for Inactive)
REMARK    1  A    between atoms: C_2  and  C_4
REMARK    2  A    between atoms: C_4  and  C_5
REMARK    3  A    between atoms: C_5  and  N_6
REMARK    4  A    between atoms: C_8  and  C_9
REMARK    5  A    between atoms: C_11  and  C_12
REMARK                            x       y       z     vdW  Elec       q    Type
REMARK                         _______ _______ _______ _____ _____    ______ ____
ROOT
ATOM      1  N   UNL     1       1.127  10.772  19.138  0.00  0.00    +0.000 N 
ATOM      2  C   UNL     1       1.619   9.577  18.679  0.00  0.00    +0.000 A 
ATOM      3  C   UNL     1       1.609   8.671  19.718  0.00  0.00    +0.000 A 
ATOM      4  C   UNL     1       1.031   9.327  20.834  0.00  0.00    +0.000 A 
ATOM      5  N   UNL     1       0.778   8.847  22.072  0.00  0.00    +0.000 NA
ATOM      6  C   UNL     1       0.178   9.708  22.890  0.00  0.00    +0.000 A 
ATOM      7  N   UNL     1      -0.176   9.245  24.137  0.00  0.00    +0.000 N 
ATOM      8  N   UNL     1      -0.139  10.978  22.602  0.00  0.00    +0.000 NA
ATOM      9  C   UNL     1       0.122  11.461  21.367  0.00  0.00    +0.000 A 
ATOM     10  C   UNL     1       0.722  10.625  20.446  0.00  0.00    +0.000 A 
ATOM     11  H   UNL     1       0.310   8.408  24.420  0.00  0.00    +0.000 HD
ATOM     12  H   UNL     1      -0.377   9.974  24.802  0.00  0.00    +0.000 HD
ENDROOT
BRANCH   3  13
ATOM     13  C   UNL     1       2.117   7.325  19.570  0.00  0.00    +0.000 A 
ATOM     14  C   UNL     1       2.912   7.004  18.464  0.00  0.00    +0.000 A 
ATOM     15  C   UNL     1       3.444   5.723  18.297  0.00  0.00    +0.000 A 
ATOM     16  C   UNL     1       3.143   4.777  19.289  0.00  0.00    +0.000 A 
ATOM     17  N   UNL     1       3.517   3.466  19.456  0.00  0.00    +0.000 N 
ATOM     18  N   UNL     1       3.000   2.875  20.546  0.00  0.00    +0.000 NA
ATOM     19  C   UNL     1       2.297   3.857  21.119  0.00  0.00    +0.000 A 
ATOM     20  C   UNL     1       2.350   5.065  20.391  0.00  0.00    +0.000 A 
ATOM     21  C   UNL     1       1.831   6.358  20.545  0.00  0.00    +0.000 A 
ATOM     22  H   UNL     1       4.119   2.923  18.846  0.00  0.00    +0.000 HD
BRANCH  15  23
ATOM     23  C   UNL     1       4.315   5.377  17.182  0.00  0.00    +0.000 A 
ATOM     24  C   UNL     1       4.130   4.439  16.186  0.00  0.00    +0.000 A 
ATOM     25  C   UNL     1       5.207   4.420  15.234  0.00  0.00    +0.000 A 
ATOM     26  C   UNL     1       5.400   3.643  14.070  0.00  0.00    +0.000 A 
ATOM     27  C   UNL     1       6.544   3.823  13.284  0.00  0.00    +0.000 A 
ATOM     28  C   UNL     1       7.500   4.765  13.638  0.00  0.00    +0.000 A 
ATOM     29  C   UNL     1       7.338   5.542  14.781  0.00  0.00    +0.000 A 
ATOM     30  C   UNL     1       6.189   5.351  15.563  0.00  0.00    +0.000 A 
ATOM     31  S   UNL     1       5.813   6.179  16.995  0.00  0.00    +0.000 S 
ENDBRANCH  15  23
ENDBRANCH   3  13
BRANCH   1  32
ATOM     32  C   UNL     1       1.058  11.982  18.330  0.00  0.00    +0.000 C 
BRANCH  32  33
ATOM     33  C   UNL     1       2.412  12.681  18.200  0.00  0.00    +0.000 C 
BRANCH  33  35
ATOM     34  N   UNL     1       2.365  15.017  18.762  0.00  0.00    +0.000 N 
ATOM     35  C   UNL     1       2.582  13.759  19.222  0.00  0.00    +0.000 C 
ATOM     36  O   UNL     1       2.884  13.551  20.400  0.00  0.00    +0.000 OA
ATOM     37  H   UNL     1       2.447  15.786  19.416  0.00  0.00    +0.000 HD
ATOM     38  H   UNL     1       2.111  15.225  17.804  0.00  0.00    +0.000 HD
ENDBRANCH  33  35
ENDBRANCH  32  33
ENDBRANCH   1  32
TORSDOF 5
ENDMDL
MODEL 5
REMARK VINA RESULT:      -8.3      5.330      9.838
REMARK  Name = 
REMARK  5 active torsions:
REMARK  status: ('A' for Active; 'I' for Inactive)
REMARK    1  A    between atoms: C_2  and  C_4
REMARK    2  A    between atoms: C_4  and  C_5
REMARK    3  A    between atoms: C_5  and  N_6
REMARK    4  A    between atoms: C_8  and  C_9
REMARK    5  A    between atoms: C_11  and  C_12
REMARK                            x       y       z     vdW  Elec       q    Type
REMARK                         _______ _______ _______ _____ _____    ______ ____
ROOT
ATOM      1  N   UNL     1      -5.410  13.321  20.949  0.00  0.00    +0.000 N 
ATOM      2  C   UNL     1      -4.092  13.426  21.316  0.00  0.00    +0.000 A 
ATOM      3  C   UNL     1      -3.321  12.796  20.363  0.00  0.00    +0.000 A 
ATOM      4  C   UNL     1      -4.203  12.344  19.348  0.00  0.00    +0.000 A 
ATOM      5  N   UNL     1      -3.921  11.700  18.195  0.00  0.00    +0.000 NA
ATOM      6  C   UNL     1      -4.976  11.453  17.423  0.00  0.00    +0.000 A 
ATOM      7  N   UNL     1      -4.736  10.870  16.200  0.00  0.00    +0.000 N 
ATOM      8  N   UNL     1      -6.252  11.744  17.716  0.00  0.00    +0.000 NA
ATOM      9  C   UNL     1      -6.534  12.381  18.875  0.00  0.00    +0.000 A 
ATOM     10  C   UNL     1      -5.493  12.699  19.723  0.00  0.00    +0.000 A 
ATOM     11  H   UNL     1      -3.838  10.418  16.127  0.00  0.00    +0.000 HD
ATOM     12  H   UNL     1      -5.553  10.466  15.772  0.00  0.00    +0.000 HD
ENDROOT
BRANCH   3  13
ATOM     13  C   UNL     1      -1.885  12.686  20.486  0.00  0.00    +0.000 A 
ATOM     14  C   UNL     1      -1.251  11.487  20.140  0.00  0.00    +0.000 A 
ATOM     15  C   UNL     1       0.136  11.347  20.220  0.00  0.00    +0.000 A 
ATOM     16  C   UNL     1       0.862  12.465  20.661  0.00  0.00    +0.000 A 
ATOM     17  N   UNL     1       2.209  12.683  20.822  0.00  0.00    +0.000 N 
ATOM     18  N   UNL     1       2.521  13.902  21.291  0.00  0.00    +0.000 NA
ATOM     19  C   UNL     1       1.330  14.500  21.400  0.00  0.00    +0.000 A 
ATOM     20  C   UNL     1       0.260  13.662  21.019  0.00  0.00    +0.000 A 
ATOM     21  C   UNL     1      -1.133  13.786  20.925  0.00  0.00    +0.000 A 
ATOM     22  H   UNL     1       2.959  12.026  20.634  0.00  0.00    +0.000 HD
BRANCH  15  23
ATOM     23  C   UNL     1       0.825  10.127  19.818  0.00  0.00    +0.000 A 
ATOM     24  C   UNL     1       1.447   9.827  18.623  0.00  0.00    +0.000 A 
ATOM     25  C   UNL     1       2.051   8.522  18.625  0.00  0.00    +0.000 A 
ATOM     26  C   UNL     1       2.794   7.845  17.632  0.00  0.00    +0.000 A 
ATOM     27  C   UNL     1       3.301   6.565  17.881  0.00  0.00    +0.000 A 
ATOM     28  C   UNL     1       3.082   5.947  19.106  0.00  0.00    +0.000 A 
ATOM     29  C   UNL     1       2.352   6.589  20.101  0.00  0.00    +0.000 A 
ATOM     30  C   UNL     1       1.846   7.871  19.839  0.00  0.00    +0.000 A 
ATOM     31  S   UNL     1       0.921   8.811  20.906  0.00  0.00    +0.000 S 
ENDBRANCH  15  23
ENDBRANCH   3  13
BRANCH   1  32
ATOM     32  C   UNL     1      -6.517  13.812  21.759  0.00  0.00    +0.000 C 
BRANCH  32  33
ATOM     33  C   UNL     1      -7.512  12.709  22.125  0.00  0.00    +0.000 C 
BRANCH  33  35
ATOM     34  N   UNL     1      -7.329  13.415  24.415  0.00  0.00    +0.000 N 
ATOM     35  C   UNL     1      -7.440  12.355  23.575  0.00  0.00    +0.000 C 
ATOM     36  O   UNL     1      -7.485  11.199  24.005  0.00  0.00    +0.000 OA
ATOM     37  H   UNL     1      -7.296  13.235  25.410  0.00  0.00    +0.000 HD
ATOM     38  H   UNL     1      -7.295  14.377  24.098  0.00  0.00    +0.000 HD
ENDBRANCH  33  35
ENDBRANCH  32  33
ENDBRANCH   1  32
TORSDOF 5
ENDMDL
MODEL 6
REMARK VINA RESULT:      -8.3      3.350      5.170
REMARK  Name = 
REMARK  5 active torsions:
REMARK  status: ('A' for Active; 'I' for Inactive)
REMARK    1  A    between atoms: C_2  and  C_4
REMARK    2  A    between atoms: C_4  and  C_5
REMARK    3  A    between atoms: C_5  and  N_6
REMARK    4  A    between atoms: C_8  and  C_9
REMARK    5  A    between atoms: C_11  and  C_12
REMARK                            x       y       z     vdW  Elec       q    Type
REMARK                         _______ _______ _______ _____ _____    ______ ____
ROOT
ATOM      1  N   UNL     1       2.347   5.783  19.717  0.00  0.00    +0.000 N 
ATOM      2  C   UNL     1       1.666   6.972  19.765  0.00  0.00    +0.000 A 
ATOM      3  C   UNL     1       2.174   7.807  18.794  0.00  0.00    +0.000 A 
ATOM      4  C   UNL     1       3.161   7.072  18.090  0.00  0.00    +0.000 A 
ATOM      5  N   UNL     1       3.917   7.448  17.035  0.00  0.00    +0.000 NA
ATOM      6  C   UNL     1       4.727   6.502  16.566  0.00  0.00    +0.000 A 
ATOM      7  N   UNL     1       5.460   6.805  15.442  0.00  0.00    +0.000 N 
ATOM      8  N   UNL     1       4.874   5.270  17.072  0.00  0.00    +0.000 NA
ATOM      9  C   UNL     1       4.124   4.898  18.134  0.00  0.00    +0.000 A 
ATOM     10  C   UNL     1       3.238   5.811  18.668  0.00  0.00    +0.000 A 
ATOM     11  H   UNL     1       5.543   7.792  15.257  0.00  0.00    +0.000 HD
ATOM     12  H   UNL     1       6.235   6.183  15.279  0.00  0.00    +0.000 HD
ENDROOT
BRANCH   3  13
ATOM     13  C   UNL     1       1.700   9.163  18.620  0.00  0.00    +0.000 A 
ATOM     14  C   UNL     1       0.325   9.421  18.632  0.00  0.00    +0.000 A 
ATOM     15  C   UNL     1      -0.173  10.719  18.493  0.00  0.00    +0.000 A 
ATOM     16  C   UNL     1       0.770  11.748  18.342  0.00  0.00    +0.000 A 
ATOM     17  N   UNL     1       0.636  13.110  18.218  0.00  0.00    +0.000 N 
ATOM     18  N   UNL     1       1.796  13.771  18.074  0.00  0.00    +0.000 NA
ATOM     19  C   UNL     1       2.711  12.798  18.147  0.00  0.00    +0.000 A 
ATOM     20  C   UNL     1       2.138  11.520  18.318  0.00  0.00    +0.000 A 
ATOM     21  C   UNL     1       2.619  10.212  18.467  0.00  0.00    +0.000 A 
ATOM     22  H   UNL     1      -0.231  13.638  18.215  0.00  0.00    +0.000 HD
BRANCH  15  23
ATOM     23  C   UNL     1      -1.598  11.021  18.551  0.00  0.00    +0.000 A 
ATOM     24  C   UNL     1      -2.289  11.805  19.453  0.00  0.00    +0.000 A 
ATOM     25  C   UNL     1      -3.692  11.891  19.152  0.00  0.00    +0.000 A 
ATOM     26  C   UNL     1      -4.735  12.595  19.794  0.00  0.00    +0.000 A 
ATOM     27  C   UNL     1      -6.040  12.534  19.293  0.00  0.00    +0.000 A 
ATOM     28  C   UNL     1      -6.324  11.783  18.160  0.00  0.00    +0.000 A 
ATOM     29  C   UNL     1      -5.317  11.077  17.509  0.00  0.00    +0.000 A 
ATOM     30  C   UNL     1      -4.013  11.143  18.022  0.00  0.00    +0.000 A 
ATOM     31  S   UNL     1      -2.656  10.347  17.390  0.00  0.00    +0.000 S 
ENDBRANCH  15  23
ENDBRANCH   3  13
BRANCH   1  32
ATOM     32  C   UNL     1       2.124   4.685  20.648  0.00  0.00    +0.000 C 
BRANCH  32  33
ATOM     33  C   UNL     1       0.917   3.825  20.266  0.00  0.00    +0.000 C 
BRANCH  33  35
ATOM     34  N   UNL     1       1.783   1.815  19.275  0.00  0.00    +0.000 N 
ATOM     35  C   UNL     1       1.182   3.009  19.043  0.00  0.00    +0.000 C 
ATOM     36  O   UNL     1       0.878   3.362  17.899  0.00  0.00    +0.000 OA
ATOM     37  H   UNL     1       1.968   1.211  18.484  0.00  0.00    +0.000 HD
ATOM     38  H   UNL     1       2.041   1.490  20.199  0.00  0.00    +0.000 HD
ENDBRANCH  33  35
ENDBRANCH  32  33
ENDBRANCH   1  32
TORSDOF 5
ENDMDL
MODEL 7
REMARK VINA RESULT:      -8.2      2.463      2.693
REMARK  Name = 
REMARK  5 active torsions:
REMARK  status: ('A' for Active; 'I' for Inactive)
REMARK    1  A    between atoms: C_2  and  C_4
REMARK    2  A    between atoms: C_4  and  C_5
REMARK    3  A    between atoms: C_5  and  N_6
REMARK    4  A    between atoms: C_8  and  C_9
REMARK    5  A    between atoms: C_11  and  C_12
REMARK                            x       y       z     vdW  Elec       q    Type
REMARK                         _______ _______ _______ _____ _____    ______ ____
ROOT
ATOM      1  N   UNL     1       4.563   6.579  17.288  0.00  0.00    +0.000 N 
ATOM      2  C   UNL     1       3.933   7.794  17.208  0.00  0.00    +0.000 A 
ATOM      3  C   UNL     1       2.802   7.754  17.993  0.00  0.00    +0.000 A 
ATOM      4  C   UNL     1       2.778   6.483  18.623  0.00  0.00    +0.000 A 
ATOM      5  N   UNL     1       1.887   5.983  19.507  0.00  0.00    +0.000 NA
ATOM      6  C   UNL     1       2.174   4.763  19.954  0.00  0.00    +0.000 A 
ATOM      7  N   UNL     1       1.343   4.237  20.917  0.00  0.00    +0.000 N 
ATOM      8  N   UNL     1       3.215   4.008  19.573  0.00  0.00    +0.000 NA
ATOM      9  C   UNL     1       4.101   4.506  18.682  0.00  0.00    +0.000 A 
ATOM     10  C   UNL     1       3.892   5.777  18.185  0.00  0.00    +0.000 A 
ATOM     11  H   UNL     1       0.443   4.686  20.976  0.00  0.00    +0.000 HD
ATOM     12  H   UNL     1       1.431   3.240  21.033  0.00  0.00    +0.000 HD
ENDROOT
BRANCH   3  13
ATOM     13  C   UNL     1       1.886   8.870  18.082  0.00  0.00    +0.000 A 
ATOM     14  C   UNL     1       2.359  10.120  18.496  0.00  0.00    +0.000 A 
ATOM     15  C   UNL     1       1.514  11.230  18.571  0.00  0.00    +0.000 A 
ATOM     16  C   UNL     1       0.172  11.031  18.211  0.00  0.00    +0.000 A 
ATOM     17  N   UNL     1      -0.900  11.888  18.137  0.00  0.00    +0.000 N 
ATOM     18  N   UNL     1      -2.050  11.308  17.760  0.00  0.00    +0.000 NA
ATOM     19  C   UNL     1      -1.694  10.036  17.548  0.00  0.00    +0.000 A 
ATOM     20  C   UNL     1      -0.326   9.801  17.806  0.00  0.00    +0.000 A 
ATOM     21  C   UNL     1       0.539   8.701  17.730  0.00  0.00    +0.000 A 
ATOM     22  H   UNL     1      -0.899  12.882  18.344  0.00  0.00    +0.000 HD
BRANCH  15  23
ATOM     23  C   UNL     1       1.991  12.554  18.952  0.00  0.00    +0.000 A 
ATOM     24  C   UNL     1       2.668  13.489  18.196  0.00  0.00    +0.000 A 
ATOM     25  C   UNL     1       2.935  14.701  18.921  0.00  0.00    +0.000 A 
ATOM     26  C   UNL     1       3.571  15.898  18.522  0.00  0.00    +0.000 A 
ATOM     27  C   UNL     1       3.697  16.963  19.421  0.00  0.00    +0.000 A 
ATOM     28  C   UNL     1       3.197  16.857  20.713  0.00  0.00    +0.000 A 
ATOM     29  C   UNL     1       2.569  15.689  21.133  0.00  0.00    +0.000 A 
ATOM     30  C   UNL     1       2.451  14.627  20.225  0.00  0.00    +0.000 A 
ATOM     31  S   UNL     1       1.739  13.120  20.544  0.00  0.00    +0.000 S 
ENDBRANCH  15  23
ENDBRANCH   3  13
BRANCH   1  32
ATOM     32  C   UNL     1       5.757   6.235  16.529  0.00  0.00    +0.000 C 
BRANCH  32  33
ATOM     33  C   UNL     1       7.048   6.545  17.290  0.00  0.00    +0.000 C 
BRANCH  33  35
ATOM     34  N   UNL     1       7.899   4.299  17.236  0.00  0.00    +0.000 N 
ATOM     35  C   UNL     1       7.561   5.350  18.026  0.00  0.00    +0.000 C 
ATOM     36  O   UNL     1       7.688   5.297  19.252  0.00  0.00    +0.000 OA
ATOM     37  H   UNL     1       8.272   3.469  17.680  0.00  0.00    +0.000 HD
ATOM     38  H   UNL     1       7.814   4.309  16.227  0.00  0.00    +0.000 HD
ENDBRANCH  33  35
ENDBRANCH  32  33
ENDBRANCH   1  32
TORSDOF 5
ENDMDL
MODEL 8
REMARK VINA RESULT:      -8.2      4.838      9.634
REMARK  Name = 
REMARK  5 active torsions:
REMARK  status: ('A' for Active; 'I' for Inactive)
REMARK    1  A    between atoms: C_2  and  C_4
REMARK    2  A    between atoms: C_4  and  C_5
REMARK    3  A    between atoms: C_5  and  N_6
REMARK    4  A    between atoms: C_8  and  C_9
REMARK    5  A    between atoms: C_11  and  C_12
REMARK                            x       y       z     vdW  Elec       q    Type
REMARK                         _______ _______ _______ _____ _____    ______ ____
ROOT
ATOM      1  N   UNL     1      -5.366  12.288  19.887  0.00  0.00    +0.000 N 
ATOM      2  C   UNL     1      -4.121  12.117  19.339  0.00  0.00    +0.000 A 
ATOM      3  C   UNL     1      -3.179  12.545  20.249  0.00  0.00    +0.000 A 
ATOM      4  C   UNL     1      -3.880  12.934  21.419  0.00  0.00    +0.000 A 
ATOM      5  N   UNL     1      -3.395  13.393  22.594  0.00  0.00    +0.000 NA
ATOM      6  C   UNL     1      -4.318  13.628  23.522  0.00  0.00    +0.000 A 
ATOM      7  N   UNL     1      -3.873  14.020  24.764  0.00  0.00    +0.000 N 
ATOM      8  N   UNL     1      -5.643  13.491  23.369  0.00  0.00    +0.000 NA
ATOM      9  C   UNL     1      -6.128  13.040  22.190  0.00  0.00    +0.000 A 
ATOM     10  C   UNL     1      -5.235  12.748  21.179  0.00  0.00    +0.000 A 
ATOM     11  H   UNL     1      -2.930  14.377  24.771  0.00  0.00    +0.000 HD
ATOM     12  H   UNL     1      -4.585  14.434  25.343  0.00  0.00    +0.000 HD
ENDROOT
BRANCH   3  13
ATOM     13  C   UNL     1      -1.764  12.543  19.950  0.00  0.00    +0.000 A 
ATOM     14  C   UNL     1      -1.093  11.326  19.786  0.00  0.00    +0.000 A 
ATOM     15  C   UNL     1       0.267  11.281  19.472  0.00  0.00    +0.000 A 
ATOM     16  C   UNL     1       0.926  12.512  19.329  0.00  0.00    +0.000 A 
ATOM     17  N   UNL     1       2.221  12.830  18.999  0.00  0.00    +0.000 N 
ATOM     18  N   UNL     1       2.481  14.148  18.978  0.00  0.00    +0.000 NA
ATOM     19  C   UNL     1       1.297  14.696  19.271  0.00  0.00    +0.000 A 
ATOM     20  C   UNL     1       0.289  13.733  19.495  0.00  0.00    +0.000 A 
ATOM     21  C   UNL     1      -1.078  13.759  19.802  0.00  0.00    +0.000 A 
ATOM     22  H   UNL     1       2.972  12.181  18.786  0.00  0.00    +0.000 HD
BRANCH  15  23
ATOM     23  C   UNL     1       0.977  10.028  19.247  0.00  0.00    +0.000 A 
ATOM     24  C   UNL     1       1.681   9.610  18.136  0.00  0.00    +0.000 A 
ATOM     25  C   UNL     1       2.279   8.315  18.313  0.00  0.00    +0.000 A 
ATOM     26  C   UNL     1       3.087   7.542  17.450  0.00  0.00    +0.000 A 
ATOM     27  C   UNL     1       3.571   6.296  17.864  0.00  0.00    +0.000 A 
ATOM     28  C   UNL     1       3.263   5.806  19.126  0.00  0.00    +0.000 A 
ATOM     29  C   UNL     1       2.467   6.543  19.996  0.00  0.00    +0.000 A 
ATOM     30  C   UNL     1       1.985   7.790  19.570  0.00  0.00    +0.000 A 
ATOM     31  S   UNL     1       0.991   8.831  20.467  0.00  0.00    +0.000 S 
ENDBRANCH  15  23
ENDBRANCH   3  13
BRANCH   1  32
ATOM     32  C   UNL     1      -6.608  12.008  19.179  0.00  0.00    +0.000 C 
BRANCH  32  33
ATOM     33  C   UNL     1      -7.639  11.296  20.057  0.00  0.00    +0.000 C 
BRANCH  33  35
ATOM     34  N   UNL     1      -7.614   9.310  21.409  0.00  0.00    +0.000 N 
ATOM     35  C   UNL     1      -7.345   9.837  20.187  0.00  0.00    +0.000 C 
ATOM     36  O   UNL     1      -6.903   9.138  19.271  0.00  0.00    +0.000 OA
ATOM     37  H   UNL     1      -7.453   8.320  21.548  0.00  0.00    +0.000 HD
ATOM     38  H   UNL     1      -7.983   9.851  22.182  0.00  0.00    +0.000 HD
ENDBRANCH  33  35
ENDBRANCH  32  33
ENDBRANCH   1  32
TORSDOF 5
ENDMDL
MODEL 9
REMARK VINA RESULT:      -8.2      3.401      5.280
REMARK  Name = 
REMARK  5 active torsions:
REMARK  status: ('A' for Active; 'I' for Inactive)
REMARK    1  A    between atoms: C_2  and  C_4
REMARK    2  A    between atoms: C_4  and  C_5
REMARK    3  A    between atoms: C_5  and  N_6
REMARK    4  A    between atoms: C_8  and  C_9
REMARK    5  A    between atoms: C_11  and  C_12
REMARK                            x       y       z     vdW  Elec       q    Type
REMARK                         _______ _______ _______ _____ _____    ______ ____
ROOT
ATOM      1  N   UNL     1       2.213   6.161  19.979  0.00  0.00    +0.000 N 
ATOM      2  C   UNL     1       1.547   7.360  19.995  0.00  0.00    +0.000 A 
ATOM      3  C   UNL     1       2.025   8.139  18.964  0.00  0.00    +0.000 A 
ATOM      4  C   UNL     1       2.976   7.357  18.259  0.00  0.00    +0.000 A 
ATOM      5  N   UNL     1       3.692   7.671  17.157  0.00  0.00    +0.000 NA
ATOM      6  C   UNL     1       4.473   6.692  16.705  0.00  0.00    +0.000 A 
ATOM      7  N   UNL     1       5.164   6.930  15.539  0.00  0.00    +0.000 N 
ATOM      8  N   UNL     1       4.627   5.484  17.266  0.00  0.00    +0.000 NA
ATOM      9  C   UNL     1       3.916   5.175  18.374  0.00  0.00    +0.000 A 
ATOM     10  C   UNL     1       3.061   6.126  18.895  0.00  0.00    +0.000 A 
ATOM     11  H   UNL     1       5.251   7.905  15.302  0.00  0.00    +0.000 HD
ATOM     12  H   UNL     1       5.925   6.290  15.377  0.00  0.00    +0.000 HD
ENDROOT
BRANCH   3  13
ATOM     13  C   UNL     1       1.560   9.490  18.741  0.00  0.00    +0.000 A 
ATOM     14  C   UNL     1       0.186   9.751  18.700  0.00  0.00    +0.000 A 
ATOM     15  C   UNL     1      -0.305  11.045  18.513  0.00  0.00    +0.000 A 
ATOM     16  C   UNL     1       0.644  12.069  18.369  0.00  0.00    +0.000 A 
ATOM     17  N   UNL     1       0.517  13.427  18.207  0.00  0.00    +0.000 N 
ATOM     18  N   UNL     1       1.682  14.083  18.086  0.00  0.00    +0.000 NA
ATOM     19  C   UNL     1       2.593  13.112  18.213  0.00  0.00    +0.000 A 
ATOM     20  C   UNL     1       2.012  11.839  18.396  0.00  0.00    +0.000 A 
ATOM     21  C   UNL     1       2.486  10.534  18.593  0.00  0.00    +0.000 A 
ATOM     22  H   UNL     1      -0.348  13.956  18.163  0.00  0.00    +0.000 HD
BRANCH  15  23
ATOM     23  C   UNL     1      -1.731  11.349  18.517  0.00  0.00    +0.000 A 
ATOM     24  C   UNL     1      -2.688  11.064  17.564  0.00  0.00    +0.000 A 
ATOM     25  C   UNL     1      -4.003  11.497  17.952  0.00  0.00    +0.000 A 
ATOM     26  C   UNL     1      -5.247  11.381  17.293  0.00  0.00    +0.000 A 
ATOM     27  C   UNL     1      -6.411  11.875  17.893  0.00  0.00    +0.000 A 
ATOM     28  C   UNL     1      -6.357  12.481  19.141  0.00  0.00    +0.000 A 
ATOM     29  C   UNL     1      -5.145  12.611  19.811  0.00  0.00    +0.000 A 
ATOM     30  C   UNL     1      -3.984  12.115  19.199  0.00  0.00    +0.000 A 
ATOM     31  S   UNL     1      -2.414  12.190  19.839  0.00  0.00    +0.000 S 
ENDBRANCH  15  23
ENDBRANCH   3  13
BRANCH   1  32
ATOM     32  C   UNL     1       2.015   5.113  20.972  0.00  0.00    +0.000 C 
BRANCH  32  33
ATOM     33  C   UNL     1       1.025   4.043  20.509  0.00  0.00    +0.000 C 
BRANCH  33  35
ATOM     34  N   UNL     1       1.868   2.326  21.963  0.00  0.00    +0.000 N 
ATOM     35  C   UNL     1       1.575   2.664  20.682  0.00  0.00    +0.000 C 
ATOM     36  O   UNL     1       1.751   1.870  19.753  0.00  0.00    +0.000 OA
ATOM     37  H   UNL     1       2.225   1.396  22.142  0.00  0.00    +0.000 HD
ATOM     38  H   UNL     1       1.732   2.948  22.750  0.00  0.00    +0.000 HD
ENDBRANCH  33  35
ENDBRANCH  32  33
ENDBRANCH   1  32
TORSDOF 5
ENDMDL
