MODEL 1
REMARK VINA RESULT:      -8.0      0.000      0.000
REMARK  Name = 
REMARK  15 active torsions:
REMARK  status: ('A' for Active; 'I' for Inactive)
REMARK    1  A    between atoms: C_1  and  C_2
REMARK    2  A    between atoms: C_6  and  N_7
REMARK    3  A    between atoms: C_8  and  C_10
REMARK    4  A    between atoms: C_14  and  C_15
REMARK    5  A    between atoms: N_17  and  C_18
REMARK    6  A    between atoms: C_18  and  C_19
REMARK    7  A    between atoms: C_19  and  C_20
REMARK    8  A    between atoms: C_20  and  C_21
REMARK    9  A    between atoms: C_21  and  C_22
REMARK   10  A    between atoms: C_22  and  N_23
REMARK   11  A    between atoms: C_24  and  O_26
REMARK   12  A    between atoms: O_26  and  C_27
REMARK   13  A    between atoms: C_27  and  C_28
REMARK   14  A    between atoms: C_27  and  C_29
REMARK   15  A    between atoms: C_27  and  C_30
REMARK                            x       y       z     vdW  Elec       q    Type
REMARK                         _______ _______ _______ _____ _____    ______ ____
ROOT
ATOM      1  C   UNL     1       5.284   4.399  18.942  0.00  0.00    +0.000 C 
ATOM      2  O   UNL     1       5.461   5.263  19.797  0.00  0.00    +0.000 OA
ATOM      3  N   UNL     1       6.206   4.134  17.961  0.00  0.00    +0.000 N 
ATOM      4  H   UNL     1       5.994   3.373  17.322  0.00  0.00    +0.000 HD
ENDROOT
BRANCH   1   9
ATOM      5  C   UNL     1       2.780   3.911  19.237  0.00  0.00    +0.000 A 
ATOM      6  N   UNL     1       2.056   2.758  19.000  0.00  0.00    +0.000 N 
ATOM      7  C   UNL     1       2.894   1.804  18.513  0.00  0.00    +0.000 A 
ATOM      8  N   UNL     1       4.125   2.249  18.431  0.00  0.00    +0.000 NA
ATOM      9  C   UNL     1       4.080   3.567  18.885  0.00  0.00    +0.000 A 
ATOM     10  H   UNL     1       1.061   2.671  19.159  0.00  0.00    +0.000 HD
BRANCH   5  12
ATOM     11  N   UNL     1       2.537   6.309  19.246  0.00  0.00    +0.000 N 
ATOM     12  C   UNL     1       2.104   5.097  19.729  0.00  0.00    +0.000 C 
ATOM     13  O   UNL     1       1.207   4.959  20.559  0.00  0.00    +0.000 OA
ATOM     14  H   UNL     1       3.364   6.308  18.654  0.00  0.00    +0.000 HD
BRANCH  11  20
ATOM     15  C   UNL     1       0.486   9.367  22.510  0.00  0.00    +0.000 C 
ATOM     16  C   UNL     1       0.988   9.104  21.122  0.00  0.00    +0.000 A 
ATOM     17  C   UNL     1       0.894  10.087  20.130  0.00  0.00    +0.000 A 
ATOM     18  C   UNL     1       1.353   9.827  18.840  0.00  0.00    +0.000 A 
ATOM     19  C   UNL     1       1.896   8.581  18.522  0.00  0.00    +0.000 A 
ATOM     20  C   UNL     1       1.992   7.586  19.492  0.00  0.00    +0.000 A 
ATOM     21  C   UNL     1       1.552   7.861  20.796  0.00  0.00    +0.000 A 
ENDBRANCH  11  20
ENDBRANCH   5  12
ENDBRANCH   1   9
BRANCH   3  22
ATOM     22  C   UNL     1       7.441   4.874  17.869  0.00  0.00    +0.000 C 
BRANCH  22  23
ATOM     23  C   UNL     1       7.375   5.983  16.817  0.00  0.00    +0.000 C 
BRANCH  23  24
ATOM     24  C   UNL     1       7.001   7.322  17.457  0.00  0.00    +0.000 C 
BRANCH  24  25
ATOM     25  C   UNL     1       8.208   8.039  18.068  0.00  0.00    +0.000 C 
BRANCH  25  26
ATOM     26  C   UNL     1       8.026   9.558  18.002  0.00  0.00    +0.000 C 
BRANCH  26  27
ATOM     27  N   UNL     1       9.284  10.268  18.088  0.00  0.00    +0.000 N 
ATOM     28  C   UNL     1       9.735  10.759  19.278  0.00  0.00    +0.000 C 
ATOM     29  O   UNL     1       9.128  10.634  20.332  0.00  0.00    +0.000 OA
ATOM     30  H   UNL     1       9.844  10.448  17.268  0.00  0.00    +0.000 HD
BRANCH  28  31
ATOM     31  O   UNL     1      10.925  11.392  19.114  0.00  0.00    +0.000 OA
BRANCH  31  32
ATOM     32  C   UNL     1      10.920  12.795  18.726  0.00  0.00    +0.000 C 
ATOM     33  C   UNL     1      11.215  12.960  17.228  0.00  0.00    +0.000 C 
ATOM     34  C   UNL     1       9.497  13.318  18.987  0.00  0.00    +0.000 C 
ATOM     35  C   UNL     1      11.885  13.608  19.602  0.00  0.00    +0.000 C 
ENDBRANCH  31  32
ENDBRANCH  28  31
ENDBRANCH  26  27
ENDBRANCH  25  26
ENDBRANCH  24  25
ENDBRANCH  23  24
ENDBRANCH  22  23
ENDBRANCH   3  22
TORSDOF 11
ENDMDL
MODEL 2
REMARK VINA RESULT:      -7.9      3.389      4.970
REMARK  Name = 
REMARK  15 active torsions:
REMARK  status: ('A' for Active; 'I' for Inactive)
REMARK    1  A    between atoms: C_1  and  C_2
REMARK    2  A    between atoms: C_6  and  N_7
REMARK    3  A    between atoms: C_8  and  C_10
REMARK    4  A    between atoms: C_14  and  C_15
REMARK    5  A    between atoms: N_17  and  C_18
REMARK    6  A    between atoms: C_18  and  C_19
REMARK    7  A    between atoms: C_19  and  C_20
REMARK    8  A    between atoms: C_20  and  C_21
REMARK    9  A    between atoms: C_21  and  C_22
REMARK   10  A    between atoms: C_22  and  N_23
REMARK   11  A    between atoms: C_24  and  O_26
REMARK   12  A    between atoms: O_26  and  C_27
REMARK   13  A    between atoms: C_27  and  C_28
REMARK   14  A    between atoms: C_27  and  C_29
REMARK   15  A    between atoms: C_27  and  C_30
REMARK                            x       y       z     vdW  Elec       q    Type
REMARK                         _______ _______ _______ _____ _____    ______ ____
ROOT
ATOM      1  C   UNL     1       7.448   6.289  17.410  0.00  0.00    +0.000 C 
ATOM      2  O   UNL     1       7.683   5.734  18.480  0.00  0.00    +0.000 OA
ATOM      3  N   UNL     1       7.720   7.616  17.193  0.00  0.00    +0.000 N 
ATOM      4  H   UNL     1       7.532   7.980  16.263  0.00  0.00    +0.000 HD
ENDROOT
BRANCH   1   9
ATOM      5  C   UNL     1       5.577   5.074  16.136  0.00  0.00    +0.000 A 
ATOM      6  N   UNL     1       5.566   4.523  14.869  0.00  0.00    +0.000 N 
ATOM      7  C   UNL     1       6.776   4.734  14.285  0.00  0.00    +0.000 A 
ATOM      8  N   UNL     1       7.588   5.374  15.093  0.00  0.00    +0.000 NA
ATOM      9  C   UNL     1       6.861   5.594  16.263  0.00  0.00    +0.000 A 
ATOM     10  H   UNL     1       4.767   4.055  14.462  0.00  0.00    +0.000 HD
BRANCH   5  12
ATOM     11  N   UNL     1       3.928   3.766  17.310  0.00  0.00    +0.000 N 
ATOM     12  C   UNL     1       4.384   5.015  16.958  0.00  0.00    +0.000 C 
ATOM     13  O   UNL     1       3.834   6.069  17.273  0.00  0.00    +0.000 OA
ATOM     14  H   UNL     1       4.395   2.963  16.894  0.00  0.00    +0.000 HD
BRANCH  11  20
ATOM     15  C   UNL     1       2.483   2.690  21.889  0.00  0.00    +0.000 C 
ATOM     16  C   UNL     1       2.145   2.925  20.448  0.00  0.00    +0.000 A 
ATOM     17  C   UNL     1       0.826   2.807  19.995  0.00  0.00    +0.000 A 
ATOM     18  C   UNL     1       0.525   3.015  18.651  0.00  0.00    +0.000 A 
ATOM     19  C   UNL     1       1.536   3.329  17.742  0.00  0.00    +0.000 A 
ATOM     20  C   UNL     1       2.857   3.443  18.168  0.00  0.00    +0.000 A 
ATOM     21  C   UNL     1       3.152   3.257  19.528  0.00  0.00    +0.000 A 
ENDBRANCH  11  20
ENDBRANCH   5  12
ENDBRANCH   1   9
BRANCH   3  22
ATOM     22  C   UNL     1       8.288   8.446  18.228  0.00  0.00    +0.000 C 
BRANCH  22  23
ATOM     23  C   UNL     1       8.286   9.928  17.849  0.00  0.00    +0.000 C 
BRANCH  23  24
ATOM     24  C   UNL     1       9.454  10.663  18.513  0.00  0.00    +0.000 C 
BRANCH  24  25
ATOM     25  C   UNL     1       9.650  12.076  17.959  0.00  0.00    +0.000 C 
BRANCH  25  26
ATOM     26  C   UNL     1      10.126  13.028  19.060  0.00  0.00    +0.000 C 
BRANCH  26  27
ATOM     27  N   UNL     1       9.686  12.614  20.374  0.00  0.00    +0.000 N 
ATOM     28  C   UNL     1       9.815  13.439  21.452  0.00  0.00    +0.000 C 
ATOM     29  O   UNL     1      10.295  14.562  21.387  0.00  0.00    +0.000 OA
ATOM     30  H   UNL     1       9.303  11.694  20.536  0.00  0.00    +0.000 HD
BRANCH  28  31
ATOM     31  O   UNL     1       9.346  12.837  22.575  0.00  0.00    +0.000 OA
BRANCH  31  32
ATOM     32  C   UNL     1       7.995  13.149  23.020  0.00  0.00    +0.000 C 
ATOM     33  C   UNL     1       7.211  11.872  23.355  0.00  0.00    +0.000 C 
ATOM     34  C   UNL     1       8.137  13.969  24.314  0.00  0.00    +0.000 C 
ATOM     35  C   UNL     1       7.268  14.025  21.989  0.00  0.00    +0.000 C 
ENDBRANCH  31  32
ENDBRANCH  28  31
ENDBRANCH  26  27
ENDBRANCH  25  26
ENDBRANCH  24  25
ENDBRANCH  23  24
ENDBRANCH  22  23
ENDBRANCH   3  22
TORSDOF 11
ENDMDL
MODEL 3
REMARK VINA RESULT:      -7.8      2.830      4.614
REMARK  Name = 
REMARK  15 active torsions:
REMARK  status: ('A' for Active; 'I' for Inactive)
REMARK    1  A    between atoms: C_1  and  C_2
REMARK    2  A    between atoms: C_6  and  N_7
REMARK    3  A    between atoms: C_8  and  C_10
REMARK    4  A    between atoms: C_14  and  C_15
REMARK    5  A    between atoms: N_17  and  C_18
REMARK    6  A    between atoms: C_18  and  C_19
REMARK    7  A    between atoms: C_19  and  C_20
REMARK    8  A    between atoms: C_20  and  C_21
REMARK    9  A    between atoms: C_21  and  C_22
REMARK   10  A    between atoms: C_22  and  N_23
REMARK   11  A    between atoms: C_24  and  O_26
REMARK   12  A    between atoms: O_26  and  C_27
REMARK   13  A    between atoms: C_27  and  C_28
REMARK   14  A    between atoms: C_27  and  C_29
REMARK   15  A    between atoms: C_27  and  C_30
REMARK                            x       y       z     vdW  Elec       q    Type
REMARK                         _______ _______ _______ _____ _____    ______ ____
ROOT
ATOM      1  C   UNL     1       7.479   6.175  17.364  0.00  0.00    +0.000 C 
ATOM      2  O   UNL     1       7.726   5.593  18.417  0.00  0.00    +0.000 OA
ATOM      3  N   UNL     1       7.713   7.516  17.192  0.00  0.00    +0.000 N 
ATOM      4  H   UNL     1       7.518   7.904  16.273  0.00  0.00    +0.000 HD
ENDROOT
BRANCH   1   9
ATOM      5  C   UNL     1       5.696   4.849  16.077  0.00  0.00    +0.000 A 
ATOM      6  N   UNL     1       5.684   4.391  14.773  0.00  0.00    +0.000 N 
ATOM      7  C   UNL     1       6.835   4.778  14.160  0.00  0.00    +0.000 A 
ATOM      8  N   UNL     1       7.609   5.448  14.981  0.00  0.00    +0.000 NA
ATOM      9  C   UNL     1       6.919   5.500  16.191  0.00  0.00    +0.000 A 
ATOM     10  H   UNL     1       4.923   3.865  14.364  0.00  0.00    +0.000 HD
BRANCH   5  12
ATOM     11  N   UNL     1       4.529   5.250  18.148  0.00  0.00    +0.000 N 
ATOM     12  C   UNL     1       4.556   4.596  16.938  0.00  0.00    +0.000 C 
ATOM     13  O   UNL     1       3.697   3.803  16.557  0.00  0.00    +0.000 OA
ATOM     14  H   UNL     1       5.352   5.790  18.406  0.00  0.00    +0.000 HD
BRANCH  11  20
ATOM     15  C   UNL     1       2.096   2.708  21.587  0.00  0.00    +0.000 C 
ATOM     16  C   UNL     1       2.307   3.984  20.830  0.00  0.00    +0.000 A 
ATOM     17  C   UNL     1       1.501   5.101  21.073  0.00  0.00    +0.000 A 
ATOM     18  C   UNL     1       1.697   6.279  20.354  0.00  0.00    +0.000 A 
ATOM     19  C   UNL     1       2.691   6.350  19.376  0.00  0.00    +0.000 A 
ATOM     20  C   UNL     1       3.501   5.248  19.112  0.00  0.00    +0.000 A 
ATOM     21  C   UNL     1       3.315   4.073  19.857  0.00  0.00    +0.000 A 
ENDBRANCH  11  20
ENDBRANCH   5  12
ENDBRANCH   1   9
BRANCH   3  22
ATOM     22  C   UNL     1       8.250   8.328  18.256  0.00  0.00    +0.000 C 
BRANCH  22  23
ATOM     23  C   UNL     1       8.249   9.818  17.907  0.00  0.00    +0.000 C 
BRANCH  23  24
ATOM     24  C   UNL     1       9.325  10.565  18.699  0.00  0.00    +0.000 C 
BRANCH  24  25
ATOM     25  C   UNL     1       9.580  11.974  18.158  0.00  0.00    +0.000 C 
BRANCH  25  26
ATOM     26  C   UNL     1       9.099  13.032  19.155  0.00  0.00    +0.000 C 
BRANCH  26  27
ATOM     27  N   UNL     1       8.903  12.490  20.482  0.00  0.00    +0.000 N 
ATOM     28  C   UNL     1       9.540  13.025  21.562  0.00  0.00    +0.000 C 
ATOM     29  O   UNL     1      10.301  13.979  21.492  0.00  0.00    +0.000 OA
ATOM     30  H   UNL     1       8.316  11.684  20.639  0.00  0.00    +0.000 HD
BRANCH  28  31
ATOM     31  O   UNL     1       9.212  12.350  22.694  0.00  0.00    +0.000 OA
BRANCH  31  32
ATOM     32  C   UNL     1       8.077  12.815  23.478  0.00  0.00    +0.000 C 
ATOM     33  C   UNL     1       6.840  11.936  23.242  0.00  0.00    +0.000 C 
ATOM     34  C   UNL     1       8.478  12.678  24.957  0.00  0.00    +0.000 C 
ATOM     35  C   UNL     1       7.795  14.300  23.206  0.00  0.00    +0.000 C 
ENDBRANCH  31  32
ENDBRANCH  28  31
ENDBRANCH  26  27
ENDBRANCH  25  26
ENDBRANCH  24  25
ENDBRANCH  23  24
ENDBRANCH  22  23
ENDBRANCH   3  22
TORSDOF 11
ENDMDL
MODEL 4
REMARK VINA RESULT:      -7.8      4.578      7.736
REMARK  Name = 
REMARK  15 active torsions:
REMARK  status: ('A' for Active; 'I' for Inactive)
REMARK    1  A    between atoms: C_1  and  C_2
REMARK    2  A    between atoms: C_6  and  N_7
REMARK    3  A    between atoms: C_8  and  C_10
REMARK    4  A    between atoms: C_14  and  C_15
REMARK    5  A    between atoms: N_17  and  C_18
REMARK    6  A    between atoms: C_18  and  C_19
REMARK    7  A    between atoms: C_19  and  C_20
REMARK    8  A    between atoms: C_20  and  C_21
REMARK    9  A    between atoms: C_21  and  C_22
REMARK   10  A    between atoms: C_22  and  N_23
REMARK   11  A    between atoms: C_24  and  O_26
REMARK   12  A    between atoms: O_26  and  C_27
REMARK   13  A    between atoms: C_27  and  C_28
REMARK   14  A    between atoms: C_27  and  C_29
REMARK   15  A    between atoms: C_27  and  C_30
REMARK                            x       y       z     vdW  Elec       q    Type
REMARK                         _______ _______ _______ _____ _____    ______ ____
ROOT
ATOM      1  C   UNL     1       1.567   8.115  20.340  0.00  0.00    +0.000 C 
ATOM      2  O   UNL     1       2.173   8.417  19.315  0.00  0.00    +0.000 OA
ATOM      3  N   UNL     1       1.558   6.838  20.841  0.00  0.00    +0.000 N 
ATOM      4  H   UNL     1       1.065   6.689  21.717  0.00  0.00    +0.000 HD
ENDROOT
BRANCH   1   9
ATOM      5  C   UNL     1      -0.099  10.040  20.678  0.00  0.00    +0.000 A 
ATOM      6  N   UNL     1      -0.512  10.678  21.833  0.00  0.00    +0.000 N 
ATOM      7  C   UNL     1       0.105  10.102  22.899  0.00  0.00    +0.000 A 
ATOM      8  N   UNL     1       0.909   9.137  22.519  0.00  0.00    +0.000 NA
ATOM      9  C   UNL     1       0.803   9.083  21.130  0.00  0.00    +0.000 A 
ATOM     10  H   UNL     1      -1.177  11.440  21.852  0.00  0.00    +0.000 HD
BRANCH   5  12
ATOM     11  N   UNL     1      -1.987  10.231  19.191  0.00  0.00    +0.000 N 
ATOM     12  C   UNL     1      -0.644  10.447  19.397  0.00  0.00    +0.000 C 
ATOM     13  O   UNL     1       0.117  10.936  18.564  0.00  0.00    +0.000 OA
ATOM     14  H   UNL     1      -2.492   9.712  19.906  0.00  0.00    +0.000 HD
BRANCH  11  20
ATOM     15  C   UNL     1      -2.798   9.793  14.357  0.00  0.00    +0.000 C 
ATOM     16  C   UNL     1      -3.175  10.382  15.684  0.00  0.00    +0.000 A 
ATOM     17  C   UNL     1      -4.242  11.280  15.790  0.00  0.00    +0.000 A 
ATOM     18  C   UNL     1      -4.575  11.831  17.026  0.00  0.00    +0.000 A 
ATOM     19  C   UNL     1      -3.839  11.502  18.166  0.00  0.00    +0.000 A 
ATOM     20  C   UNL     1      -2.768  10.616  18.082  0.00  0.00    +0.000 A 
ATOM     21  C   UNL     1      -2.452  10.045  16.839  0.00  0.00    +0.000 A 
ENDBRANCH  11  20
ENDBRANCH   5  12
ENDBRANCH   1   9
BRANCH   3  22
ATOM     22  C   UNL     1       2.252   5.763  20.174  0.00  0.00    +0.000 C 
BRANCH  22  23
ATOM     23  C   UNL     1       2.336   4.503  21.036  0.00  0.00    +0.000 C 
BRANCH  23  24
ATOM     24  C   UNL     1       1.744   3.297  20.299  0.00  0.00    +0.000 C 
BRANCH  24  25
ATOM     25  C   UNL     1       2.784   2.206  20.028  0.00  0.00    +0.000 C 
BRANCH  25  26
ATOM     26  C   UNL     1       2.909   1.939  18.526  0.00  0.00    +0.000 C 
BRANCH  26  27
ATOM     27  N   UNL     1       4.122   2.496  17.967  0.00  0.00    +0.000 N 
ATOM     28  C   UNL     1       4.111   3.693  17.314  0.00  0.00    +0.000 C 
ATOM     29  O   UNL     1       3.103   4.368  17.161  0.00  0.00    +0.000 OA
ATOM     30  H   UNL     1       5.000   2.000  18.015  0.00  0.00    +0.000 HD
BRANCH  28  31
ATOM     31  O   UNL     1       5.355   4.007  16.869  0.00  0.00    +0.000 OA
BRANCH  31  32
ATOM     32  C   UNL     1       6.087   5.070  17.542  0.00  0.00    +0.000 C 
ATOM     33  C   UNL     1       5.697   5.165  19.024  0.00  0.00    +0.000 C 
ATOM     34  C   UNL     1       7.577   4.692  17.470  0.00  0.00    +0.000 C 
ATOM     35  C   UNL     1       5.909   6.407  16.807  0.00  0.00    +0.000 C 
ENDBRANCH  31  32
ENDBRANCH  28  31
ENDBRANCH  26  27
ENDBRANCH  25  26
ENDBRANCH  24  25
ENDBRANCH  23  24
ENDBRANCH  22  23
ENDBRANCH   3  22
TORSDOF 11
ENDMDL
MODEL 5
REMARK VINA RESULT:      -7.7      3.767      6.670
REMARK  Name = 
REMARK  15 active torsions:
REMARK  status: ('A' for Active; 'I' for Inactive)
REMARK    1  A    between atoms: C_1  and  C_2
REMARK    2  A    between atoms: C_6  and  N_7
REMARK    3  A    between atoms: C_8  and  C_10
REMARK    4  A    between atoms: C_14  and  C_15
REMARK    5  A    between atoms: N_17  and  C_18
REMARK    6  A    between atoms: C_18  and  C_19
REMARK    7  A    between atoms: C_19  and  C_20
REMARK    8  A    between atoms: C_20  and  C_21
REMARK    9  A    between atoms: C_21  and  C_22
REMARK   10  A    between atoms: C_22  and  N_23
REMARK   11  A    between atoms: C_24  and  O_26
REMARK   12  A    between atoms: O_26  and  C_27
REMARK   13  A    between atoms: C_27  and  C_28
REMARK   14  A    between atoms: C_27  and  C_29
REMARK   15  A    between atoms: C_27  and  C_30
REMARK                            x       y       z     vdW  Elec       q    Type
REMARK                         _______ _______ _______ _____ _____    ______ ____
ROOT
ATOM      1  C   UNL     1       1.696   7.237  20.260  0.00  0.00    +0.000 C 
ATOM      2  O   UNL     1       1.286   7.548  21.376  0.00  0.00    +0.000 OA
ATOM      3  N   UNL     1       2.024   5.947  19.930  0.00  0.00    +0.000 N 
ATOM      4  H   UNL     1       2.313   5.776  18.971  0.00  0.00    +0.000 HD
ENDROOT
BRANCH   1   9
ATOM      5  C   UNL     1       1.208   9.414  18.988  0.00  0.00    +0.000 A 
ATOM      6  N   UNL     1       1.746   9.908  17.814  0.00  0.00    +0.000 N 
ATOM      7  C   UNL     1       2.686   9.037  17.360  0.00  0.00    +0.000 A 
ATOM      8  N   UNL     1       2.790   7.995  18.150  0.00  0.00    +0.000 NA
ATOM      9  C   UNL     1       1.869   8.206  19.176  0.00  0.00    +0.000 A 
ATOM     10  H   UNL     1       1.473  10.785  17.391  0.00  0.00    +0.000 HD
BRANCH   5  12
ATOM     11  N   UNL     1       0.563  10.719  20.909  0.00  0.00    +0.000 N 
ATOM     12  C   UNL     1       0.201  10.181  19.696  0.00  0.00    +0.000 C 
ATOM     13  O   UNL     1      -0.916  10.289  19.193  0.00  0.00    +0.000 OA
ATOM     14  H   UNL     1       1.475  10.465  21.280  0.00  0.00    +0.000 HD
BRANCH  11  20
ATOM     15  C   UNL     1      -0.259  15.319  22.452  0.00  0.00    +0.000 C 
ATOM     16  C   UNL     1      -0.605  13.861  22.490  0.00  0.00    +0.000 A 
ATOM     17  C   UNL     1      -1.621  13.389  23.329  0.00  0.00    +0.000 A 
ATOM     18  C   UNL     1      -1.926  12.030  23.366  0.00  0.00    +0.000 A 
ATOM     19  C   UNL     1      -1.213  11.125  22.577  0.00  0.00    +0.000 A 
ATOM     20  C   UNL     1      -0.192  11.572  21.740  0.00  0.00    +0.000 A 
ATOM     21  C   UNL     1       0.094  12.945  21.688  0.00  0.00    +0.000 A 
ENDBRANCH  11  20
ENDBRANCH   5  12
ENDBRANCH   1   9
BRANCH   3  22
ATOM     22  C   UNL     1       1.923   4.875  20.890  0.00  0.00    +0.000 C 
BRANCH  22  23
ATOM     23  C   UNL     1       1.048   3.726  20.388  0.00  0.00    +0.000 C 
BRANCH  23  24
ATOM     24  C   UNL     1       1.890   2.474  20.123  0.00  0.00    +0.000 C 
BRANCH  24  25
ATOM     25  C   UNL     1       3.317   2.602  20.661  0.00  0.00    +0.000 C 
BRANCH  25  26
ATOM     26  C   UNL     1       4.327   2.638  19.510  0.00  0.00    +0.000 C 
BRANCH  26  27
ATOM     27  N   UNL     1       5.038   3.896  19.441  0.00  0.00    +0.000 N 
ATOM     28  C   UNL     1       4.927   4.708  18.351  0.00  0.00    +0.000 C 
ATOM     29  O   UNL     1       4.233   4.441  17.380  0.00  0.00    +0.000 OA
ATOM     30  H   UNL     1       5.660   4.191  20.180  0.00  0.00    +0.000 HD
BRANCH  28  31
ATOM     31  O   UNL     1       5.687   5.822  18.505  0.00  0.00    +0.000 OA
BRANCH  31  32
ATOM     32  C   UNL     1       7.097   5.760  18.147  0.00  0.00    +0.000 C 
ATOM     33  C   UNL     1       7.378   4.587  17.196  0.00  0.00    +0.000 C 
ATOM     34  C   UNL     1       7.418   7.064  17.395  0.00  0.00    +0.000 C 
ATOM     35  C   UNL     1       7.979   5.716  19.403  0.00  0.00    +0.000 C 
ENDBRANCH  31  32
ENDBRANCH  28  31
ENDBRANCH  26  27
ENDBRANCH  25  26
ENDBRANCH  24  25
ENDBRANCH  23  24
ENDBRANCH  22  23
ENDBRANCH   3  22
TORSDOF 11
ENDMDL
MODEL 6
REMARK VINA RESULT:      -7.7      3.364      4.979
REMARK  Name = 
REMARK  15 active torsions:
REMARK  status: ('A' for Active; 'I' for Inactive)
REMARK    1  A    between atoms: C_1  and  C_2
REMARK    2  A    between atoms: C_6  and  N_7
REMARK    3  A    between atoms: C_8  and  C_10
REMARK    4  A    between atoms: C_14  and  C_15
REMARK    5  A    between atoms: N_17  and  C_18
REMARK    6  A    between atoms: C_18  and  C_19
REMARK    7  A    between atoms: C_19  and  C_20
REMARK    8  A    between atoms: C_20  and  C_21
REMARK    9  A    between atoms: C_21  and  C_22
REMARK   10  A    between atoms: C_22  and  N_23
REMARK   11  A    between atoms: C_24  and  O_26
REMARK   12  A    between atoms: O_26  and  C_27
REMARK   13  A    between atoms: C_27  and  C_28
REMARK   14  A    between atoms: C_27  and  C_29
REMARK   15  A    between atoms: C_27  and  C_30
REMARK                            x       y       z     vdW  Elec       q    Type
REMARK                         _______ _______ _______ _____ _____    ______ ____
ROOT
ATOM      1  C   UNL     1       7.471   6.768  17.629  0.00  0.00    +0.000 C 
ATOM      2  O   UNL     1       7.872   6.472  18.752  0.00  0.00    +0.000 OA
ATOM      3  N   UNL     1       7.365   8.069  17.205  0.00  0.00    +0.000 N 
ATOM      4  H   UNL     1       7.065   8.218  16.245  0.00  0.00    +0.000 HD
ENDROOT
BRANCH   1   9
ATOM      5  C   UNL     1       6.153   4.737  16.772  0.00  0.00    +0.000 A 
ATOM      6  N   UNL     1       6.178   4.104  15.544  0.00  0.00    +0.000 N 
ATOM      7  C   UNL     1       7.054   4.752  14.732  0.00  0.00    +0.000 A 
ATOM      8  N   UNL     1       7.619   5.762  15.350  0.00  0.00    +0.000 NA
ATOM      9  C   UNL     1       7.074   5.770  16.634  0.00  0.00    +0.000 A 
ATOM     10  H   UNL     1       5.615   3.296  15.312  0.00  0.00    +0.000 HD
BRANCH   5  12
ATOM     11  N   UNL     1       3.919   4.223  17.520  0.00  0.00    +0.000 N 
ATOM     12  C   UNL     1       5.263   4.257  17.812  0.00  0.00    +0.000 C 
ATOM     13  O   UNL     1       5.747   3.931  18.895  0.00  0.00    +0.000 OA
ATOM     14  H   UNL     1       3.623   4.627  16.635  0.00  0.00    +0.000 HD
BRANCH  11  20
ATOM     15  C   UNL     1       2.229   3.343  22.056  0.00  0.00    +0.000 C 
ATOM     16  C   UNL     1       2.031   3.297  20.571  0.00  0.00    +0.000 A 
ATOM     17  C   UNL     1       0.863   2.758  20.022  0.00  0.00    +0.000 A 
ATOM     18  C   UNL     1       0.695   2.708  18.640  0.00  0.00    +0.000 A 
ATOM     19  C   UNL     1       1.696   3.183  17.790  0.00  0.00    +0.000 A 
ATOM     20  C   UNL     1       2.871   3.716  18.315  0.00  0.00    +0.000 A 
ATOM     21  C   UNL     1       3.024   3.787  19.708  0.00  0.00    +0.000 A 
ENDBRANCH  11  20
ENDBRANCH   5  12
ENDBRANCH   1   9
BRANCH   3  22
ATOM     22  C   UNL     1       7.704   9.172  18.069  0.00  0.00    +0.000 C 
BRANCH  22  23
ATOM     23  C   UNL     1       9.056   9.793  17.715  0.00  0.00    +0.000 C 
BRANCH  23  24
ATOM     24  C   UNL     1       9.262  11.116  18.460  0.00  0.00    +0.000 C 
BRANCH  24  25
ATOM     25  C   UNL     1      10.675  11.677  18.283  0.00  0.00    +0.000 C 
BRANCH  25  26
ATOM     26  C   UNL     1      10.637  13.014  17.538  0.00  0.00    +0.000 C 
BRANCH  26  27
ATOM     27  N   UNL     1       9.299  13.556  17.447  0.00  0.00    +0.000 N 
ATOM     28  C   UNL     1       9.045  14.859  17.757  0.00  0.00    +0.000 C 
ATOM     29  O   UNL     1       9.907  15.646  18.121  0.00  0.00    +0.000 OA
ATOM     30  H   UNL     1       8.514  12.979  17.183  0.00  0.00    +0.000 HD
BRANCH  28  31
ATOM     31  O   UNL     1       7.724  15.138  17.607  0.00  0.00    +0.000 OA
BRANCH  31  32
ATOM     32  C   UNL     1       6.925  15.385  18.798  0.00  0.00    +0.000 C 
ATOM     33  C   UNL     1       7.503  14.654  20.019  0.00  0.00    +0.000 C 
ATOM     34  C   UNL     1       7.001  16.897  19.073  0.00  0.00    +0.000 C 
ATOM     35  C   UNL     1       5.451  15.029  18.551  0.00  0.00    +0.000 C 
ENDBRANCH  31  32
ENDBRANCH  28  31
ENDBRANCH  26  27
ENDBRANCH  25  26
ENDBRANCH  24  25
ENDBRANCH  23  24
ENDBRANCH  22  23
ENDBRANCH   3  22
TORSDOF 11
ENDMDL
MODEL 7
REMARK VINA RESULT:      -7.7      4.836      8.928
REMARK  Name = 
REMARK  15 active torsions:
REMARK  status: ('A' for Active; 'I' for Inactive)
REMARK    1  A    between atoms: C_1  and  C_2
REMARK    2  A    between atoms: C_6  and  N_7
REMARK    3  A    between atoms: C_8  and  C_10
REMARK    4  A    between atoms: C_14  and  C_15
REMARK    5  A    between atoms: N_17  and  C_18
REMARK    6  A    between atoms: C_18  and  C_19
REMARK    7  A    between atoms: C_19  and  C_20
REMARK    8  A    between atoms: C_20  and  C_21
REMARK    9  A    between atoms: C_21  and  C_22
REMARK   10  A    between atoms: C_22  and  N_23
REMARK   11  A    between atoms: C_24  and  O_26
REMARK   12  A    between atoms: O_26  and  C_27
REMARK   13  A    between atoms: C_27  and  C_28
REMARK   14  A    between atoms: C_27  and  C_29
REMARK   15  A    between atoms: C_27  and  C_30
REMARK                            x       y       z     vdW  Elec       q    Type
REMARK                         _______ _______ _______ _____ _____    ______ ____
ROOT
ATOM      1  C   UNL     1       2.142   5.815  19.812  0.00  0.00    +0.000 C 
ATOM      2  O   UNL     1       2.521   6.247  18.726  0.00  0.00    +0.000 OA
ATOM      3  N   UNL     1       1.676   6.634  20.808  0.00  0.00    +0.000 N 
ATOM      4  H   UNL     1       1.344   6.185  21.657  0.00  0.00    +0.000 HD
ENDROOT
BRANCH   1   9
ATOM      5  C   UNL     1       2.785   3.350  19.483  0.00  0.00    +0.000 A 
ATOM      6  N   UNL     1       2.444   2.228  20.214  0.00  0.00    +0.000 N 
ATOM      7  C   UNL     1       1.663   2.605  21.262  0.00  0.00    +0.000 A 
ATOM      8  N   UNL     1       1.456   3.901  21.258  0.00  0.00    +0.000 NA
ATOM      9  C   UNL     1       2.144   4.389  20.148  0.00  0.00    +0.000 A 
ATOM     10  H   UNL     1       2.751   1.291  19.990  0.00  0.00    +0.000 HD
BRANCH   5  12
ATOM     11  N   UNL     1       4.360   4.333  17.946  0.00  0.00    +0.000 N 
ATOM     12  C   UNL     1       3.649   3.219  18.326  0.00  0.00    +0.000 C 
ATOM     13  O   UNL     1       3.683   2.139  17.737  0.00  0.00    +0.000 OA
ATOM     14  H   UNL     1       4.163   5.203  18.436  0.00  0.00    +0.000 HD
BRANCH  11  20
ATOM     15  C   UNL     1       5.369   3.912  13.148  0.00  0.00    +0.000 C 
ATOM     16  C   UNL     1       5.817   4.244  14.540  0.00  0.00    +0.000 A 
ATOM     17  C   UNL     1       7.140   4.622  14.793  0.00  0.00    +0.000 A 
ATOM     18  C   UNL     1       7.549   4.915  16.093  0.00  0.00    +0.000 A 
ATOM     19  C   UNL     1       6.647   4.822  17.154  0.00  0.00    +0.000 A 
ATOM     20  C   UNL     1       5.328   4.440  16.926  0.00  0.00    +0.000 A 
ATOM     21  C   UNL     1       4.914   4.170  15.612  0.00  0.00    +0.000 A 
ENDBRANCH  11  20
ENDBRANCH   5  12
ENDBRANCH   1   9
BRANCH   3  22
ATOM     22  C   UNL     1       1.622   8.066  20.641  0.00  0.00    +0.000 C 
BRANCH  22  23
ATOM     23  C   UNL     1       1.344   8.794  21.957  0.00  0.00    +0.000 C 
BRANCH  23  24
ATOM     24  C   UNL     1       0.913  10.241  21.700  0.00  0.00    +0.000 C 
BRANCH  24  25
ATOM     25  C   UNL     1      -0.355  10.334  20.848  0.00  0.00    +0.000 C 
BRANCH  25  26
ATOM     26  C   UNL     1      -0.470  11.715  20.197  0.00  0.00    +0.000 C 
BRANCH  26  27
ATOM     27  N   UNL     1      -0.878  11.638  18.811  0.00  0.00    +0.000 N 
ATOM     28  C   UNL     1      -2.158  11.920  18.438  0.00  0.00    +0.000 C 
ATOM     29  O   UNL     1      -3.032  12.255  19.225  0.00  0.00    +0.000 OA
ATOM     30  H   UNL     1      -0.237  11.343  18.089  0.00  0.00    +0.000 HD
BRANCH  28  31
ATOM     31  O   UNL     1      -2.310  11.773  17.096  0.00  0.00    +0.000 OA
BRANCH  31  32
ATOM     32  C   UNL     1      -3.220  10.748  16.606  0.00  0.00    +0.000 C 
ATOM     33  C   UNL     1      -3.228   9.522  17.530  0.00  0.00    +0.000 C 
ATOM     34  C   UNL     1      -4.630  11.365  16.629  0.00  0.00    +0.000 C 
ATOM     35  C   UNL     1      -2.896  10.379  15.151  0.00  0.00    +0.000 C 
ENDBRANCH  31  32
ENDBRANCH  28  31
ENDBRANCH  26  27
ENDBRANCH  25  26
ENDBRANCH  24  25
ENDBRANCH  23  24
ENDBRANCH  22  23
ENDBRANCH   3  22
TORSDOF 11
ENDMDL
MODEL 8
REMARK VINA RESULT:      -7.7      4.740      8.829
REMARK  Name = 
REMARK  15 active torsions:
REMARK  status: ('A' for Active; 'I' for Inactive)
REMARK    1  A    between atoms: C_1  and  C_2
REMARK    2  A    between atoms: C_6  and  N_7
REMARK    3  A    between atoms: C_8  and  C_10
REMARK    4  A    between atoms: C_14  and  C_15
REMARK    5  A    between atoms: N_17  and  C_18
REMARK    6  A    between atoms: C_18  and  C_19
REMARK    7  A    between atoms: C_19  and  C_20
REMARK    8  A    between atoms: C_20  and  C_21
REMARK    9  A    between atoms: C_21  and  C_22
REMARK   10  A    between atoms: C_22  and  N_23
REMARK   11  A    between atoms: C_24  and  O_26
REMARK   12  A    between atoms: O_26  and  C_27
REMARK   13  A    between atoms: C_27  and  C_28
REMARK   14  A    between atoms: C_27  and  C_29
REMARK   15  A    between atoms: C_27  and  C_30
REMARK                            x       y       z     vdW  Elec       q    Type
REMARK                         _______ _______ _______ _____ _____    ______ ____
ROOT
ATOM      1  C   UNL     1       2.574   4.728  19.421  0.00  0.00    +0.000 C 
ATOM      2  O   UNL     1       1.609   4.568  18.678  0.00  0.00    +0.000 OA
ATOM      3  N   UNL     1       2.898   5.950  19.954  0.00  0.00    +0.000 N 
ATOM      4  H   UNL     1       3.689   5.980  20.592  0.00  0.00    +0.000 HD
ENDROOT
BRANCH   1   9
ATOM      5  C   UNL     1       4.707   3.304  19.274  0.00  0.00    +0.000 A 
ATOM      6  N   UNL     1       5.100   2.198  20.004  0.00  0.00    +0.000 N 
ATOM      7  C   UNL     1       4.145   1.920  20.931  0.00  0.00    +0.000 A 
ATOM      8  N   UNL     1       3.143   2.763  20.849  0.00  0.00    +0.000 NA
ATOM      9  C   UNL     1       3.469   3.637  19.813  0.00  0.00    +0.000 A 
ATOM     10  H   UNL     1       5.969   1.703  19.857  0.00  0.00    +0.000 HD
BRANCH   5  12
ATOM     11  N   UNL     1       5.274   3.494  16.939  0.00  0.00    +0.000 N 
ATOM     12  C   UNL     1       5.576   3.829  18.238  0.00  0.00    +0.000 C 
ATOM     13  O   UNL     1       6.540   4.516  18.573  0.00  0.00    +0.000 OA
ATOM     14  H   UNL     1       4.523   2.824  16.791  0.00  0.00    +0.000 HD
BRANCH  11  20
ATOM     15  C   UNL     1       5.411   3.352  12.022  0.00  0.00    +0.000 C 
ATOM     16  C   UNL     1       5.951   3.883  13.316  0.00  0.00    +0.000 A 
ATOM     17  C   UNL     1       7.033   4.768  13.329  0.00  0.00    +0.000 A 
ATOM     18  C   UNL     1       7.536   5.245  14.539  0.00  0.00    +0.000 A 
ATOM     19  C   UNL     1       6.972   4.833  15.748  0.00  0.00    +0.000 A 
ATOM     20  C   UNL     1       5.899   3.946  15.759  0.00  0.00    +0.000 A 
ATOM     21  C   UNL     1       5.381   3.489  14.537  0.00  0.00    +0.000 A 
ENDBRANCH  11  20
ENDBRANCH   5  12
ENDBRANCH   1   9
BRANCH   3  22
ATOM     22  C   UNL     1       2.125   7.130  19.656  0.00  0.00    +0.000 C 
BRANCH  22  23
ATOM     23  C   UNL     1       2.520   7.761  18.319  0.00  0.00    +0.000 C 
BRANCH  23  24
ATOM     24  C   UNL     1       1.816   9.107  18.121  0.00  0.00    +0.000 C 
BRANCH  24  25
ATOM     25  C   UNL     1       1.066   9.567  19.374  0.00  0.00    +0.000 C 
BRANCH  25  26
ATOM     26  C   UNL     1       0.539  10.994  19.195  0.00  0.00    +0.000 C 
BRANCH  26  27
ATOM     27  N   UNL     1      -0.901  11.035  19.056  0.00  0.00    +0.000 N 
ATOM     28  C   UNL     1      -1.505  11.972  18.271  0.00  0.00    +0.000 C 
ATOM     29  O   UNL     1      -0.891  12.820  17.640  0.00  0.00    +0.000 OA
ATOM     30  H   UNL     1      -1.497  10.395  19.560  0.00  0.00    +0.000 HD
BRANCH  28  31
ATOM     31  O   UNL     1      -2.855  11.823  18.302  0.00  0.00    +0.000 OA
BRANCH  31  32
ATOM     32  C   UNL     1      -3.496  11.057  17.244  0.00  0.00    +0.000 C 
ATOM     33  C   UNL     1      -2.724  11.178  15.922  0.00  0.00    +0.000 C 
ATOM     34  C   UNL     1      -3.453   9.582  17.682  0.00  0.00    +0.000 C 
ATOM     35  C   UNL     1      -4.971  11.456  17.095  0.00  0.00    +0.000 C 
ENDBRANCH  31  32
ENDBRANCH  28  31
ENDBRANCH  26  27
ENDBRANCH  25  26
ENDBRANCH  24  25
ENDBRANCH  23  24
ENDBRANCH  22  23
ENDBRANCH   3  22
TORSDOF 11
ENDMDL
MODEL 9
REMARK VINA RESULT:      -7.6      3.182      9.207
REMARK  Name = 
REMARK  15 active torsions:
REMARK  status: ('A' for Active; 'I' for Inactive)
REMARK    1  A    between atoms: C_1  and  C_2
REMARK    2  A    between atoms: C_6  and  N_7
REMARK    3  A    between atoms: C_8  and  C_10
REMARK    4  A    between atoms: C_14  and  C_15
REMARK    5  A    between atoms: N_17  and  C_18
REMARK    6  A    between atoms: C_18  and  C_19
REMARK    7  A    between atoms: C_19  and  C_20
REMARK    8  A    between atoms: C_20  and  C_21
REMARK    9  A    between atoms: C_21  and  C_22
REMARK   10  A    between atoms: C_22  and  N_23
REMARK   11  A    between atoms: C_24  and  O_26
REMARK   12  A    between atoms: O_26  and  C_27
REMARK   13  A    between atoms: C_27  and  C_28
REMARK   14  A    between atoms: C_27  and  C_29
REMARK   15  A    between atoms: C_27  and  C_30
REMARK                            x       y       z     vdW  Elec       q    Type
REMARK                         _______ _______ _______ _____ _____    ______ ____
ROOT
ATOM      1  C   UNL     1       9.245  11.706  18.960  0.00  0.00    +0.000 C 
ATOM      2  O   UNL     1       9.212  11.579  20.181  0.00  0.00    +0.000 OA
ATOM      3  N   UNL     1       8.989  10.665  18.104  0.00  0.00    +0.000 N 
ATOM      4  H   UNL     1       8.997  10.872  17.110  0.00  0.00    +0.000 HD
ENDROOT
BRANCH   1   9
ATOM      5  C   UNL     1       8.780  14.130  18.247  0.00  0.00    +0.000 A 
ATOM      6  N   UNL     1       9.538  15.004  17.491  0.00  0.00    +0.000 N 
ATOM      7  C   UNL     1      10.700  14.391  17.140  0.00  0.00    +0.000 A 
ATOM      8  N   UNL     1      10.749  13.164  17.605  0.00  0.00    +0.000 NA
ATOM      9  C   UNL     1       9.553  12.976  18.297  0.00  0.00    +0.000 A 
ATOM     10  H   UNL     1       9.253  15.947  17.261  0.00  0.00    +0.000 HD
BRANCH   5  12
ATOM     11  N   UNL     1       6.504  14.828  17.870  0.00  0.00    +0.000 N 
ATOM     12  C   UNL     1       7.501  14.560  18.779  0.00  0.00    +0.000 C 
ATOM     13  O   UNL     1       7.383  14.685  19.997  0.00  0.00    +0.000 OA
ATOM     14  H   UNL     1       6.752  14.804  16.883  0.00  0.00    +0.000 HD
BRANCH  11  20
ATOM     15  C   UNL     1       1.849  13.277  18.244  0.00  0.00    +0.000 C 
ATOM     16  C   UNL     1       2.854  14.386  18.330  0.00  0.00    +0.000 A 
ATOM     17  C   UNL     1       2.453  15.691  18.638  0.00  0.00    +0.000 A 
ATOM     18  C   UNL     1       3.393  16.717  18.702  0.00  0.00    +0.000 A 
ATOM     19  C   UNL     1       4.740  16.456  18.447  0.00  0.00    +0.000 A 
ATOM     20  C   UNL     1       5.161  15.167  18.130  0.00  0.00    +0.000 A 
ATOM     21  C   UNL     1       4.213  14.132  18.091  0.00  0.00    +0.000 A 
ENDBRANCH  11  20
ENDBRANCH   5  12
ENDBRANCH   1   9
BRANCH   3  22
ATOM     22  C   UNL     1       8.682   9.344  18.597  0.00  0.00    +0.000 C 
BRANCH  22  23
ATOM     23  C   UNL     1       7.813   8.548  17.622  0.00  0.00    +0.000 C 
BRANCH  23  24
ATOM     24  C   UNL     1       7.818   7.058  17.978  0.00  0.00    +0.000 C 
BRANCH  24  25
ATOM     25  C   UNL     1       7.050   6.209  16.962  0.00  0.00    +0.000 C 
BRANCH  25  26
ATOM     26  C   UNL     1       7.153   4.722  17.313  0.00  0.00    +0.000 C 
BRANCH  26  27
ATOM     27  N   UNL     1       5.870   4.148  17.657  0.00  0.00    +0.000 N 
ATOM     28  C   UNL     1       5.368   4.254  18.920  0.00  0.00    +0.000 C 
ATOM     29  O   UNL     1       5.948   4.830  19.830  0.00  0.00    +0.000 OA
ATOM     30  H   UNL     1       5.328   3.627  16.983  0.00  0.00    +0.000 HD
BRANCH  28  31
ATOM     31  O   UNL     1       4.163   3.634  19.010  0.00  0.00    +0.000 OA
BRANCH  31  32
ATOM     32  C   UNL     1       2.956   4.440  18.901  0.00  0.00    +0.000 C 
ATOM     33  C   UNL     1       2.092   4.323  20.166  0.00  0.00    +0.000 C 
ATOM     34  C   UNL     1       3.414   5.904  18.777  0.00  0.00    +0.000 C 
ATOM     35  C   UNL     1       2.174   4.086  17.628  0.00  0.00    +0.000 C 
ENDBRANCH  31  32
ENDBRANCH  28  31
ENDBRANCH  26  27
ENDBRANCH  25  26
ENDBRANCH  24  25
ENDBRANCH  23  24
ENDBRANCH  22  23
ENDBRANCH   3  22
TORSDOF 11
ENDMDL
