MODEL 1
REMARK VINA RESULT:      -7.7      0.000      0.000
REMARK  Name = 
REMARK  8 active torsions:
REMARK  status: ('A' for Active; 'I' for Inactive)
REMARK    1  A    between atoms: C_1  and  N_2
REMARK    2  A    between atoms: C_7  and  C_8
REMARK    3  A    between atoms: C_11  and  C_12
REMARK    4  A    between atoms: N_14  and  C_15
REMARK    5  A    between atoms: C_15  and  C_16
REMARK    6  A    between atoms: C_16  and  C_17
REMARK    7  A    between atoms: C_20  and  S_21
REMARK    8  A    between atoms: S_21  and  N_22
REMARK                            x       y       z     vdW  Elec       q    Type
REMARK                         _______ _______ _______ _____ _____    ______ ____
ROOT
ATOM      1  C   UNL     1       1.955   5.271  20.353  0.00  0.00    +0.000 C 
ATOM      2  O   UNL     1       2.410   5.028  21.468  0.00  0.00    +0.000 OA
ATOM      3  N   UNL     1       1.478   4.262  19.534  0.00  0.00    +0.000 N 
ATOM      4  H   UNL     1       1.139   4.519  18.616  0.00  0.00    +0.000 HD
ENDROOT
BRANCH   1   8
ATOM      5  C   UNL     1       1.388   9.028  19.377  0.00  0.00    +0.000 A 
ATOM      6  C   UNL     1       2.177   8.460  18.391  0.00  0.00    +0.000 A 
ATOM      7  C   UNL     1       2.468   7.085  18.644  0.00  0.00    +0.000 A 
ATOM      8  C   UNL     1       1.881   6.620  19.805  0.00  0.00    +0.000 A 
ATOM      9  S   UNL     1       1.000   7.865  20.580  0.00  0.00    +0.000 S 
BRANCH   5  16
ATOM     10  C   UNL     1      -2.328  11.348  17.062  0.00  0.00    +0.000 C 
ATOM     11  N   UNL     1      -1.493  12.379  17.633  0.00  0.00    +0.000 N 
ATOM     12  C   UNL     1      -0.574  11.950  18.577  0.00  0.00    +0.000 A 
ATOM     13  N   UNL     1      -0.295  12.843  19.535  0.00  0.00    +0.000 NA
ATOM     14  C   UNL     1       0.613  12.490  20.457  0.00  0.00    +0.000 A 
ATOM     15  C   UNL     1       1.234  11.270  20.471  0.00  0.00    +0.000 A 
ATOM     16  C   UNL     1       0.862  10.398  19.470  0.00  0.00    +0.000 A 
ATOM     17  N   UNL     1      -0.028  10.727  18.509  0.00  0.00    +0.000 NA
ATOM     18  H   UNL     1      -1.984  13.159  18.055  0.00  0.00    +0.000 HD
ENDBRANCH   5  16
ENDBRANCH   1   8
BRANCH   3  19
ATOM     19  C   UNL     1       1.512   2.871  19.940  0.00  0.00    +0.000 C 
BRANCH  19  20
ATOM     20  C   UNL     1       2.664   2.103  19.293  0.00  0.00    +0.000 C 
BRANCH  20  21
ATOM     21  C   UNL     1       3.622   3.023  18.578  0.00  0.00    +0.000 A 
ATOM     22  C   UNL     1       4.786   3.470  19.222  0.00  0.00    +0.000 A 
ATOM     23  C   UNL     1       5.654   4.357  18.583  0.00  0.00    +0.000 A 
ATOM     24  C   UNL     1       5.362   4.796  17.290  0.00  0.00    +0.000 A 
ATOM     25  C   UNL     1       4.203   4.369  16.638  0.00  0.00    +0.000 A 
ATOM     26  C   UNL     1       3.337   3.480  17.282  0.00  0.00    +0.000 A 
BRANCH  24  27
ATOM     27  S   UNL     1       6.437   5.957  16.502  0.00  0.00    +0.000 S 
ATOM     28  O   UNL     1       5.713   6.648  15.459  0.00  0.00    +0.000 OA
ATOM     29  O   UNL     1       7.206   6.655  17.504  0.00  0.00    +0.000 OA
BRANCH  27  30
ATOM     30  N   UNL     1       7.519   4.943  15.713  0.00  0.00    +0.000 NA
ATOM     31  H   UNL     1       7.278   4.887  14.723  0.00  0.00    +0.000 HD
ATOM     32  H   UNL     1       8.474   5.260  15.887  0.00  0.00    +0.000 HD
ENDBRANCH  27  30
ENDBRANCH  24  27
ENDBRANCH  20  21
ENDBRANCH  19  20
ENDBRANCH   3  19
TORSDOF 7
ENDMDL
MODEL 2
REMARK VINA RESULT:      -7.7      0.706      1.284
REMARK  Name = 
REMARK  8 active torsions:
REMARK  status: ('A' for Active; 'I' for Inactive)
REMARK    1  A    between atoms: C_1  and  N_2
REMARK    2  A    between atoms: C_7  and  C_8
REMARK    3  A    between atoms: C_11  and  C_12
REMARK    4  A    between atoms: N_14  and  C_15
REMARK    5  A    between atoms: C_15  and  C_16
REMARK    6  A    between atoms: C_16  and  C_17
REMARK    7  A    between atoms: C_20  and  S_21
REMARK    8  A    between atoms: S_21  and  N_22
REMARK                            x       y       z     vdW  Elec       q    Type
REMARK                         _______ _______ _______ _____ _____    ______ ____
ROOT
ATOM      1  C   UNL     1       1.952   5.242  20.412  0.00  0.00    +0.000 C 
ATOM      2  O   UNL     1       2.360   4.988  21.543  0.00  0.00    +0.000 OA
ATOM      3  N   UNL     1       1.532   4.239  19.556  0.00  0.00    +0.000 N 
ATOM      4  H   UNL     1       1.231   4.505  18.627  0.00  0.00    +0.000 HD
ENDROOT
BRANCH   1   8
ATOM      5  C   UNL     1       1.382   9.010  19.481  0.00  0.00    +0.000 A 
ATOM      6  C   UNL     1       2.190   8.460  18.501  0.00  0.00    +0.000 A 
ATOM      7  C   UNL     1       2.484   7.083  18.738  0.00  0.00    +0.000 A 
ATOM      8  C   UNL     1       1.881   6.599  19.882  0.00  0.00    +0.000 A 
ATOM      9  S   UNL     1       0.980   7.828  20.661  0.00  0.00    +0.000 S 
BRANCH   5  16
ATOM     10  C   UNL     1      -2.213  11.390  17.038  0.00  0.00    +0.000 C 
ATOM     11  N   UNL     1      -1.414  12.404  17.683  0.00  0.00    +0.000 N 
ATOM     12  C   UNL     1      -0.545  11.950  18.662  0.00  0.00    +0.000 A 
ATOM     13  N   UNL     1      -0.321  12.816  19.659  0.00  0.00    +0.000 NA
ATOM     14  C   UNL     1       0.538  12.437  20.618  0.00  0.00    +0.000 A 
ATOM     15  C   UNL     1       1.162  11.219  20.630  0.00  0.00    +0.000 A 
ATOM     16  C   UNL     1       0.846  10.375  19.585  0.00  0.00    +0.000 A 
ATOM     17  N   UNL     1       0.008  10.731  18.589  0.00  0.00    +0.000 NA
ATOM     18  H   UNL     1      -1.929  13.171  18.101  0.00  0.00    +0.000 HD
ENDBRANCH   5  16
ENDBRANCH   1   8
BRANCH   3  19
ATOM     19  C   UNL     1       1.571   2.842  19.941  0.00  0.00    +0.000 C 
BRANCH  19  20
ATOM     20  C   UNL     1       2.908   2.181  19.600  0.00  0.00    +0.000 C 
BRANCH  20  21
ATOM     21  C   UNL     1       3.765   3.064  18.728  0.00  0.00    +0.000 A 
ATOM     22  C   UNL     1       3.462   3.221  17.367  0.00  0.00    +0.000 A 
ATOM     23  C   UNL     1       4.276   4.001  16.545  0.00  0.00    +0.000 A 
ATOM     24  C   UNL     1       5.398   4.633  17.086  0.00  0.00    +0.000 A 
ATOM     25  C   UNL     1       5.720   4.480  18.436  0.00  0.00    +0.000 A 
ATOM     26  C   UNL     1       4.901   3.698  19.255  0.00  0.00    +0.000 A 
BRANCH  24  27
ATOM     27  S   UNL     1       6.455   5.580  16.031  0.00  0.00    +0.000 S 
ATOM     28  O   UNL     1       7.667   4.836  15.776  0.00  0.00    +0.000 OA
ATOM     29  O   UNL     1       5.672   6.172  14.974  0.00  0.00    +0.000 OA
BRANCH  27  30
ATOM     30  N   UNL     1       6.902   6.848  17.040  0.00  0.00    +0.000 NA
ATOM     31  H   UNL     1       7.790   6.630  17.493  0.00  0.00    +0.000 HD
ATOM     32  H   UNL     1       6.911   7.720  16.510  0.00  0.00    +0.000 HD
ENDBRANCH  27  30
ENDBRANCH  24  27
ENDBRANCH  20  21
ENDBRANCH  19  20
ENDBRANCH   3  19
TORSDOF 7
ENDMDL
MODEL 3
REMARK VINA RESULT:      -7.7      3.807      4.881
REMARK  Name = 
REMARK  8 active torsions:
REMARK  status: ('A' for Active; 'I' for Inactive)
REMARK    1  A    between atoms: C_1  and  N_2
REMARK    2  A    between atoms: C_7  and  C_8
REMARK    3  A    between atoms: C_11  and  C_12
REMARK    4  A    between atoms: N_14  and  C_15
REMARK    5  A    between atoms: C_15  and  C_16
REMARK    6  A    between atoms: C_16  and  C_17
REMARK    7  A    between atoms: C_20  and  S_21
REMARK    8  A    between atoms: S_21  and  N_22
REMARK                            x       y       z     vdW  Elec       q    Type
REMARK                         _______ _______ _______ _____ _____    ______ ____
ROOT
ATOM      1  C   UNL     1       0.898  10.130  20.076  0.00  0.00    +0.000 C 
ATOM      2  O   UNL     1       1.318  10.852  19.174  0.00  0.00    +0.000 OA
ATOM      3  N   UNL     1       1.173   8.774  20.099  0.00  0.00    +0.000 N 
ATOM      4  H   UNL     1       0.778   8.225  20.852  0.00  0.00    +0.000 HD
ENDROOT
BRANCH   1   8
ATOM      5  C   UNL     1      -1.276  12.032  22.731  0.00  0.00    +0.000 A 
ATOM      6  C   UNL     1      -1.107  10.736  23.187  0.00  0.00    +0.000 A 
ATOM      7  C   UNL     1      -0.337   9.933  22.292  0.00  0.00    +0.000 A 
ATOM      8  C   UNL     1       0.085  10.632  21.178  0.00  0.00    +0.000 A 
ATOM      9  S   UNL     1      -0.473  12.249  21.227  0.00  0.00    +0.000 S 
BRANCH   5  16
ATOM     10  C   UNL     1      -5.980  12.657  24.155  0.00  0.00    +0.000 C 
ATOM     11  N   UNL     1      -5.393  13.974  24.090  0.00  0.00    +0.000 N 
ATOM     12  C   UNL     1      -4.009  14.010  24.011  0.00  0.00    +0.000 A 
ATOM     13  N   UNL     1      -3.442  15.077  24.588  0.00  0.00    +0.000 NA
ATOM     14  C   UNL     1      -2.106  15.175  24.513  0.00  0.00    +0.000 A 
ATOM     15  C   UNL     1      -1.316  14.239  23.904  0.00  0.00    +0.000 A 
ATOM     16  C   UNL     1      -1.979  13.155  23.367  0.00  0.00    +0.000 A 
ATOM     17  N   UNL     1      -3.323  13.034  23.399  0.00  0.00    +0.000 NA
ATOM     18  H   UNL     1      -5.646  14.607  24.841  0.00  0.00    +0.000 HD
ENDBRANCH   5  16
ENDBRANCH   1   8
BRANCH   3  19
ATOM     19  C   UNL     1       1.949   8.135  19.055  0.00  0.00    +0.000 C 
BRANCH  19  20
ATOM     20  C   UNL     1       2.492   6.772  19.484  0.00  0.00    +0.000 C 
BRANCH  20  21
ATOM     21  C   UNL     1       3.520   6.245  18.514  0.00  0.00    +0.000 A 
ATOM     22  C   UNL     1       3.972   4.920  18.614  0.00  0.00    +0.000 A 
ATOM     23  C   UNL     1       4.955   4.439  17.747  0.00  0.00    +0.000 A 
ATOM     24  C   UNL     1       5.486   5.285  16.771  0.00  0.00    +0.000 A 
ATOM     25  C   UNL     1       5.055   6.609  16.664  0.00  0.00    +0.000 A 
ATOM     26  C   UNL     1       4.070   7.085  17.534  0.00  0.00    +0.000 A 
BRANCH  24  27
ATOM     27  S   UNL     1       6.766   4.688  15.707  0.00  0.00    +0.000 S 
ATOM     28  O   UNL     1       6.767   5.455  14.483  0.00  0.00    +0.000 OA
ATOM     29  O   UNL     1       7.963   4.460  16.480  0.00  0.00    +0.000 OA
BRANCH  27  30
ATOM     30  N   UNL     1       6.187   3.166  15.292  0.00  0.00    +0.000 NA
ATOM     31  H   UNL     1       5.486   3.254  14.556  0.00  0.00    +0.000 HD
ATOM     32  H   UNL     1       6.969   2.558  15.047  0.00  0.00    +0.000 HD
ENDBRANCH  27  30
ENDBRANCH  24  27
ENDBRANCH  20  21
ENDBRANCH  19  20
ENDBRANCH   3  19
TORSDOF 7
ENDMDL
MODEL 4
REMARK VINA RESULT:      -7.7      1.198      1.589
REMARK  Name = 
REMARK  8 active torsions:
REMARK  status: ('A' for Active; 'I' for Inactive)
REMARK    1  A    between atoms: C_1  and  N_2
REMARK    2  A    between atoms: C_7  and  C_8
REMARK    3  A    between atoms: C_11  and  C_12
REMARK    4  A    between atoms: N_14  and  C_15
REMARK    5  A    between atoms: C_15  and  C_16
REMARK    6  A    between atoms: C_16  and  C_17
REMARK    7  A    between atoms: C_20  and  S_21
REMARK    8  A    between atoms: S_21  and  N_22
REMARK                            x       y       z     vdW  Elec       q    Type
REMARK                         _______ _______ _______ _____ _____    ______ ____
ROOT
ATOM      1  C   UNL     1       1.972   5.225  20.255  0.00  0.00    +0.000 C 
ATOM      2  O   UNL     1       2.371   4.961  21.387  0.00  0.00    +0.000 OA
ATOM      3  N   UNL     1       1.558   4.230  19.387  0.00  0.00    +0.000 N 
ATOM      4  H   UNL     1       1.264   4.504  18.458  0.00  0.00    +0.000 HD
ENDROOT
BRANCH   1   8
ATOM      5  C   UNL     1       1.485   9.023  19.399  0.00  0.00    +0.000 A 
ATOM      6  C   UNL     1       2.131   8.437  18.324  0.00  0.00    +0.000 A 
ATOM      7  C   UNL     1       2.380   7.045  18.523  0.00  0.00    +0.000 A 
ATOM      8  C   UNL     1       1.904   6.587  19.737  0.00  0.00    +0.000 A 
ATOM      9  S   UNL     1       1.176   7.857  20.623  0.00  0.00    +0.000 S 
BRANCH   5  16
ATOM     10  C   UNL     1      -1.142  11.285  22.939  0.00  0.00    +0.000 C 
ATOM     11  N   UNL     1      -1.176  12.152  21.786  0.00  0.00    +0.000 N 
ATOM     12  C   UNL     1      -0.256  11.861  20.790  0.00  0.00    +0.000 A 
ATOM     13  N   UNL     1       0.181  12.924  20.103  0.00  0.00    +0.000 NA
ATOM     14  C   UNL     1       1.050  12.694  19.107  0.00  0.00    +0.000 A 
ATOM     15  C   UNL     1       1.515  11.446  18.788  0.00  0.00    +0.000 A 
ATOM     16  C   UNL     1       1.040  10.414  19.569  0.00  0.00    +0.000 A 
ATOM     17  N   UNL     1       0.146  10.603  20.563  0.00  0.00    +0.000 NA
ATOM     18  H   UNL     1      -1.076  13.144  21.977  0.00  0.00    +0.000 HD
ENDBRANCH   5  16
ENDBRANCH   1   8
BRANCH   3  19
ATOM     19  C   UNL     1       1.594   2.830  19.760  0.00  0.00    +0.000 C 
BRANCH  19  20
ATOM     20  C   UNL     1       2.726   2.071  19.065  0.00  0.00    +0.000 C 
BRANCH  20  21
ATOM     21  C   UNL     1       3.745   3.007  18.466  0.00  0.00    +0.000 A 
ATOM     22  C   UNL     1       4.798   3.502  19.251  0.00  0.00    +0.000 A 
ATOM     23  C   UNL     1       5.720   4.403  18.715  0.00  0.00    +0.000 A 
ATOM     24  C   UNL     1       5.593   4.809  17.385  0.00  0.00    +0.000 A 
ATOM     25  C   UNL     1       4.545   4.334  16.592  0.00  0.00    +0.000 A 
ATOM     26  C   UNL     1       3.626   3.432  17.134  0.00  0.00    +0.000 A 
BRANCH  24  27
ATOM     27  S   UNL     1       6.732   5.988  16.724  0.00  0.00    +0.000 S 
ATOM     28  O   UNL     1       6.000   7.116  16.195  0.00  0.00    +0.000 OA
ATOM     29  O   UNL     1       7.843   6.142  17.631  0.00  0.00    +0.000 OA
BRANCH  27  30
ATOM     30  N   UNL     1       7.337   5.170  15.387  0.00  0.00    +0.000 NA
ATOM     31  H   UNL     1       7.320   4.165  15.562  0.00  0.00    +0.000 HD
ATOM     32  H   UNL     1       6.823   5.452  14.551  0.00  0.00    +0.000 HD
ENDBRANCH  27  30
ENDBRANCH  24  27
ENDBRANCH  20  21
ENDBRANCH  19  20
ENDBRANCH   3  19
TORSDOF 7
ENDMDL
MODEL 5
REMARK VINA RESULT:      -7.6      7.857      9.133
REMARK  Name = 
REMARK  8 active torsions:
REMARK  status: ('A' for Active; 'I' for Inactive)
REMARK    1  A    between atoms: C_1  and  N_2
REMARK    2  A    between atoms: C_7  and  C_8
REMARK    3  A    between atoms: C_11  and  C_12
REMARK    4  A    between atoms: N_14  and  C_15
REMARK    5  A    between atoms: C_15  and  C_16
REMARK    6  A    between atoms: C_16  and  C_17
REMARK    7  A    between atoms: C_20  and  S_21
REMARK    8  A    between atoms: S_21  and  N_22
REMARK                            x       y       z     vdW  Elec       q    Type
REMARK                         _______ _______ _______ _____ _____    ______ ____
ROOT
ATOM      1  C   UNL     1       9.362  10.841  19.025  0.00  0.00    +0.000 C 
ATOM      2  O   UNL     1       9.176  10.665  20.227  0.00  0.00    +0.000 OA
ATOM      3  N   UNL     1       8.937   9.915  18.088  0.00  0.00    +0.000 N 
ATOM      4  H   UNL     1       9.141  10.101  17.114  0.00  0.00    +0.000 HD
ENDROOT
BRANCH   1   8
ATOM      5  C   UNL     1      10.792  14.339  17.971  0.00  0.00    +0.000 A 
ATOM      6  C   UNL     1      11.467  13.378  17.237  0.00  0.00    +0.000 A 
ATOM      7  C   UNL     1      11.042  12.050  17.545  0.00  0.00    +0.000 A 
ATOM      8  C   UNL     1      10.037  12.019  18.493  0.00  0.00    +0.000 A 
ATOM      9  S   UNL     1       9.637  13.601  19.007  0.00  0.00    +0.000 S 
BRANCH   5  16
ATOM     10  C   UNL     1       8.160  17.996  20.032  0.00  0.00    +0.000 C 
ATOM     11  N   UNL     1       8.937  18.596  18.973  0.00  0.00    +0.000 N 
ATOM     12  C   UNL     1       9.967  17.816  18.470  0.00  0.00    +0.000 A 
ATOM     13  N   UNL     1      11.030  18.504  18.034  0.00  0.00    +0.000 NA
ATOM     14  C   UNL     1      12.043  17.798  17.509  0.00  0.00    +0.000 A 
ATOM     15  C   UNL     1      12.043  16.432  17.424  0.00  0.00    +0.000 A 
ATOM     16  C   UNL     1      10.925  15.802  17.929  0.00  0.00    +0.000 A 
ATOM     17  N   UNL     1       9.875  16.479  18.441  0.00  0.00    +0.000 NA
ATOM     18  H   UNL     1       9.348  19.498  19.186  0.00  0.00    +0.000 HD
ENDBRANCH   5  16
ENDBRANCH   1   8
BRANCH   3  19
ATOM     19  C   UNL     1       8.274   8.687  18.476  0.00  0.00    +0.000 C 
BRANCH  19  20
ATOM     20  C   UNL     1       7.748   7.903  17.272  0.00  0.00    +0.000 C 
BRANCH  20  21
ATOM     21  C   UNL     1       6.826   6.785  17.689  0.00  0.00    +0.000 A 
ATOM     22  C   UNL     1       5.563   6.651  17.090  0.00  0.00    +0.000 A 
ATOM     23  C   UNL     1       4.687   5.645  17.502  0.00  0.00    +0.000 A 
ATOM     24  C   UNL     1       5.076   4.764  18.513  0.00  0.00    +0.000 A 
ATOM     25  C   UNL     1       6.324   4.889  19.126  0.00  0.00    +0.000 A 
ATOM     26  C   UNL     1       7.198   5.898  18.710  0.00  0.00    +0.000 A 
BRANCH  24  27
ATOM     27  S   UNL     1       3.945   3.523  19.066  0.00  0.00    +0.000 S 
ATOM     28  O   UNL     1       3.195   4.027  20.194  0.00  0.00    +0.000 OA
ATOM     29  O   UNL     1       3.309   2.910  17.925  0.00  0.00    +0.000 OA
BRANCH  27  30
ATOM     30  N   UNL     1       4.987   2.362  19.692  0.00  0.00    +0.000 NA
ATOM     31  H   UNL     1       4.452   1.548  19.996  0.00  0.00    +0.000 HD
ATOM     32  H   UNL     1       5.711   2.147  19.006  0.00  0.00    +0.000 HD
ENDBRANCH  27  30
ENDBRANCH  24  27
ENDBRANCH  20  21
ENDBRANCH  19  20
ENDBRANCH   3  19
TORSDOF 7
ENDMDL
MODEL 6
REMARK VINA RESULT:      -7.6      4.249      9.945
REMARK  Name = 
REMARK  8 active torsions:
REMARK  status: ('A' for Active; 'I' for Inactive)
REMARK    1  A    between atoms: C_1  and  N_2
REMARK    2  A    between atoms: C_7  and  C_8
REMARK    3  A    between atoms: C_11  and  C_12
REMARK    4  A    between atoms: N_14  and  C_15
REMARK    5  A    between atoms: C_15  and  C_16
REMARK    6  A    between atoms: C_16  and  C_17
REMARK    7  A    between atoms: C_20  and  S_21
REMARK    8  A    between atoms: S_21  and  N_22
REMARK                            x       y       z     vdW  Elec       q    Type
REMARK                         _______ _______ _______ _____ _____    ______ ____
ROOT
ATOM      1  C   UNL     1       0.506   9.894  19.713  0.00  0.00    +0.000 C 
ATOM      2  O   UNL     1      -0.575   9.628  20.233  0.00  0.00    +0.000 OA
ATOM      3  N   UNL     1       0.937  11.202  19.576  0.00  0.00    +0.000 N 
ATOM      4  H   UNL     1       1.824  11.362  19.116  0.00  0.00    +0.000 HD
ENDROOT
BRANCH   1   8
ATOM      5  C   UNL     1       2.831   6.844  18.884  0.00  0.00    +0.000 A 
ATOM      6  C   UNL     1       2.909   7.725  17.818  0.00  0.00    +0.000 A 
ATOM      7  C   UNL     1       2.087   8.879  17.996  0.00  0.00    +0.000 A 
ATOM      8  C   UNL     1       1.412   8.872  19.201  0.00  0.00    +0.000 A 
ATOM      9  S   UNL     1       1.772   7.455  20.091  0.00  0.00    +0.000 S 
BRANCH   5  16
ATOM     10  C   UNL     1       7.578   5.518  18.377  0.00  0.00    +0.000 C 
ATOM     11  N   UNL     1       6.810   4.296  18.394  0.00  0.00    +0.000 N 
ATOM     12  C   UNL     1       5.501   4.417  18.832  0.00  0.00    +0.000 A 
ATOM     13  N   UNL     1       5.018   3.338  19.462  0.00  0.00    +0.000 NA
ATOM     14  C   UNL     1       3.744   3.391  19.879  0.00  0.00    +0.000 A 
ATOM     15  C   UNL     1       2.944   4.489  19.712  0.00  0.00    +0.000 A 
ATOM     16  C   UNL     1       3.532   5.568  19.087  0.00  0.00    +0.000 A 
ATOM     17  N   UNL     1       4.802   5.543  18.629  0.00  0.00    +0.000 NA
ATOM     18  H   UNL     1       7.213   3.530  18.924  0.00  0.00    +0.000 HD
ENDBRANCH   5  16
ENDBRANCH   1   8
BRANCH   3  19
ATOM     19  C   UNL     1       0.129  12.321  20.017  0.00  0.00    +0.000 C 
BRANCH  19  20
ATOM     20  C   UNL     1      -0.699  12.926  18.882  0.00  0.00    +0.000 C 
BRANCH  20  21
ATOM     21  C   UNL     1      -2.156  12.550  18.988  0.00  0.00    +0.000 A 
ATOM     22  C   UNL     1      -2.917  12.975  20.088  0.00  0.00    +0.000 A 
ATOM     23  C   UNL     1      -4.254  12.595  20.215  0.00  0.00    +0.000 A 
ATOM     24  C   UNL     1      -4.838  11.790  19.233  0.00  0.00    +0.000 A 
ATOM     25  C   UNL     1      -4.092  11.351  18.137  0.00  0.00    +0.000 A 
ATOM     26  C   UNL     1      -2.754  11.735  18.015  0.00  0.00    +0.000 A 
BRANCH  24  27
ATOM     27  S   UNL     1      -6.516  11.270  19.421  0.00  0.00    +0.000 S 
ATOM     28  O   UNL     1      -7.393  12.261  18.840  0.00  0.00    +0.000 OA
ATOM     29  O   UNL     1      -6.620   9.865  19.109  0.00  0.00    +0.000 OA
BRANCH  27  30
ATOM     30  N   UNL     1      -6.730  11.390  21.084  0.00  0.00    +0.000 NA
ATOM     31  H   UNL     1      -6.549  10.486  21.520  0.00  0.00    +0.000 HD
ATOM     32  H   UNL     1      -6.152  12.148  21.449  0.00  0.00    +0.000 HD
ENDBRANCH  27  30
ENDBRANCH  24  27
ENDBRANCH  20  21
ENDBRANCH  19  20
ENDBRANCH   3  19
TORSDOF 7
ENDMDL
MODEL 7
REMARK VINA RESULT:      -7.5      3.614      6.166
REMARK  Name = 
REMARK  8 active torsions:
REMARK  status: ('A' for Active; 'I' for Inactive)
REMARK    1  A    between atoms: C_1  and  N_2
REMARK    2  A    between atoms: C_7  and  C_8
REMARK    3  A    between atoms: C_11  and  C_12
REMARK    4  A    between atoms: N_14  and  C_15
REMARK    5  A    between atoms: C_15  and  C_16
REMARK    6  A    between atoms: C_16  and  C_17
REMARK    7  A    between atoms: C_20  and  S_21
REMARK    8  A    between atoms: S_21  and  N_22
REMARK                            x       y       z     vdW  Elec       q    Type
REMARK                         _______ _______ _______ _____ _____    ______ ____
ROOT
ATOM      1  C   UNL     1      -0.230  10.488  18.900  0.00  0.00    +0.000 C 
ATOM      2  O   UNL     1       0.180  10.921  19.974  0.00  0.00    +0.000 OA
ATOM      3  N   UNL     1       0.596   9.778  18.047  0.00  0.00    +0.000 N 
ATOM      4  H   UNL     1       0.211   9.468  17.164  0.00  0.00    +0.000 HD
ENDROOT
BRANCH   1   8
ATOM      5  C   UNL     1      -3.941  11.474  18.096  0.00  0.00    +0.000 A 
ATOM      6  C   UNL     1      -3.603  10.423  17.261  0.00  0.00    +0.000 A 
ATOM      7  C   UNL     1      -2.259   9.981  17.449  0.00  0.00    +0.000 A 
ATOM      8  C   UNL     1      -1.599  10.686  18.437  0.00  0.00    +0.000 A 
ATOM      9  S   UNL     1      -2.617  11.886  19.110  0.00  0.00    +0.000 S 
BRANCH   5  16
ATOM     10  C   UNL     1      -5.789  14.447  21.603  0.00  0.00    +0.000 C 
ATOM     11  N   UNL     1      -6.908  14.015  20.800  0.00  0.00    +0.000 N 
ATOM     12  C   UNL     1      -6.584  13.428  19.587  0.00  0.00    +0.000 A 
ATOM     13  N   UNL     1      -7.479  13.626  18.611  0.00  0.00    +0.000 NA
ATOM     14  C   UNL     1      -7.228  13.053  17.424  0.00  0.00    +0.000 A 
ATOM     15  C   UNL     1      -6.107  12.311  17.170  0.00  0.00    +0.000 A 
ATOM     16  C   UNL     1      -5.221  12.187  18.219  0.00  0.00    +0.000 A 
ATOM     17  N   UNL     1      -5.451  12.727  19.435  0.00  0.00    +0.000 NA
ATOM     18  H   UNL     1      -7.600  14.726  20.590  0.00  0.00    +0.000 HD
ENDBRANCH   5  16
ENDBRANCH   1   8
BRANCH   3  19
ATOM     19  C   UNL     1       1.987   9.527  18.367  0.00  0.00    +0.000 C 
BRANCH  19  20
ATOM     20  C   UNL     1       2.561   8.345  17.585  0.00  0.00    +0.000 C 
BRANCH  20  21
ATOM     21  C   UNL     1       2.532   7.070  18.390  0.00  0.00    +0.000 A 
ATOM     22  C   UNL     1       2.895   5.851  17.796  0.00  0.00    +0.000 A 
ATOM     23  C   UNL     1       2.828   4.661  18.522  0.00  0.00    +0.000 A 
ATOM     24  C   UNL     1       2.402   4.688  19.852  0.00  0.00    +0.000 A 
ATOM     25  C   UNL     1       2.027   5.891  20.455  0.00  0.00    +0.000 A 
ATOM     26  C   UNL     1       2.097   7.079  19.724  0.00  0.00    +0.000 A 
BRANCH  24  27
ATOM     27  S   UNL     1       2.270   3.173  20.754  0.00  0.00    +0.000 S 
ATOM     28  O   UNL     1       2.273   3.458  22.171  0.00  0.00    +0.000 OA
ATOM     29  O   UNL     1       1.275   2.331  20.135  0.00  0.00    +0.000 OA
BRANCH  27  30
ATOM     30  N   UNL     1       3.752   2.451  20.430  0.00  0.00    +0.000 NA
ATOM     31  H   UNL     1       3.757   2.086  19.477  0.00  0.00    +0.000 HD
ATOM     32  H   UNL     1       4.505   3.113  20.622  0.00  0.00    +0.000 HD
ENDBRANCH  27  30
ENDBRANCH  24  27
ENDBRANCH  20  21
ENDBRANCH  19  20
ENDBRANCH   3  19
TORSDOF 7
ENDMDL
MODEL 8
REMARK VINA RESULT:      -7.5      1.362      1.998
REMARK  Name = 
REMARK  8 active torsions:
REMARK  status: ('A' for Active; 'I' for Inactive)
REMARK    1  A    between atoms: C_1  and  N_2
REMARK    2  A    between atoms: C_7  and  C_8
REMARK    3  A    between atoms: C_11  and  C_12
REMARK    4  A    between atoms: N_14  and  C_15
REMARK    5  A    between atoms: C_15  and  C_16
REMARK    6  A    between atoms: C_16  and  C_17
REMARK    7  A    between atoms: C_20  and  S_21
REMARK    8  A    between atoms: S_21  and  N_22
REMARK                            x       y       z     vdW  Elec       q    Type
REMARK                         _______ _______ _______ _____ _____    ______ ____
ROOT
ATOM      1  C   UNL     1       2.042   5.341  20.413  0.00  0.00    +0.000 C 
ATOM      2  O   UNL     1       2.433   5.124  21.557  0.00  0.00    +0.000 OA
ATOM      3  N   UNL     1       1.672   4.308  19.570  0.00  0.00    +0.000 N 
ATOM      4  H   UNL     1       1.382   4.546  18.630  0.00  0.00    +0.000 HD
ENDROOT
BRANCH   1   8
ATOM      5  C   UNL     1       1.473   9.102  19.450  0.00  0.00    +0.000 A 
ATOM      6  C   UNL     1       2.097   8.490  18.377  0.00  0.00    +0.000 A 
ATOM      7  C   UNL     1       2.373   7.110  18.613  0.00  0.00    +0.000 A 
ATOM      8  C   UNL     1       1.939   6.684  19.853  0.00  0.00    +0.000 A 
ATOM      9  S   UNL     1       1.217   7.972  20.719  0.00  0.00    +0.000 S 
BRANCH   5  16
ATOM     10  C   UNL     1      -1.196  11.410  22.929  0.00  0.00    +0.000 C 
ATOM     11  N   UNL     1      -1.233  12.252  21.757  0.00  0.00    +0.000 N 
ATOM     12  C   UNL     1      -0.306  11.950  20.772  0.00  0.00    +0.000 A 
ATOM     13  N   UNL     1       0.123  13.002  20.064  0.00  0.00    +0.000 NA
ATOM     14  C   UNL     1       0.999  12.760  19.077  0.00  0.00    +0.000 A 
ATOM     15  C   UNL     1       1.479  11.512  18.787  0.00  0.00    +0.000 A 
ATOM     16  C   UNL     1       1.013  10.491  19.588  0.00  0.00    +0.000 A 
ATOM     17  N   UNL     1       0.111  10.691  20.574  0.00  0.00    +0.000 NA
ATOM     18  H   UNL     1      -1.145  13.248  21.927  0.00  0.00    +0.000 HD
ENDBRANCH   5  16
ENDBRANCH   1   8
BRANCH   3  19
ATOM     19  C   UNL     1       1.746   2.922  19.984  0.00  0.00    +0.000 C 
BRANCH  19  20
ATOM     20  C   UNL     1       3.120   2.306  19.714  0.00  0.00    +0.000 C 
BRANCH  20  21
ATOM     21  C   UNL     1       3.936   3.147  18.764  0.00  0.00    +0.000 A 
ATOM     22  C   UNL     1       3.665   3.121  17.388  0.00  0.00    +0.000 A 
ATOM     23  C   UNL     1       4.444   3.862  16.498  0.00  0.00    +0.000 A 
ATOM     24  C   UNL     1       5.497   4.639  16.986  0.00  0.00    +0.000 A 
ATOM     25  C   UNL     1       5.786   4.669  18.352  0.00  0.00    +0.000 A 
ATOM     26  C   UNL     1       5.003   3.925  19.239  0.00  0.00    +0.000 A 
BRANCH  24  27
ATOM     27  S   UNL     1       6.513   5.538  15.852  0.00  0.00    +0.000 S 
ATOM     28  O   UNL     1       7.481   4.641  15.263  0.00  0.00    +0.000 OA
ATOM     29  O   UNL     1       5.686   6.415  15.059  0.00  0.00    +0.000 OA
BRANCH  27  30
ATOM     30  N   UNL     1       7.384   6.535  16.886  0.00  0.00    +0.000 NA
ATOM     31  H   UNL     1       8.075   7.064  16.353  0.00  0.00    +0.000 HD
ATOM     32  H   UNL     1       6.740   7.119  17.422  0.00  0.00    +0.000 HD
ENDBRANCH  27  30
ENDBRANCH  24  27
ENDBRANCH  20  21
ENDBRANCH  19  20
ENDBRANCH   3  19
TORSDOF 7
ENDMDL
MODEL 9
REMARK VINA RESULT:      -7.5      5.223     10.709
REMARK  Name = 
REMARK  8 active torsions:
REMARK  status: ('A' for Active; 'I' for Inactive)
REMARK    1  A    between atoms: C_1  and  N_2
REMARK    2  A    between atoms: C_7  and  C_8
REMARK    3  A    between atoms: C_11  and  C_12
REMARK    4  A    between atoms: N_14  and  C_15
REMARK    5  A    between atoms: C_15  and  C_16
REMARK    6  A    between atoms: C_16  and  C_17
REMARK    7  A    between atoms: C_20  and  S_21
REMARK    8  A    between atoms: S_21  and  N_22
REMARK                            x       y       z     vdW  Elec       q    Type
REMARK                         _______ _______ _______ _____ _____    ______ ____
ROOT
ATOM      1  C   UNL     1       1.014   9.211  21.602  0.00  0.00    +0.000 C 
ATOM      2  O   UNL     1       1.715   9.383  22.596  0.00  0.00    +0.000 OA
ATOM      3  N   UNL     1      -0.279   9.701  21.540  0.00  0.00    +0.000 N 
ATOM      4  H   UNL     1      -0.819   9.506  20.707  0.00  0.00    +0.000 HD
ENDROOT
BRANCH   1   8
ATOM      5  C   UNL     1       2.310   6.763  18.824  0.00  0.00    +0.000 A 
ATOM      6  C   UNL     1       2.121   7.999  18.230  0.00  0.00    +0.000 A 
ATOM      7  C   UNL     1       1.631   8.980  19.144  0.00  0.00    +0.000 A 
ATOM      8  C   UNL     1       1.474   8.485  20.424  0.00  0.00    +0.000 A 
ATOM      9  S   UNL     1       1.907   6.831  20.493  0.00  0.00    +0.000 S 
BRANCH   5  16
ATOM     10  C   UNL     1       6.883   4.949  18.238  0.00  0.00    +0.000 C 
ATOM     11  N   UNL     1       6.030   4.209  17.338  0.00  0.00    +0.000 N 
ATOM     12  C   UNL     1       4.669   4.342  17.560  0.00  0.00    +0.000 A 
ATOM     13  N   UNL     1       3.942   3.261  17.248  0.00  0.00    +0.000 NA
ATOM     14  C   UNL     1       2.614   3.347  17.415  0.00  0.00    +0.000 A 
ATOM     15  C   UNL     1       1.988   4.462  17.902  0.00  0.00    +0.000 A 
ATOM     16  C   UNL     1       2.815   5.516  18.232  0.00  0.00    +0.000 A 
ATOM     17  N   UNL     1       4.152   5.476  18.054  0.00  0.00    +0.000 NA
ATOM     18  H   UNL     1       6.209   3.212  17.282  0.00  0.00    +0.000 HD
ENDBRANCH   5  16
ENDBRANCH   1   8
BRANCH   3  19
ATOM     19  C   UNL     1      -0.876  10.421  22.647  0.00  0.00    +0.000 C 
BRANCH  19  20
ATOM     20  C   UNL     1      -1.110  11.897  22.324  0.00  0.00    +0.000 C 
BRANCH  20  21
ATOM     21  C   UNL     1      -2.530  12.316  22.609  0.00  0.00    +0.000 A 
ATOM     22  C   UNL     1      -3.058  12.189  23.903  0.00  0.00    +0.000 A 
ATOM     23  C   UNL     1      -4.385  12.534  24.165  0.00  0.00    +0.000 A 
ATOM     24  C   UNL     1      -5.189  13.014  23.128  0.00  0.00    +0.000 A 
ATOM     25  C   UNL     1      -4.683  13.138  21.833  0.00  0.00    +0.000 A 
ATOM     26  C   UNL     1      -3.353  12.792  21.577  0.00  0.00    +0.000 A 
BRANCH  24  27
ATOM     27  S   UNL     1      -6.883  13.403  23.451  0.00  0.00    +0.000 S 
ATOM     28  O   UNL     1      -7.516  12.280  24.106  0.00  0.00    +0.000 OA
ATOM     29  O   UNL     1      -6.978  14.750  23.961  0.00  0.00    +0.000 OA
BRANCH  27  30
ATOM     30  N   UNL     1      -7.528  13.449  21.900  0.00  0.00    +0.000 NA
ATOM     31  H   UNL     1      -7.511  12.514  21.493  0.00  0.00    +0.000 HD
ATOM     32  H   UNL     1      -8.457  13.871  21.928  0.00  0.00    +0.000 HD
ENDBRANCH  27  30
ENDBRANCH  24  27
ENDBRANCH  20  21
ENDBRANCH  19  20
ENDBRANCH   3  19
TORSDOF 7
ENDMDL
