MODEL 1
REMARK VINA RESULT:      -7.6      0.000      0.000
REMARK  Name = 
REMARK  4 active torsions:
REMARK  status: ('A' for Active; 'I' for Inactive)
REMARK    1  A    between atoms: C_2  and  C_15
REMARK    2  A    between atoms: N_3  and  O_4
REMARK    3  A    between atoms: O_4  and  S_5
REMARK    4  A    between atoms: S_5  and  C_8
REMARK                            x       y       z     vdW  Elec       q    Type
REMARK                         _______ _______ _______ _____ _____    ______ ____
ROOT
ATOM      1  N   UNL     1       5.973   4.879  19.584  0.00  0.00    +0.000 NA
ATOM      2  C   UNL     1       5.557   4.125  18.617  0.00  0.00    +0.000 C 
ATOM      3  N   UNL     1       4.686   3.077  18.796  0.00  0.00    +0.000 N 
ATOM      4  H   UNL     1       5.533   4.550  20.449  0.00  0.00    +0.000 HD
ATOM      5  H   UNL     1       4.881   2.239  18.244  0.00  0.00    +0.000 HD
ENDROOT
BRANCH   2   6
ATOM      6  C   UNL     1       6.022   4.414  17.231  0.00  0.00    +0.000 A 
ATOM      7  C   UNL     1       5.380   3.854  16.121  0.00  0.00    +0.000 A 
ATOM      8  C   UNL     1       5.830   4.168  14.841  0.00  0.00    +0.000 A 
ATOM      9  C   UNL     1       6.914   5.023  14.712  0.00  0.00    +0.000 A 
ATOM     10  N   UNL     1       7.560   5.574  15.761  0.00  0.00    +0.000 NA
ATOM     11  C   UNL     1       7.092   5.268  17.000  0.00  0.00    +0.000 A 
ENDBRANCH   2   6
BRANCH   3  12
ATOM     12  O   UNL     1       4.315   2.800  20.133  0.00  0.00    +0.000 OA
BRANCH  12  13
ATOM     13  S   UNL     1       2.702   3.043  20.380  0.00  0.00    +0.000 S 
ATOM     14  O   UNL     1       1.965   2.063  19.601  0.00  0.00    +0.000 OA
ATOM     15  O   UNL     1       2.497   3.121  21.815  0.00  0.00    +0.000 OA
BRANCH  13  16
ATOM     16  C   UNL     1       2.337   4.642  19.688  0.00  0.00    +0.000 A 
ATOM     17  C   UNL     1       2.410   5.776  20.508  0.00  0.00    +0.000 A 
ATOM     18  C   UNL     1       2.294   7.048  19.939  0.00  0.00    +0.000 A 
ATOM     19  C   UNL     1       2.115   7.180  18.562  0.00  0.00    +0.000 A 
ATOM     20 CL   UNL     1       2.020   8.746  17.859  0.00  0.00    +0.000 Cl
ATOM     21  C   UNL     1       2.037   6.050  17.746  0.00  0.00    +0.000 A 
ATOM     22  C   UNL     1       2.153   4.774  18.308  0.00  0.00    +0.000 A 
ENDBRANCH  13  16
ENDBRANCH  12  13
ENDBRANCH   3  12
TORSDOF 4
ENDMDL
MODEL 2
REMARK VINA RESULT:      -7.5      1.843      2.439
REMARK  Name = 
REMARK  4 active torsions:
REMARK  status: ('A' for Active; 'I' for Inactive)
REMARK    1  A    between atoms: C_2  and  C_15
REMARK    2  A    between atoms: N_3  and  O_4
REMARK    3  A    between atoms: O_4  and  S_5
REMARK    4  A    between atoms: S_5  and  C_8
REMARK                            x       y       z     vdW  Elec       q    Type
REMARK                         _______ _______ _______ _____ _____    ______ ____
ROOT
ATOM      1  N   UNL     1       5.367   3.398  18.556  0.00  0.00    +0.000 NA
ATOM      2  C   UNL     1       5.378   4.542  17.949  0.00  0.00    +0.000 C 
ATOM      3  N   UNL     1       4.888   5.699  18.506  0.00  0.00    +0.000 N 
ATOM      4  H   UNL     1       4.951   3.540  19.482  0.00  0.00    +0.000 HD
ATOM      5  H   UNL     1       4.376   6.315  17.872  0.00  0.00    +0.000 HD
ENDROOT
BRANCH   2   6
ATOM      6  C   UNL     1       5.969   4.624  16.583  0.00  0.00    +0.000 A 
ATOM      7  C   UNL     1       5.421   3.907  15.514  0.00  0.00    +0.000 A 
ATOM      8  C   UNL     1       5.988   4.029  14.247  0.00  0.00    +0.000 A 
ATOM      9  C   UNL     1       7.090   4.858  14.093  0.00  0.00    +0.000 A 
ATOM     10  N   UNL     1       7.645   5.559  15.104  0.00  0.00    +0.000 NA
ATOM     11  C   UNL     1       7.065   5.437  16.327  0.00  0.00    +0.000 A 
ENDBRANCH   2   6
BRANCH   3  12
ATOM     12  O   UNL     1       4.283   5.568  19.778  0.00  0.00    +0.000 OA
BRANCH  12  13
ATOM     13  S   UNL     1       2.636   5.565  19.672  0.00  0.00    +0.000 S 
ATOM     14  O   UNL     1       2.255   4.854  18.464  0.00  0.00    +0.000 OA
ATOM     15  O   UNL     1       2.126   5.124  20.957  0.00  0.00    +0.000 OA
BRANCH  13  16
ATOM     16  C   UNL     1       2.159   7.265  19.450  0.00  0.00    +0.000 A 
ATOM     17  C   UNL     1       2.229   7.836  18.172  0.00  0.00    +0.000 A 
ATOM     18  C   UNL     1       1.698   9.110  17.955  0.00  0.00    +0.000 A 
ATOM     19  C   UNL     1       1.096   9.801  19.007  0.00  0.00    +0.000 A 
ATOM     20 CL   UNL     1       0.402  11.349  18.726  0.00  0.00    +0.000 Cl
ATOM     21  C   UNL     1       1.031   9.236  20.281  0.00  0.00    +0.000 A 
ATOM     22  C   UNL     1       1.559   7.960  20.506  0.00  0.00    +0.000 A 
ENDBRANCH  13  16
ENDBRANCH  12  13
ENDBRANCH   3  12
TORSDOF 4
ENDMDL
MODEL 3
REMARK VINA RESULT:      -7.4      3.181      4.027
REMARK  Name = 
REMARK  4 active torsions:
REMARK  status: ('A' for Active; 'I' for Inactive)
REMARK    1  A    between atoms: C_2  and  C_15
REMARK    2  A    between atoms: N_3  and  O_4
REMARK    3  A    between atoms: O_4  and  S_5
REMARK    4  A    between atoms: S_5  and  C_8
REMARK                            x       y       z     vdW  Elec       q    Type
REMARK                         _______ _______ _______ _____ _____    ______ ____
ROOT
ATOM      1  N   UNL     1       7.601   5.946  15.627  0.00  0.00    +0.000 NA
ATOM      2  C   UNL     1       7.044   4.780  15.528  0.00  0.00    +0.000 C 
ATOM      3  N   UNL     1       6.837   3.947  16.601  0.00  0.00    +0.000 N 
ATOM      4  H   UNL     1       7.827   6.100  16.614  0.00  0.00    +0.000 HD
ATOM      5  H   UNL     1       7.001   2.953  16.429  0.00  0.00    +0.000 HD
ENDROOT
BRANCH   2   6
ATOM      6  C   UNL     1       6.581   4.318  14.189  0.00  0.00    +0.000 A 
ATOM      7  C   UNL     1       5.272   3.865  13.994  0.00  0.00    +0.000 A 
ATOM      8  C   UNL     1       4.870   3.464  12.722  0.00  0.00    +0.000 A 
ATOM      9  C   UNL     1       5.793   3.521  11.688  0.00  0.00    +0.000 A 
ATOM     10  N   UNL     1       7.064   3.948  11.844  0.00  0.00    +0.000 NA
ATOM     11  C   UNL     1       7.428   4.350  13.090  0.00  0.00    +0.000 A 
ENDBRANCH   2   6
BRANCH   3  12
ATOM     12  O   UNL     1       7.344   4.397  17.843  0.00  0.00    +0.000 OA
BRANCH  12  13
ATOM     13  S   UNL     1       6.217   5.258  18.685  0.00  0.00    +0.000 S 
ATOM     14  O   UNL     1       6.600   5.268  20.086  0.00  0.00    +0.000 OA
ATOM     15  O   UNL     1       6.027   6.514  17.983  0.00  0.00    +0.000 OA
BRANCH  13  16
ATOM     16  C   UNL     1       4.703   4.331  18.564  0.00  0.00    +0.000 A 
ATOM     17  C   UNL     1       4.523   3.203  19.376  0.00  0.00    +0.000 A 
ATOM     18  C   UNL     1       3.277   2.571  19.413  0.00  0.00    +0.000 A 
ATOM     19  C   UNL     1       2.221   3.069  18.648  0.00  0.00    +0.000 A 
ATOM     20 CL   UNL     1       0.677   2.317  18.731  0.00  0.00    +0.000 Cl
ATOM     21  C   UNL     1       2.402   4.188  17.834  0.00  0.00    +0.000 A 
ATOM     22  C   UNL     1       3.646   4.827  17.793  0.00  0.00    +0.000 A 
ENDBRANCH  13  16
ENDBRANCH  12  13
ENDBRANCH   3  12
TORSDOF 4
ENDMDL
MODEL 4
REMARK VINA RESULT:      -7.3      1.531      2.448
REMARK  Name = 
REMARK  4 active torsions:
REMARK  status: ('A' for Active; 'I' for Inactive)
REMARK    1  A    between atoms: C_2  and  C_15
REMARK    2  A    between atoms: N_3  and  O_4
REMARK    3  A    between atoms: O_4  and  S_5
REMARK    4  A    between atoms: S_5  and  C_8
REMARK                            x       y       z     vdW  Elec       q    Type
REMARK                         _______ _______ _______ _____ _____    ______ ____
ROOT
ATOM      1  N   UNL     1       5.281   3.344  16.680  0.00  0.00    +0.000 NA
ATOM      2  C   UNL     1       5.474   3.951  17.808  0.00  0.00    +0.000 C 
ATOM      3  N   UNL     1       4.987   3.493  19.007  0.00  0.00    +0.000 N 
ATOM      4  H   UNL     1       4.732   2.500  16.871  0.00  0.00    +0.000 HD
ATOM      5  H   UNL     1       4.631   4.208  19.645  0.00  0.00    +0.000 HD
ENDROOT
BRANCH   2   6
ATOM      6  C   UNL     1       6.284   5.203  17.819  0.00  0.00    +0.000 A 
ATOM      7  C   UNL     1       7.265   5.420  18.792  0.00  0.00    +0.000 A 
ATOM      8  C   UNL     1       8.017   6.592  18.754  0.00  0.00    +0.000 A 
ATOM      9  C   UNL     1       7.758   7.512  17.749  0.00  0.00    +0.000 A 
ATOM     10  N   UNL     1       6.816   7.335  16.799  0.00  0.00    +0.000 NA
ATOM     11  C   UNL     1       6.107   6.177  16.845  0.00  0.00    +0.000 A 
ENDBRANCH   2   6
BRANCH   3  12
ATOM     12  O   UNL     1       4.174   2.336  18.946  0.00  0.00    +0.000 OA
BRANCH  12  13
ATOM     13  S   UNL     1       2.583   2.719  18.739  0.00  0.00    +0.000 S 
ATOM     14  O   UNL     1       2.256   2.578  17.331  0.00  0.00    +0.000 OA
ATOM     15  O   UNL     1       1.831   1.972  19.730  0.00  0.00    +0.000 OA
BRANCH  13  16
ATOM     16  C   UNL     1       2.441   4.449  19.137  0.00  0.00    +0.000 A 
ATOM     17  C   UNL     1       2.460   5.394  18.103  0.00  0.00    +0.000 A 
ATOM     18  C   UNL     1       2.179   6.733  18.387  0.00  0.00    +0.000 A 
ATOM     19  C   UNL     1       1.876   7.119  19.694  0.00  0.00    +0.000 A 
ATOM     20 CL   UNL     1       1.486   8.759  20.032  0.00  0.00    +0.000 Cl
ATOM     21  C   UNL     1       1.864   6.178  20.724  0.00  0.00    +0.000 A 
ATOM     22  C   UNL     1       2.143   4.836  20.448  0.00  0.00    +0.000 A 
ENDBRANCH  13  16
ENDBRANCH  12  13
ENDBRANCH   3  12
TORSDOF 4
ENDMDL
MODEL 5
REMARK VINA RESULT:      -7.3      3.194      4.123
REMARK  Name = 
REMARK  4 active torsions:
REMARK  status: ('A' for Active; 'I' for Inactive)
REMARK    1  A    between atoms: C_2  and  C_15
REMARK    2  A    between atoms: N_3  and  O_4
REMARK    3  A    between atoms: O_4  and  S_5
REMARK    4  A    between atoms: S_5  and  C_8
REMARK                            x       y       z     vdW  Elec       q    Type
REMARK                         _______ _______ _______ _____ _____    ______ ____
ROOT
ATOM      1  N   UNL     1       7.604   5.922  15.584  0.00  0.00    +0.000 NA
ATOM      2  C   UNL     1       7.027   4.766  15.493  0.00  0.00    +0.000 C 
ATOM      3  N   UNL     1       6.816   3.939  16.569  0.00  0.00    +0.000 N 
ATOM      4  H   UNL     1       7.841   6.075  16.569  0.00  0.00    +0.000 HD
ATOM      5  H   UNL     1       6.962   2.942  16.398  0.00  0.00    +0.000 HD
ENDROOT
BRANCH   2   6
ATOM      6  C   UNL     1       6.544   4.309  14.159  0.00  0.00    +0.000 A 
ATOM      7  C   UNL     1       7.403   4.263  13.056  0.00  0.00    +0.000 A 
ATOM      8  C   UNL     1       6.920   3.807  11.831  0.00  0.00    +0.000 A 
ATOM      9  C   UNL     1       5.591   3.420  11.748  0.00  0.00    +0.000 A 
ATOM     10  N   UNL     1       4.735   3.456  12.792  0.00  0.00    +0.000 NA
ATOM     11  C   UNL     1       5.233   3.889  13.980  0.00  0.00    +0.000 A 
ENDBRANCH   2   6
BRANCH   3  12
ATOM     12  O   UNL     1       7.341   4.382  17.806  0.00  0.00    +0.000 OA
BRANCH  12  13
ATOM     13  S   UNL     1       6.228   5.243  18.667  0.00  0.00    +0.000 S 
ATOM     14  O   UNL     1       6.631   5.247  20.063  0.00  0.00    +0.000 OA
ATOM     15  O   UNL     1       6.031   6.502  17.972  0.00  0.00    +0.000 OA
BRANCH  13  16
ATOM     16  C   UNL     1       4.710   4.319  18.564  0.00  0.00    +0.000 A 
ATOM     17  C   UNL     1       4.512   3.229  19.421  0.00  0.00    +0.000 A 
ATOM     18  C   UNL     1       3.262   2.605  19.467  0.00  0.00    +0.000 A 
ATOM     19  C   UNL     1       2.220   3.075  18.666  0.00  0.00    +0.000 A 
ATOM     20 CL   UNL     1       0.671   2.335  18.759  0.00  0.00    +0.000 Cl
ATOM     21  C   UNL     1       2.420   4.157  17.808  0.00  0.00    +0.000 A 
ATOM     22  C   UNL     1       3.667   4.787  17.757  0.00  0.00    +0.000 A 
ENDBRANCH  13  16
ENDBRANCH  12  13
ENDBRANCH   3  12
TORSDOF 4
ENDMDL
MODEL 6
REMARK VINA RESULT:      -7.2      0.788      1.352
REMARK  Name = 
REMARK  4 active torsions:
REMARK  status: ('A' for Active; 'I' for Inactive)
REMARK    1  A    between atoms: C_2  and  C_15
REMARK    2  A    between atoms: N_3  and  O_4
REMARK    3  A    between atoms: O_4  and  S_5
REMARK    4  A    between atoms: S_5  and  C_8
REMARK                            x       y       z     vdW  Elec       q    Type
REMARK                         _______ _______ _______ _____ _____    ______ ____
ROOT
ATOM      1  N   UNL     1       5.817   4.879  19.549  0.00  0.00    +0.000 NA
ATOM      2  C   UNL     1       5.263   4.225  18.578  0.00  0.00    +0.000 C 
ATOM      3  N   UNL     1       4.165   3.415  18.740  0.00  0.00    +0.000 N 
ATOM      4  H   UNL     1       5.286   4.678  20.402  0.00  0.00    +0.000 HD
ATOM      5  H   UNL     1       4.173   2.544  18.205  0.00  0.00    +0.000 HD
ENDROOT
BRANCH   2   6
ATOM      6  C   UNL     1       5.823   4.369  17.204  0.00  0.00    +0.000 A 
ATOM      7  C   UNL     1       5.000   4.294  16.076  0.00  0.00    +0.000 A 
ATOM      8  C   UNL     1       5.558   4.458  14.810  0.00  0.00    +0.000 A 
ATOM      9  C   UNL     1       6.923   4.683  14.714  0.00  0.00    +0.000 A 
ATOM     10  N   UNL     1       7.746   4.756  15.781  0.00  0.00    +0.000 NA
ATOM     11  C   UNL     1       7.176   4.611  17.006  0.00  0.00    +0.000 A 
ENDBRANCH   2   6
BRANCH   3  12
ATOM     12  O   UNL     1       3.700   3.258  20.067  0.00  0.00    +0.000 OA
BRANCH  12  13
ATOM     13  S   UNL     1       2.163   3.831  20.246  0.00  0.00    +0.000 S 
ATOM     14  O   UNL     1       1.302   3.136  19.305  0.00  0.00    +0.000 OA
ATOM     15  O   UNL     1       1.856   3.794  21.664  0.00  0.00    +0.000 OA
BRANCH  13  16
ATOM     16  C   UNL     1       2.217   5.538  19.744  0.00  0.00    +0.000 A 
ATOM     17  C   UNL     1       2.378   5.848  18.387  0.00  0.00    +0.000 A 
ATOM     18  C   UNL     1       2.251   7.174  17.962  0.00  0.00    +0.000 A 
ATOM     19  C   UNL     1       1.958   8.176  18.888  0.00  0.00    +0.000 A 
ATOM     20 CL   UNL     1       1.756   9.798  18.356  0.00  0.00    +0.000 Cl
ATOM     21  C   UNL     1       1.804   7.867  20.241  0.00  0.00    +0.000 A 
ATOM     22  C   UNL     1       1.929   6.543  20.673  0.00  0.00    +0.000 A 
ENDBRANCH  13  16
ENDBRANCH  12  13
ENDBRANCH   3  12
TORSDOF 4
ENDMDL
MODEL 7
REMARK VINA RESULT:      -7.2      2.670      5.149
REMARK  Name = 
REMARK  4 active torsions:
REMARK  status: ('A' for Active; 'I' for Inactive)
REMARK    1  A    between atoms: C_2  and  C_15
REMARK    2  A    between atoms: N_3  and  O_4
REMARK    3  A    between atoms: O_4  and  S_5
REMARK    4  A    between atoms: S_5  and  C_8
REMARK                            x       y       z     vdW  Elec       q    Type
REMARK                         _______ _______ _______ _____ _____    ______ ____
ROOT
ATOM      1  N   UNL     1       2.533   5.354  21.203  0.00  0.00    +0.000 NA
ATOM      2  C   UNL     1       2.132   5.675  20.014  0.00  0.00    +0.000 C 
ATOM      3  N   UNL     1       1.891   4.754  19.023  0.00  0.00    +0.000 N 
ATOM      4  H   UNL     1       2.615   4.334  21.240  0.00  0.00    +0.000 HD
ATOM      5  H   UNL     1       2.189   5.024  18.083  0.00  0.00    +0.000 HD
ENDROOT
BRANCH   2   6
ATOM      6  C   UNL     1       1.895   7.112  19.699  0.00  0.00    +0.000 A 
ATOM      7  C   UNL     1       2.189   7.634  18.435  0.00  0.00    +0.000 A 
ATOM      8  C   UNL     1       1.931   8.978  18.173  0.00  0.00    +0.000 A 
ATOM      9  C   UNL     1       1.395   9.758  19.186  0.00  0.00    +0.000 A 
ATOM     10  N   UNL     1       1.105   9.287  20.418  0.00  0.00    +0.000 NA
ATOM     11  C   UNL     1       1.349   7.970  20.645  0.00  0.00    +0.000 A 
ENDBRANCH   2   6
BRANCH   3  12
ATOM     12  O   UNL     1       2.185   3.407  19.342  0.00  0.00    +0.000 OA
BRANCH  12  13
ATOM     13  S   UNL     1       3.154   2.708  18.205  0.00  0.00    +0.000 S 
ATOM     14  O   UNL     1       3.730   1.501  18.771  0.00  0.00    +0.000 OA
ATOM     15  O   UNL     1       2.384   2.629  16.977  0.00  0.00    +0.000 OA
BRANCH  13  16
ATOM     16  C   UNL     1       4.493   3.850  17.936  0.00  0.00    +0.000 A 
ATOM     17  C   UNL     1       4.587   4.520  16.710  0.00  0.00    +0.000 A 
ATOM     18  C   UNL     1       5.528   5.541  16.550  0.00  0.00    +0.000 A 
ATOM     19  C   UNL     1       6.362   5.890  17.613  0.00  0.00    +0.000 A 
ATOM     20 CL   UNL     1       7.487   7.177  17.430  0.00  0.00    +0.000 Cl
ATOM     21  C   UNL     1       6.273   5.218  18.833  0.00  0.00    +0.000 A 
ATOM     22  C   UNL     1       5.332   4.197  19.001  0.00  0.00    +0.000 A 
ENDBRANCH  13  16
ENDBRANCH  12  13
ENDBRANCH   3  12
TORSDOF 4
ENDMDL
MODEL 8
REMARK VINA RESULT:      -7.2      1.822      2.677
REMARK  Name = 
REMARK  4 active torsions:
REMARK  status: ('A' for Active; 'I' for Inactive)
REMARK    1  A    between atoms: C_2  and  C_15
REMARK    2  A    between atoms: N_3  and  O_4
REMARK    3  A    between atoms: O_4  and  S_5
REMARK    4  A    between atoms: S_5  and  C_8
REMARK                            x       y       z     vdW  Elec       q    Type
REMARK                         _______ _______ _______ _____ _____    ______ ____
ROOT
ATOM      1  N   UNL     1       5.463   3.645  16.271  0.00  0.00    +0.000 NA
ATOM      2  C   UNL     1       5.558   4.084  17.485  0.00  0.00    +0.000 C 
ATOM      3  N   UNL     1       4.890   3.523  18.547  0.00  0.00    +0.000 N 
ATOM      4  H   UNL     1       4.832   2.838  16.279  0.00  0.00    +0.000 HD
ATOM      5  H   UNL     1       4.511   4.181  19.231  0.00  0.00    +0.000 HD
ENDROOT
BRANCH   2   6
ATOM      6  C   UNL     1       6.452   5.245  17.762  0.00  0.00    +0.000 A 
ATOM      7  C   UNL     1       6.405   6.398  16.971  0.00  0.00    +0.000 A 
ATOM      8  C   UNL     1       7.240   7.471  17.277  0.00  0.00    +0.000 A 
ATOM      9  C   UNL     1       8.101   7.351  18.357  0.00  0.00    +0.000 A 
ATOM     10  N   UNL     1       8.175   6.251  19.136  0.00  0.00    +0.000 NA
ATOM     11  C   UNL     1       7.339   5.224  18.829  0.00  0.00    +0.000 A 
ENDBRANCH   2   6
BRANCH   3  12
ATOM     12  O   UNL     1       4.007   2.463  18.234  0.00  0.00    +0.000 OA
BRANCH  12  13
ATOM     13  S   UNL     1       2.460   2.999  18.025  0.00  0.00    +0.000 S 
ATOM     14  O   UNL     1       2.263   3.293  16.616  0.00  0.00    +0.000 OA
ATOM     15  O   UNL     1       1.586   2.052  18.692  0.00  0.00    +0.000 OA
BRANCH  13  16
ATOM     16  C   UNL     1       2.358   4.546  18.900  0.00  0.00    +0.000 A 
ATOM     17  C   UNL     1       2.545   5.744  18.199  0.00  0.00    +0.000 A 
ATOM     18  C   UNL     1       2.299   6.964  18.836  0.00  0.00    +0.000 A 
ATOM     19  C   UNL     1       1.863   6.979  20.161  0.00  0.00    +0.000 A 
ATOM     20 CL   UNL     1       1.515   8.479  20.928  0.00  0.00    +0.000 Cl
ATOM     21  C   UNL     1       1.682   5.786  20.862  0.00  0.00    +0.000 A 
ATOM     22  C   UNL     1       1.925   4.562  20.230  0.00  0.00    +0.000 A 
ENDBRANCH  13  16
ENDBRANCH  12  13
ENDBRANCH   3  12
TORSDOF 4
ENDMDL
MODEL 9
REMARK VINA RESULT:      -7.2      1.845      2.204
REMARK  Name = 
REMARK  4 active torsions:
REMARK  status: ('A' for Active; 'I' for Inactive)
REMARK    1  A    between atoms: C_2  and  C_15
REMARK    2  A    between atoms: N_3  and  O_4
REMARK    3  A    between atoms: O_4  and  S_5
REMARK    4  A    between atoms: S_5  and  C_8
REMARK                            x       y       z     vdW  Elec       q    Type
REMARK                         _______ _______ _______ _____ _____    ______ ____
ROOT
ATOM      1  N   UNL     1       5.682   3.600  18.726  0.00  0.00    +0.000 NA
ATOM      2  C   UNL     1       5.454   4.639  17.986  0.00  0.00    +0.000 C 
ATOM      3  N   UNL     1       4.761   5.741  18.422  0.00  0.00    +0.000 N 
ATOM      4  H   UNL     1       5.267   3.776  19.646  0.00  0.00    +0.000 HD
ATOM      5  H   UNL     1       4.124   6.163  17.743  0.00  0.00    +0.000 HD
ENDROOT
BRANCH   2   6
ATOM      6  C   UNL     1       5.987   4.658  16.593  0.00  0.00    +0.000 A 
ATOM      7  C   UNL     1       5.343   3.965  15.563  0.00  0.00    +0.000 A 
ATOM      8  C   UNL     1       5.859   4.027  14.271  0.00  0.00    +0.000 A 
ATOM      9  C   UNL     1       7.007   4.775  14.052  0.00  0.00    +0.000 A 
ATOM     10  N   UNL     1       7.655   5.451  15.025  0.00  0.00    +0.000 NA
ATOM     11  C   UNL     1       7.124   5.389  16.274  0.00  0.00    +0.000 A 
ENDBRANCH   2   6
BRANCH   3  12
ATOM     12  O   UNL     1       4.222   5.659  19.728  0.00  0.00    +0.000 OA
BRANCH  12  13
ATOM     13  S   UNL     1       2.576   5.545  19.701  0.00  0.00    +0.000 S 
ATOM     14  O   UNL     1       2.189   4.747  18.551  0.00  0.00    +0.000 OA
ATOM     15  O   UNL     1       2.155   5.143  21.031  0.00  0.00    +0.000 OA
BRANCH  13  16
ATOM     16  C   UNL     1       1.977   7.197  19.416  0.00  0.00    +0.000 A 
ATOM     17  C   UNL     1       1.470   7.938  20.492  0.00  0.00    +0.000 A 
ATOM     18  C   UNL     1       1.158   9.289  20.314  0.00  0.00    +0.000 A 
ATOM     19  C   UNL     1       1.359   9.891  19.072  0.00  0.00    +0.000 A 
ATOM     20 CL   UNL     1       1.018  11.565  18.869  0.00  0.00    +0.000 Cl
ATOM     21  C   UNL     1       1.859   9.152  17.999  0.00  0.00    +0.000 A 
ATOM     22  C   UNL     1       2.175   7.800  18.169  0.00  0.00    +0.000 A 
ENDBRANCH  13  16
ENDBRANCH  12  13
ENDBRANCH   3  12
TORSDOF 4
ENDMDL
