MODEL 1
REMARK VINA RESULT:      -7.1      0.000      0.000
REMARK  Name = 
REMARK  7 active torsions:
REMARK  status: ('A' for Active; 'I' for Inactive)
REMARK    1  A    between atoms: C_1  and  S_2
REMARK    2  A    between atoms: S_2  and  C_3
REMARK    3  A    between atoms: C_6  and  C_7
REMARK    4  A    between atoms: C_11  and  N_12
REMARK    5  A    between atoms: N_12  and  C_13
REMARK    6  A    between atoms: C_13  and  N_15
REMARK    7  A    between atoms: N_15  and  N_16
REMARK                            x       y       z     vdW  Elec       q    Type
REMARK                         _______ _______ _______ _____ _____    ______ ____
ROOT
ATOM      1  C   UNL     1       6.616   4.938  16.455  0.00  0.00    +0.000 A 
ATOM      2  C   UNL     1       7.706   4.791  17.326  0.00  0.00    +0.000 A 
ATOM      3  C   UNL     1       7.537   4.965  18.703  0.00  0.00    +0.000 A 
ATOM      4  C   UNL     1       6.285   5.291  19.220  0.00  0.00    +0.000 A 
ATOM      5  C   UNL     1       5.196   5.478  18.367  0.00  0.00    +0.000 A 
ATOM      6  C   UNL     1       5.365   5.278  16.991  0.00  0.00    +0.000 A 
ENDROOT
BRANCH   1  10
ATOM      7  C   UNL     1       6.456   3.799  13.134  0.00  0.00    +0.000 A 
ATOM      8  N   UNL     1       7.277   4.807  12.924  0.00  0.00    +0.000 NA
ATOM      9  N   UNL     1       7.467   5.425  14.140  0.00  0.00    +0.000 NA
ATOM     10  C   UNL     1       6.746   4.750  15.015  0.00  0.00    +0.000 A 
ATOM     11  O   UNL     1       6.064   3.711  14.444  0.00  0.00    +0.000 OA
BRANCH   7  13
ATOM     12  C   UNL     1       4.288   3.370  11.542  0.00  0.00    +0.000 C 
ATOM     13  S   UNL     1       5.915   2.681  11.920  0.00  0.00    +0.000 S 
ENDBRANCH   7  13
ENDBRANCH   1  10
BRANCH   5  14
ATOM     14  N   UNL     1       3.938   5.757  18.943  0.00  0.00    +0.000 N 
ATOM     15  H   UNL     1       3.899   5.728  19.957  0.00  0.00    +0.000 HD
BRANCH  14  16
ATOM     16  C   UNL     1       2.801   6.218  18.325  0.00  0.00    +0.000 C 
ATOM     17  S   UNL     1       2.380   7.814  18.066  0.00  0.00    +0.000 S 
BRANCH  16  18
ATOM     18  N   UNL     1       1.906   5.256  17.932  0.00  0.00    +0.000 N 
ATOM     19  H   UNL     1       1.838   5.115  16.929  0.00  0.00    +0.000 HD
BRANCH  18  20
ATOM     20  N   UNL     1       1.738   4.114  18.650  0.00  0.00    +0.000 N 
ATOM     21  C   UNL     1       1.971   2.840  18.251  0.00  0.00    +0.000 A 
ATOM     22  N   UNL     1       1.599   2.023  19.212  0.00  0.00    +0.000 NA
ATOM     23  N   UNL     1       1.070   2.788  20.232  0.00  0.00    +0.000 NA
ATOM     24  C   UNL     1       1.139   4.049  19.866  0.00  0.00    +0.000 A 
ENDBRANCH  18  20
ENDBRANCH  16  18
ENDBRANCH  14  16
ENDBRANCH   5  14
TORSDOF 6
ENDMDL
MODEL 2
REMARK VINA RESULT:      -7.0      1.755      2.770
REMARK  Name = 
REMARK  7 active torsions:
REMARK  status: ('A' for Active; 'I' for Inactive)
REMARK    1  A    between atoms: C_1  and  S_2
REMARK    2  A    between atoms: S_2  and  C_3
REMARK    3  A    between atoms: C_6  and  C_7
REMARK    4  A    between atoms: C_11  and  N_12
REMARK    5  A    between atoms: N_12  and  C_13
REMARK    6  A    between atoms: C_13  and  N_15
REMARK    7  A    between atoms: N_15  and  N_16
REMARK                            x       y       z     vdW  Elec       q    Type
REMARK                         _______ _______ _______ _____ _____    ______ ____
ROOT
ATOM      1  C   UNL     1       6.606   4.961  16.512  0.00  0.00    +0.000 A 
ATOM      2  C   UNL     1       7.534   5.685  17.273  0.00  0.00    +0.000 A 
ATOM      3  C   UNL     1       7.354   5.835  18.651  0.00  0.00    +0.000 A 
ATOM      4  C   UNL     1       6.246   5.268  19.279  0.00  0.00    +0.000 A 
ATOM      5  C   UNL     1       5.291   4.575  18.533  0.00  0.00    +0.000 A 
ATOM      6  C   UNL     1       5.489   4.407  17.157  0.00  0.00    +0.000 A 
ENDROOT
BRANCH   1  10
ATOM      7  C   UNL     1       6.507   3.817  13.190  0.00  0.00    +0.000 A 
ATOM      8  N   UNL     1       7.342   4.816  12.996  0.00  0.00    +0.000 NA
ATOM      9  N   UNL     1       7.511   5.434  14.215  0.00  0.00    +0.000 NA
ATOM     10  C   UNL     1       6.765   4.769  15.075  0.00  0.00    +0.000 A 
ATOM     11  O   UNL     1       6.085   3.735  14.491  0.00  0.00    +0.000 OA
BRANCH   7  13
ATOM     12  C   UNL     1       4.357   3.387  11.574  0.00  0.00    +0.000 C 
ATOM     13  S   UNL     1       5.981   2.701  11.966  0.00  0.00    +0.000 S 
ENDBRANCH   7  13
ENDBRANCH   1  10
BRANCH   5  14
ATOM     14  N   UNL     1       4.214   3.977  19.221  0.00  0.00    +0.000 N 
ATOM     15  H   UNL     1       4.414   3.089  19.671  0.00  0.00    +0.000 HD
BRANCH  14  16
ATOM     16  C   UNL     1       2.977   4.509  19.496  0.00  0.00    +0.000 C 
ATOM     17  S   UNL     1       1.497   3.895  19.022  0.00  0.00    +0.000 S 
BRANCH  16  18
ATOM     18  N   UNL     1       2.979   5.692  20.189  0.00  0.00    +0.000 N 
ATOM     19  H   UNL     1       3.747   5.808  20.841  0.00  0.00    +0.000 HD
BRANCH  18  20
ATOM     20  N   UNL     1       2.591   6.854  19.599  0.00  0.00    +0.000 N 
ATOM     21  C   UNL     1       1.796   7.822  20.116  0.00  0.00    +0.000 A 
ATOM     22  N   UNL     1       1.592   8.737  19.193  0.00  0.00    +0.000 NA
ATOM     23  N   UNL     1       2.232   8.322  18.042  0.00  0.00    +0.000 NA
ATOM     24  C   UNL     1       2.812   7.169  18.298  0.00  0.00    +0.000 A 
ENDBRANCH  18  20
ENDBRANCH  16  18
ENDBRANCH  14  16
ENDBRANCH   5  14
TORSDOF 6
ENDMDL
MODEL 3
REMARK VINA RESULT:      -7.0      1.539      1.571
REMARK  Name = 
REMARK  7 active torsions:
REMARK  status: ('A' for Active; 'I' for Inactive)
REMARK    1  A    between atoms: C_1  and  S_2
REMARK    2  A    between atoms: S_2  and  C_3
REMARK    3  A    between atoms: C_6  and  C_7
REMARK    4  A    between atoms: C_11  and  N_12
REMARK    5  A    between atoms: N_12  and  C_13
REMARK    6  A    between atoms: C_13  and  N_15
REMARK    7  A    between atoms: N_15  and  N_16
REMARK                            x       y       z     vdW  Elec       q    Type
REMARK                         _______ _______ _______ _____ _____    ______ ____
ROOT
ATOM      1  C   UNL     1       6.427   4.950  15.916  0.00  0.00    +0.000 A 
ATOM      2  C   UNL     1       7.458   4.825  16.859  0.00  0.00    +0.000 A 
ATOM      3  C   UNL     1       7.222   5.111  18.207  0.00  0.00    +0.000 A 
ATOM      4  C   UNL     1       5.959   5.530  18.623  0.00  0.00    +0.000 A 
ATOM      5  C   UNL     1       4.930   5.696  17.695  0.00  0.00    +0.000 A 
ATOM      6  C   UNL     1       5.165   5.384  16.351  0.00  0.00    +0.000 A 
ENDROOT
BRANCH   1  10
ATOM      7  C   UNL     1       6.357   3.598  12.673  0.00  0.00    +0.000 A 
ATOM      8  N   UNL     1       7.297   4.495  12.458  0.00  0.00    +0.000 NA
ATOM      9  N   UNL     1       7.475   5.175  13.643  0.00  0.00    +0.000 NA
ATOM     10  C   UNL     1       6.628   4.646  14.505  0.00  0.00    +0.000 A 
ATOM     11  O   UNL     1       5.873   3.646  13.954  0.00  0.00    +0.000 OA
BRANCH   7  13
ATOM     12  C   UNL     1       4.115   3.109  11.207  0.00  0.00    +0.000 C 
ATOM     13  S   UNL     1       5.775   2.459  11.498  0.00  0.00    +0.000 S 
ENDBRANCH   7  13
ENDBRANCH   1  10
BRANCH   5  14
ATOM     14  N   UNL     1       3.656   6.072  18.173  0.00  0.00    +0.000 N 
ATOM     15  H   UNL     1       3.411   7.050  18.058  0.00  0.00    +0.000 HD
BRANCH  14  16
ATOM     16  C   UNL     1       2.644   5.264  18.630  0.00  0.00    +0.000 C 
ATOM     17  S   UNL     1       1.554   4.404  17.699  0.00  0.00    +0.000 S 
BRANCH  16  18
ATOM     18  N   UNL     1       2.494   5.208  19.992  0.00  0.00    +0.000 N 
ATOM     19  H   UNL     1       1.707   5.730  20.360  0.00  0.00    +0.000 HD
BRANCH  18  20
ATOM     20  N   UNL     1       2.758   4.068  20.683  0.00  0.00    +0.000 N 
ATOM     21  C   UNL     1       3.736   3.159  20.443  0.00  0.00    +0.000 A 
ATOM     22  N   UNL     1       3.595   2.158  21.284  0.00  0.00    +0.000 NA
ATOM     23  N   UNL     1       2.471   2.405  22.048  0.00  0.00    +0.000 NA
ATOM     24  C   UNL     1       1.964   3.554  21.655  0.00  0.00    +0.000 A 
ENDBRANCH  18  20
ENDBRANCH  16  18
ENDBRANCH  14  16
ENDBRANCH   5  14
TORSDOF 6
ENDMDL
MODEL 4
REMARK VINA RESULT:      -7.0      1.710      2.445
REMARK  Name = 
REMARK  7 active torsions:
REMARK  status: ('A' for Active; 'I' for Inactive)
REMARK    1  A    between atoms: C_1  and  S_2
REMARK    2  A    between atoms: S_2  and  C_3
REMARK    3  A    between atoms: C_6  and  C_7
REMARK    4  A    between atoms: C_11  and  N_12
REMARK    5  A    between atoms: N_12  and  C_13
REMARK    6  A    between atoms: C_13  and  N_15
REMARK    7  A    between atoms: N_15  and  N_16
REMARK                            x       y       z     vdW  Elec       q    Type
REMARK                         _______ _______ _______ _____ _____    ______ ____
ROOT
ATOM      1  C   UNL     1       6.697   5.018  16.498  0.00  0.00    +0.000 A 
ATOM      2  C   UNL     1       7.474   5.947  17.205  0.00  0.00    +0.000 A 
ATOM      3  C   UNL     1       7.312   6.098  18.586  0.00  0.00    +0.000 A 
ATOM      4  C   UNL     1       6.371   5.329  19.269  0.00  0.00    +0.000 A 
ATOM      5  C   UNL     1       5.563   4.425  18.577  0.00  0.00    +0.000 A 
ATOM      6  C   UNL     1       5.747   4.260  17.199  0.00  0.00    +0.000 A 
ENDROOT
BRANCH   1  10
ATOM      7  C   UNL     1       6.586   3.851  13.184  0.00  0.00    +0.000 A 
ATOM      8  N   UNL     1       7.404   4.862  12.976  0.00  0.00    +0.000 NA
ATOM      9  N   UNL     1       7.575   5.491  14.190  0.00  0.00    +0.000 NA
ATOM     10  C   UNL     1       6.846   4.820  15.061  0.00  0.00    +0.000 A 
ATOM     11  O   UNL     1       6.177   3.771  14.490  0.00  0.00    +0.000 OA
BRANCH   7  13
ATOM     12  C   UNL     1       4.400   3.334  11.644  0.00  0.00    +0.000 C 
ATOM     13  S   UNL     1       6.067   2.721  11.972  0.00  0.00    +0.000 S 
ENDBRANCH   7  13
ENDBRANCH   1  10
BRANCH   5  14
ATOM     14  N   UNL     1       4.661   3.634  19.320  0.00  0.00    +0.000 N 
ATOM     15  H   UNL     1       4.984   3.336  20.235  0.00  0.00    +0.000 HD
BRANCH  14  16
ATOM     16  C   UNL     1       3.347   3.345  19.039  0.00  0.00    +0.000 C 
ATOM     17  S   UNL     1       2.784   2.149  18.016  0.00  0.00    +0.000 S 
BRANCH  16  18
ATOM     18  N   UNL     1       2.418   4.165  19.627  0.00  0.00    +0.000 N 
ATOM     19  H   UNL     1       2.263   3.999  20.615  0.00  0.00    +0.000 HD
BRANCH  18  20
ATOM     20  N   UNL     1       2.310   5.472  19.273  0.00  0.00    +0.000 N 
ATOM     21  C   UNL     1       2.434   6.010  18.035  0.00  0.00    +0.000 A 
ATOM     22  N   UNL     1       2.347   7.319  18.134  0.00  0.00    +0.000 NA
ATOM     23  N   UNL     1       2.213   7.631  19.472  0.00  0.00    +0.000 NA
ATOM     24  C   UNL     1       2.217   6.503  20.150  0.00  0.00    +0.000 A 
ENDBRANCH  18  20
ENDBRANCH  16  18
ENDBRANCH  14  16
ENDBRANCH   5  14
TORSDOF 6
ENDMDL
MODEL 5
REMARK VINA RESULT:      -6.9      3.858      7.514
REMARK  Name = 
REMARK  7 active torsions:
REMARK  status: ('A' for Active; 'I' for Inactive)
REMARK    1  A    between atoms: C_1  and  S_2
REMARK    2  A    between atoms: S_2  and  C_3
REMARK    3  A    between atoms: C_6  and  C_7
REMARK    4  A    between atoms: C_11  and  N_12
REMARK    5  A    between atoms: N_12  and  C_13
REMARK    6  A    between atoms: C_13  and  N_15
REMARK    7  A    between atoms: N_15  and  N_16
REMARK                            x       y       z     vdW  Elec       q    Type
REMARK                         _______ _______ _______ _____ _____    ______ ____
ROOT
ATOM      1  C   UNL     1       2.433   5.609  20.167  0.00  0.00    +0.000 A 
ATOM      2  C   UNL     1       1.731   4.658  20.923  0.00  0.00    +0.000 A 
ATOM      3  C   UNL     1       2.196   3.342  21.011  0.00  0.00    +0.000 A 
ATOM      4  C   UNL     1       3.360   2.964  20.343  0.00  0.00    +0.000 A 
ATOM      5  C   UNL     1       4.053   3.886  19.557  0.00  0.00    +0.000 A 
ATOM      6  C   UNL     1       3.596   5.208  19.492  0.00  0.00    +0.000 A 
ENDROOT
BRANCH   1  10
ATOM      7  C   UNL     1       0.990   8.776  20.654  0.00  0.00    +0.000 A 
ATOM      8  N   UNL     1       1.488   9.003  19.456  0.00  0.00    +0.000 NA
ATOM      9  N   UNL     1       2.136   7.850  19.070  0.00  0.00    +0.000 NA
ATOM     10  C   UNL     1       1.990   6.994  20.062  0.00  0.00    +0.000 A 
ATOM     11  O   UNL     1       1.284   7.518  21.111  0.00  0.00    +0.000 OA
BRANCH   7  13
ATOM     12  C   UNL     1      -0.427  11.072  20.282  0.00  0.00    +0.000 C 
ATOM     13  S   UNL     1       0.054   9.910  21.579  0.00  0.00    +0.000 S 
ENDBRANCH   7  13
ENDBRANCH   1  10
BRANCH   5  14
ATOM     14  N   UNL     1       5.252   3.469  18.942  0.00  0.00    +0.000 N 
ATOM     15  H   UNL     1       5.700   2.655  19.352  0.00  0.00    +0.000 HD
BRANCH  14  16
ATOM     16  C   UNL     1       5.812   3.918  17.770  0.00  0.00    +0.000 C 
ATOM     17  S   UNL     1       5.102   3.912  16.257  0.00  0.00    +0.000 S 
BRANCH  16  18
ATOM     18  N   UNL     1       7.104   4.367  17.861  0.00  0.00    +0.000 N 
ATOM     19  H   UNL     1       7.788   3.816  17.354  0.00  0.00    +0.000 HD
BRANCH  18  20
ATOM     20  N   UNL     1       7.388   5.696  17.882  0.00  0.00    +0.000 N 
ATOM     21  C   UNL     1       7.226   6.595  16.879  0.00  0.00    +0.000 A 
ATOM     22  N   UNL     1       7.702   7.755  17.274  0.00  0.00    +0.000 NA
ATOM     23  N   UNL     1       8.226   7.586  18.540  0.00  0.00    +0.000 NA
ATOM     24  C   UNL     1       8.049   6.329  18.883  0.00  0.00    +0.000 A 
ENDBRANCH  18  20
ENDBRANCH  16  18
ENDBRANCH  14  16
ENDBRANCH   5  14
TORSDOF 6
ENDMDL
MODEL 6
REMARK VINA RESULT:      -6.9      4.850      8.674
REMARK  Name = 
REMARK  7 active torsions:
REMARK  status: ('A' for Active; 'I' for Inactive)
REMARK    1  A    between atoms: C_1  and  S_2
REMARK    2  A    between atoms: S_2  and  C_3
REMARK    3  A    between atoms: C_6  and  C_7
REMARK    4  A    between atoms: C_11  and  N_12
REMARK    5  A    between atoms: N_12  and  C_13
REMARK    6  A    between atoms: C_13  and  N_15
REMARK    7  A    between atoms: N_15  and  N_16
REMARK                            x       y       z     vdW  Elec       q    Type
REMARK                         _______ _______ _______ _____ _____    ______ ____
ROOT
ATOM      1  C   UNL     1       1.318   8.826  20.156  0.00  0.00    +0.000 A 
ATOM      2  C   UNL     1       1.204   9.507  18.936  0.00  0.00    +0.000 A 
ATOM      3  C   UNL     1       1.721   8.946  17.763  0.00  0.00    +0.000 A 
ATOM      4  C   UNL     1       2.358   7.706  17.801  0.00  0.00    +0.000 A 
ATOM      5  C   UNL     1       2.513   7.030  19.012  0.00  0.00    +0.000 A 
ATOM      6  C   UNL     1       1.972   7.584  20.178  0.00  0.00    +0.000 A 
ENDROOT
BRANCH   1  10
ATOM      7  C   UNL     1      -0.493  10.554  22.623  0.00  0.00    +0.000 A 
ATOM      8  N   UNL     1       0.376   9.980  23.428  0.00  0.00    +0.000 NA
ATOM      9  N   UNL     1       1.202   9.211  22.637  0.00  0.00    +0.000 NA
ATOM     10  C   UNL     1       0.780   9.368  21.398  0.00  0.00    +0.000 A 
ATOM     11  O   UNL     1      -0.305  10.198  21.313  0.00  0.00    +0.000 OA
BRANCH   7  13
ATOM     12  C   UNL     1      -2.223  12.349  21.525  0.00  0.00    +0.000 C 
ATOM     13  S   UNL     1      -1.744  11.651  23.121  0.00  0.00    +0.000 S 
ENDBRANCH   7  13
ENDBRANCH   1  10
BRANCH   5  14
ATOM     14  N   UNL     1       3.120   5.756  18.990  0.00  0.00    +0.000 N 
ATOM     15  H   UNL     1       3.147   5.263  19.877  0.00  0.00    +0.000 HD
BRANCH  14  16
ATOM     16  C   UNL     1       3.537   5.028  17.902  0.00  0.00    +0.000 C 
ATOM     17  S   UNL     1       2.994   3.516  17.443  0.00  0.00    +0.000 S 
BRANCH  16  18
ATOM     18  N   UNL     1       4.538   5.595  17.155  0.00  0.00    +0.000 N 
ATOM     19  H   UNL     1       4.413   6.579  16.945  0.00  0.00    +0.000 HD
BRANCH  18  20
ATOM     20  N   UNL     1       5.837   5.240  17.335  0.00  0.00    +0.000 N 
ATOM     21  C   UNL     1       6.740   4.884  16.388  0.00  0.00    +0.000 A 
ATOM     22  N   UNL     1       7.857   4.529  16.983  0.00  0.00    +0.000 NA
ATOM     23  N   UNL     1       7.652   4.612  18.346  0.00  0.00    +0.000 NA
ATOM     24  C   UNL     1       6.417   5.020  18.542  0.00  0.00    +0.000 A 
ENDBRANCH  18  20
ENDBRANCH  16  18
ENDBRANCH  14  16
ENDBRANCH   5  14
TORSDOF 6
ENDMDL
MODEL 7
REMARK VINA RESULT:      -6.9      5.113      9.052
REMARK  Name = 
REMARK  7 active torsions:
REMARK  status: ('A' for Active; 'I' for Inactive)
REMARK    1  A    between atoms: C_1  and  S_2
REMARK    2  A    between atoms: S_2  and  C_3
REMARK    3  A    between atoms: C_6  and  C_7
REMARK    4  A    between atoms: C_11  and  N_12
REMARK    5  A    between atoms: N_12  and  C_13
REMARK    6  A    between atoms: C_13  and  N_15
REMARK    7  A    between atoms: N_15  and  N_16
REMARK                            x       y       z     vdW  Elec       q    Type
REMARK                         _______ _______ _______ _____ _____    ______ ____
ROOT
ATOM      1  C   UNL     1       1.023   9.156  20.275  0.00  0.00    +0.000 A 
ATOM      2  C   UNL     1       0.983   9.665  18.969  0.00  0.00    +0.000 A 
ATOM      3  C   UNL     1       1.639   8.997  17.930  0.00  0.00    +0.000 A 
ATOM      4  C   UNL     1       2.342   7.820  18.188  0.00  0.00    +0.000 A 
ATOM      5  C   UNL     1       2.423   7.318  19.488  0.00  0.00    +0.000 A 
ATOM      6  C   UNL     1       1.744   7.978  20.519  0.00  0.00    +0.000 A 
ENDROOT
BRANCH   1  10
ATOM      7  C   UNL     1      -1.033  11.143  22.320  0.00  0.00    +0.000 A 
ATOM      8  N   UNL     1      -0.321  10.596  23.283  0.00  0.00    +0.000 NA
ATOM      9  N   UNL     1       0.570   9.735  22.679  0.00  0.00    +0.000 NA
ATOM     10  C   UNL     1       0.340   9.814  21.382  0.00  0.00    +0.000 A 
ATOM     11  O   UNL     1      -0.677  10.680  21.080  0.00  0.00    +0.000 OA
BRANCH   7  13
ATOM     12  C   UNL     1      -1.366  13.604  23.437  0.00  0.00    +0.000 C 
ATOM     13  S   UNL     1      -2.284  12.326  22.551  0.00  0.00    +0.000 S 
ENDBRANCH   7  13
ENDBRANCH   1  10
BRANCH   5  14
ATOM     14  N   UNL     1       3.103   6.097  19.688  0.00  0.00    +0.000 N 
ATOM     15  H   UNL     1       3.302   5.855  20.654  0.00  0.00    +0.000 HD
BRANCH  14  16
ATOM     16  C   UNL     1       3.393   5.121  18.766  0.00  0.00    +0.000 C 
ATOM     17  S   UNL     1       2.294   4.208  17.899  0.00  0.00    +0.000 S 
BRANCH  16  18
ATOM     18  N   UNL     1       4.724   4.845  18.589  0.00  0.00    +0.000 N 
ATOM     19  H   UNL     1       4.976   3.866  18.678  0.00  0.00    +0.000 HD
BRANCH  18  20
ATOM     20  N   UNL     1       5.465   5.513  17.666  0.00  0.00    +0.000 N 
ATOM     21  C   UNL     1       5.029   6.121  16.535  0.00  0.00    +0.000 A 
ATOM     22  N   UNL     1       6.071   6.574  15.873  0.00  0.00    +0.000 NA
ATOM     23  N   UNL     1       7.205   6.205  16.569  0.00  0.00    +0.000 NA
ATOM     24  C   UNL     1       6.821   5.543  17.639  0.00  0.00    +0.000 A 
ENDBRANCH  18  20
ENDBRANCH  16  18
ENDBRANCH  14  16
ENDBRANCH   5  14
TORSDOF 6
ENDMDL
MODEL 8
REMARK VINA RESULT:      -6.9      4.282      8.077
REMARK  Name = 
REMARK  7 active torsions:
REMARK  status: ('A' for Active; 'I' for Inactive)
REMARK    1  A    between atoms: C_1  and  S_2
REMARK    2  A    between atoms: S_2  and  C_3
REMARK    3  A    between atoms: C_6  and  C_7
REMARK    4  A    between atoms: C_11  and  N_12
REMARK    5  A    between atoms: N_12  and  C_13
REMARK    6  A    between atoms: C_13  and  N_15
REMARK    7  A    between atoms: N_15  and  N_16
REMARK                            x       y       z     vdW  Elec       q    Type
REMARK                         _______ _______ _______ _____ _____    ______ ____
ROOT
ATOM      1  C   UNL     1       1.988   8.190  19.112  0.00  0.00    +0.000 A 
ATOM      2  C   UNL     1       2.427   8.509  17.819  0.00  0.00    +0.000 A 
ATOM      3  C   UNL     1       3.277   7.639  17.127  0.00  0.00    +0.000 A 
ATOM      4  C   UNL     1       3.698   6.450  17.722  0.00  0.00    +0.000 A 
ATOM      5  C   UNL     1       3.301   6.133  19.023  0.00  0.00    +0.000 A 
ATOM      6  C   UNL     1       2.430   6.996  19.700  0.00  0.00    +0.000 A 
ENDROOT
BRANCH   1  10
ATOM      7  C   UNL     1       0.012   9.768  21.553  0.00  0.00    +0.000 A 
ATOM      8  N   UNL     1      -0.359  10.514  20.533  0.00  0.00    +0.000 NA
ATOM      9  N   UNL     1       0.337  10.058  19.435  0.00  0.00    +0.000 NA
ATOM     10  C   UNL     1       1.090   9.062  19.860  0.00  0.00    +0.000 A 
ATOM     11  O   UNL     1       0.946   8.829  21.201  0.00  0.00    +0.000 OA
BRANCH   7  13
ATOM     12  C   UNL     1      -1.571  11.430  23.019  0.00  0.00    +0.000 C 
ATOM     13  S   UNL     1      -0.596   9.917  23.173  0.00  0.00    +0.000 S 
ENDBRANCH   7  13
ENDBRANCH   1  10
BRANCH   5  14
ATOM     14  N   UNL     1       3.712   4.896  19.561  0.00  0.00    +0.000 N 
ATOM     15  H   UNL     1       3.422   4.710  20.516  0.00  0.00    +0.000 HD
BRANCH  14  16
ATOM     16  C   UNL     1       4.317   3.844  18.917  0.00  0.00    +0.000 C 
ATOM     17  S   UNL     1       3.556   2.611  18.083  0.00  0.00    +0.000 S 
BRANCH  16  18
ATOM     18  N   UNL     1       5.683   3.788  19.021  0.00  0.00    +0.000 N 
ATOM     19  H   UNL     1       6.063   2.866  19.209  0.00  0.00    +0.000 HD
BRANCH  18  20
ATOM     20  N   UNL     1       6.482   4.551  18.229  0.00  0.00    +0.000 N 
ATOM     21  C   UNL     1       7.148   5.682  18.567  0.00  0.00    +0.000 A 
ATOM     22  N   UNL     1       7.734   6.163  17.492  0.00  0.00    +0.000 NA
ATOM     23  N   UNL     1       7.395   5.348  16.430  0.00  0.00    +0.000 NA
ATOM     24  C   UNL     1       6.618   4.391  16.889  0.00  0.00    +0.000 A 
ENDBRANCH  18  20
ENDBRANCH  16  18
ENDBRANCH  14  16
ENDBRANCH   5  14
TORSDOF 6
ENDMDL
MODEL 9
REMARK VINA RESULT:      -6.9      3.166      7.050
REMARK  Name = 
REMARK  7 active torsions:
REMARK  status: ('A' for Active; 'I' for Inactive)
REMARK    1  A    between atoms: C_1  and  S_2
REMARK    2  A    between atoms: S_2  and  C_3
REMARK    3  A    between atoms: C_6  and  C_7
REMARK    4  A    between atoms: C_11  and  N_12
REMARK    5  A    between atoms: N_12  and  C_13
REMARK    6  A    between atoms: C_13  and  N_15
REMARK    7  A    between atoms: N_15  and  N_16
REMARK                            x       y       z     vdW  Elec       q    Type
REMARK                         _______ _______ _______ _____ _____    ______ ____
ROOT
ATOM      1  C   UNL     1       2.616   4.914  18.510  0.00  0.00    +0.000 A 
ATOM      2  C   UNL     1       1.773   3.851  18.865  0.00  0.00    +0.000 A 
ATOM      3  C   UNL     1       2.087   2.543  18.483  0.00  0.00    +0.000 A 
ATOM      4  C   UNL     1       3.239   2.287  17.740  0.00  0.00    +0.000 A 
ATOM      5  C   UNL     1       4.071   3.337  17.346  0.00  0.00    +0.000 A 
ATOM      6  C   UNL     1       3.765   4.641  17.753  0.00  0.00    +0.000 A 
ENDROOT
BRANCH   1  10
ATOM      7  C   UNL     1       1.720   7.868  20.192  0.00  0.00    +0.000 A 
ATOM      8  N   UNL     1       1.952   8.411  19.014  0.00  0.00    +0.000 NA
ATOM      9  N   UNL     1       2.349   7.391  18.178  0.00  0.00    +0.000 NA
ATOM     10  C   UNL     1       2.333   6.289  18.903  0.00  0.00    +0.000 A 
ATOM     11  O   UNL     1       1.957   6.518  20.199  0.00  0.00    +0.000 OA
BRANCH   7  13
ATOM     12  C   UNL     1       0.696  10.303  20.854  0.00  0.00    +0.000 C 
ATOM     13  S   UNL     1       1.169   8.726  21.597  0.00  0.00    +0.000 S 
ENDBRANCH   7  13
ENDBRANCH   1  10
BRANCH   5  14
ATOM     14  N   UNL     1       5.252   3.021  16.639  0.00  0.00    +0.000 N 
ATOM     15  H   UNL     1       5.462   2.032  16.547  0.00  0.00    +0.000 HD
BRANCH  14  16
ATOM     16  C   UNL     1       6.069   3.864  15.925  0.00  0.00    +0.000 C 
ATOM     17  S   UNL     1       5.775   4.488  14.403  0.00  0.00    +0.000 S 
BRANCH  16  18
ATOM     18  N   UNL     1       7.267   4.172  16.515  0.00  0.00    +0.000 N 
ATOM     19  H   UNL     1       8.088   3.973  15.953  0.00  0.00    +0.000 HD
BRANCH  18  20
ATOM     20  N   UNL     1       7.403   5.275  17.298  0.00  0.00    +0.000 N 
ATOM     21  C   UNL     1       7.327   6.575  16.922  0.00  0.00    +0.000 A 
ATOM     22  N   UNL     1       7.603   7.331  17.962  0.00  0.00    +0.000 NA
ATOM     23  N   UNL     1       7.910   6.497  19.018  0.00  0.00    +0.000 NA
ATOM     24  C   UNL     1       7.808   5.256  18.593  0.00  0.00    +0.000 A 
ENDBRANCH  18  20
ENDBRANCH  16  18
ENDBRANCH  14  16
ENDBRANCH   5  14
TORSDOF 6
ENDMDL
