MODEL 1
REMARK VINA RESULT:      -9.4      0.000      0.000
REMARK  Name = 
REMARK  9 active torsions:
REMARK  status: ('A' for Active; 'I' for Inactive)
REMARK    1  A    between atoms: N_1  and  C_2
REMARK    2  A    between atoms: C_2  and  C_3
REMARK    3  A    between atoms: C_6  and  C_7
REMARK    4  A    between atoms: N_9  and  C_10
REMARK    5  A    between atoms: C_10  and  C_11
REMARK    6  A    between atoms: C_10  and  C_18
REMARK    7  A    between atoms: C_11  and  C_12
REMARK    8  A    between atoms: C_20  and  C_21
REMARK    9  A    between atoms: C_25  and  C_26
REMARK                            x       y       z     vdW  Elec       q    Type
REMARK                         _______ _______ _______ _____ _____    ______ ____
ROOT
ATOM      1  C   UNL     1       5.210   4.357  19.082  0.00  0.00    +0.000 C 
ENDROOT
BRANCH   1   2
ATOM      2  C   UNL     1       5.916   4.807  17.820  0.00  0.00    +0.000 A 
ATOM      3  N   UNL     1       5.862   4.253  16.618  0.00  0.00    +0.000 NA
ATOM      4  C   UNL     1       6.644   5.042  15.794  0.00  0.00    +0.000 A 
ATOM      5  C   UNL     1       7.189   6.078  16.518  0.00  0.00    +0.000 A 
ATOM      6  N   UNL     1       6.715   5.924  17.786  0.00  0.00    +0.000 N 
ATOM      7  H   UNL     1       6.945   6.515  18.573  0.00  0.00    +0.000 HD
BRANCH   4   8
ATOM      8  C   UNL     1       6.854   4.794  14.375  0.00  0.00    +0.000 A 
ATOM      9  C   UNL     1       7.802   5.536  13.662  0.00  0.00    +0.000 A 
ATOM     10  C   UNL     1       8.005   5.313  12.296  0.00  0.00    +0.000 A 
ATOM     11  C   UNL     1       7.258   4.342  11.622  0.00  0.00    +0.000 A 
ATOM     12  C   UNL     1       6.308   3.584  12.314  0.00  0.00    +0.000 A 
ATOM     13  C   UNL     1       6.120   3.814  13.686  0.00  0.00    +0.000 A 
BRANCH  12  14
ATOM     14  C   UNL     1       5.470   2.526  11.675  0.00  0.00    +0.000 C 
ATOM     15  N   UNL     1       5.995   1.283  11.504  0.00  0.00    +0.000 N 
ATOM     16  O   UNL     1       4.325   2.763  11.295  0.00  0.00    +0.000 OA
ATOM     17  H   UNL     1       6.935   1.011  11.733  0.00  0.00    +0.000 HD
ATOM     18  H   UNL     1       5.405   0.601  11.040  0.00  0.00    +0.000 HD
ENDBRANCH  12  14
ENDBRANCH   4   8
ENDBRANCH   1   2
BRANCH   1  21
ATOM     19  C   UNL     1       3.456   6.064  18.643  0.00  0.00    +0.000 C 
ATOM     20  O   UNL     1       3.329   5.701  17.476  0.00  0.00    +0.000 OA
ATOM     21  N   UNL     1       4.306   5.421  19.510  0.00  0.00    +0.000 N 
ATOM     22  H   UNL     1       4.352   5.666  20.491  0.00  0.00    +0.000 HD
BRANCH  19  26
ATOM     23  C   UNL     1       0.596   9.273  19.770  0.00  0.00    +0.000 C 
ATOM     24  C   UNL     1       1.550   9.469  18.581  0.00  0.00    +0.000 C 
ATOM     25  C   UNL     1       2.103   8.136  18.071  0.00  0.00    +0.000 C 
ATOM     26  C   UNL     1       2.808   7.347  19.188  0.00  0.00    +0.000 C 
ATOM     27  C   UNL     1       1.829   7.109  20.342  0.00  0.00    +0.000 C 
ATOM     28  C   UNL     1       1.253   8.424  20.871  0.00  0.00    +0.000 C 
BRANCH  23  29
ATOM     29  C   UNL     1       0.056  10.606  20.330  0.00  0.00    +0.000 C 
BRANCH  29  30
ATOM     30  N   UNL     1      -0.809  11.330  19.403  0.00  0.00    +0.000 NA
ATOM     31  H   UNL     1      -0.651  10.989  18.456  0.00  0.00    +0.000 HD
ATOM     32  H   UNL     1      -0.554  12.317  19.391  0.00  0.00    +0.000 HD
ENDBRANCH  29  30
ENDBRANCH  23  29
ENDBRANCH  19  26
ENDBRANCH   1  21
BRANCH   1  33
ATOM     33  C   UNL     1       4.481   2.986  18.923  0.00  0.00    +0.000 C 
BRANCH  33  34
ATOM     34  C   UNL     1       3.187   2.847  19.708  0.00  0.00    +0.000 A 
ATOM     35  C   UNL     1       1.940   2.898  19.068  0.00  0.00    +0.000 A 
ATOM     36  C   UNL     1       0.759   2.910  19.816  0.00  0.00    +0.000 A 
ATOM     37  C   UNL     1       0.811   2.859  21.207  0.00  0.00    +0.000 A 
ATOM     38  C   UNL     1       2.039   2.744  21.849  0.00  0.00    +0.000 A 
ATOM     39  C   UNL     1       3.215   2.712  21.103  0.00  0.00    +0.000 A 
ENDBRANCH  33  34
ENDBRANCH   1  33
TORSDOF 9
ENDMDL
MODEL 2
REMARK VINA RESULT:      -9.3      0.557      1.013
REMARK  Name = 
REMARK  9 active torsions:
REMARK  status: ('A' for Active; 'I' for Inactive)
REMARK    1  A    between atoms: N_1  and  C_2
REMARK    2  A    between atoms: C_2  and  C_3
REMARK    3  A    between atoms: C_6  and  C_7
REMARK    4  A    between atoms: N_9  and  C_10
REMARK    5  A    between atoms: C_10  and  C_11
REMARK    6  A    between atoms: C_10  and  C_18
REMARK    7  A    between atoms: C_11  and  C_12
REMARK    8  A    between atoms: C_20  and  C_21
REMARK    9  A    between atoms: C_25  and  C_26
REMARK                            x       y       z     vdW  Elec       q    Type
REMARK                         _______ _______ _______ _____ _____    ______ ____
ROOT
ATOM      1  C   UNL     1       5.193   4.446  19.217  0.00  0.00    +0.000 C 
ENDROOT
BRANCH   1   2
ATOM      2  C   UNL     1       5.871   4.904  17.943  0.00  0.00    +0.000 A 
ATOM      3  N   UNL     1       5.859   4.312  16.758  0.00  0.00    +0.000 NA
ATOM      4  C   UNL     1       6.590   5.127  15.912  0.00  0.00    +0.000 A 
ATOM      5  C   UNL     1       7.062   6.218  16.605  0.00  0.00    +0.000 A 
ATOM      6  N   UNL     1       6.595   6.071  17.877  0.00  0.00    +0.000 N 
ATOM      7  H   UNL     1       6.782   6.698  18.646  0.00  0.00    +0.000 HD
BRANCH   4   8
ATOM      8  C   UNL     1       6.820   4.852  14.501  0.00  0.00    +0.000 A 
ATOM      9  C   UNL     1       7.823   5.534  13.804  0.00  0.00    +0.000 A 
ATOM     10  C   UNL     1       8.047   5.284  12.446  0.00  0.00    +0.000 A 
ATOM     11  C   UNL     1       7.266   4.346  11.764  0.00  0.00    +0.000 A 
ATOM     12  C   UNL     1       6.261   3.647  12.441  0.00  0.00    +0.000 A 
ATOM     13  C   UNL     1       6.052   3.904  13.805  0.00  0.00    +0.000 A 
BRANCH  12  14
ATOM     14  C   UNL     1       5.384   2.628  11.792  0.00  0.00    +0.000 C 
ATOM     15  N   UNL     1       5.888   1.390  11.537  0.00  0.00    +0.000 N 
ATOM     16  O   UNL     1       4.224   2.891  11.478  0.00  0.00    +0.000 OA
ATOM     17  H   UNL     1       6.835   1.101  11.709  0.00  0.00    +0.000 HD
ATOM     18  H   UNL     1       5.271   0.735  11.070  0.00  0.00    +0.000 HD
ENDBRANCH  12  14
ENDBRANCH   4   8
ENDBRANCH   1   2
BRANCH   1  21
ATOM     19  C   UNL     1       3.459   6.168  18.759  0.00  0.00    +0.000 C 
ATOM     20  O   UNL     1       3.404   5.864  17.570  0.00  0.00    +0.000 OA
ATOM     21  N   UNL     1       4.260   5.484  19.643  0.00  0.00    +0.000 N 
ATOM     22  H   UNL     1       4.244   5.680  20.635  0.00  0.00    +0.000 HD
BRANCH  19  26
ATOM     23  C   UNL     1       0.507   9.278  19.922  0.00  0.00    +0.000 C 
ATOM     24  C   UNL     1       1.475   9.529  18.756  0.00  0.00    +0.000 C 
ATOM     25  C   UNL     1       2.068   8.223  18.220  0.00  0.00    +0.000 C 
ATOM     26  C   UNL     1       2.772   7.421  19.327  0.00  0.00    +0.000 C 
ATOM     27  C   UNL     1       1.780   7.129  20.457  0.00  0.00    +0.000 C 
ATOM     28  C   UNL     1       1.165   8.415  21.011  0.00  0.00    +0.000 C 
BRANCH  23  29
ATOM     29  C   UNL     1      -0.073  10.583  20.509  0.00  0.00    +0.000 C 
BRANCH  29  30
ATOM     30  N   UNL     1       0.869  11.328  21.339  0.00  0.00    +0.000 NA
ATOM     31  H   UNL     1       1.822  11.104  21.054  0.00  0.00    +0.000 HD
ATOM     32  H   UNL     1       0.789  11.027  22.309  0.00  0.00    +0.000 HD
ENDBRANCH  29  30
ENDBRANCH  23  29
ENDBRANCH  19  26
ENDBRANCH   1  21
BRANCH   1  33
ATOM     33  C   UNL     1       4.507   3.050  19.081  0.00  0.00    +0.000 C 
BRANCH  33  34
ATOM     34  C   UNL     1       3.032   3.017  19.443  0.00  0.00    +0.000 A 
ATOM     35  C   UNL     1       2.609   3.116  20.777  0.00  0.00    +0.000 A 
ATOM     36  C   UNL     1       1.262   2.944  21.108  0.00  0.00    +0.000 A 
ATOM     37  C   UNL     1       0.324   2.684  20.111  0.00  0.00    +0.000 A 
ATOM     38  C   UNL     1       0.722   2.648  18.779  0.00  0.00    +0.000 A 
ATOM     39  C   UNL     1       2.061   2.838  18.447  0.00  0.00    +0.000 A 
ENDBRANCH  33  34
ENDBRANCH   1  33
TORSDOF 9
ENDMDL
MODEL 3
REMARK VINA RESULT:      -9.0      1.269      1.909
REMARK  Name = 
REMARK  9 active torsions:
REMARK  status: ('A' for Active; 'I' for Inactive)
REMARK    1  A    between atoms: N_1  and  C_2
REMARK    2  A    between atoms: C_2  and  C_3
REMARK    3  A    between atoms: C_6  and  C_7
REMARK    4  A    between atoms: N_9  and  C_10
REMARK    5  A    between atoms: C_10  and  C_11
REMARK    6  A    between atoms: C_10  and  C_18
REMARK    7  A    between atoms: C_11  and  C_12
REMARK    8  A    between atoms: C_20  and  C_21
REMARK    9  A    between atoms: C_25  and  C_26
REMARK                            x       y       z     vdW  Elec       q    Type
REMARK                         _______ _______ _______ _____ _____    ______ ____
ROOT
ATOM      1  C   UNL     1       3.488   5.717  18.368  0.00  0.00    +0.000 C 
ENDROOT
BRANCH   1   2
ATOM      2  C   UNL     1       4.624   5.749  17.367  0.00  0.00    +0.000 A 
ATOM      3  N   UNL     1       4.706   5.110  16.209  0.00  0.00    +0.000 NA
ATOM      4  C   UNL     1       5.912   5.483  15.647  0.00  0.00    +0.000 A 
ATOM      5  C   UNL     1       6.573   6.349  16.487  0.00  0.00    +0.000 A 
ATOM      6  N   UNL     1       5.749   6.515  17.560  0.00  0.00    +0.000 N 
ATOM      7  H   UNL     1       5.951   7.080  18.372  0.00  0.00    +0.000 HD
BRANCH   4   8
ATOM      8  C   UNL     1       6.399   5.015  14.356  0.00  0.00    +0.000 A 
ATOM      9  C   UNL     1       7.565   5.554  13.804  0.00  0.00    +0.000 A 
ATOM     10  C   UNL     1       8.036   5.118  12.561  0.00  0.00    +0.000 A 
ATOM     11  C   UNL     1       7.342   4.134  11.850  0.00  0.00    +0.000 A 
ATOM     12  C   UNL     1       6.176   3.576  12.384  0.00  0.00    +0.000 A 
ATOM     13  C   UNL     1       5.719   4.019  13.636  0.00  0.00    +0.000 A 
BRANCH  12  14
ATOM     14  C   UNL     1       5.375   2.520  11.696  0.00  0.00    +0.000 C 
ATOM     15  N   UNL     1       5.912   1.279  11.545  0.00  0.00    +0.000 N 
ATOM     16  O   UNL     1       4.251   2.756  11.258  0.00  0.00    +0.000 OA
ATOM     17  H   UNL     1       6.840   1.008  11.822  0.00  0.00    +0.000 HD
ATOM     18  H   UNL     1       5.350   0.598  11.048  0.00  0.00    +0.000 HD
ENDBRANCH  12  14
ENDBRANCH   4   8
ENDBRANCH   1   2
BRANCH   1  21
ATOM     19  C   UNL     1       2.197   7.570  19.408  0.00  0.00    +0.000 C 
ATOM     20  O   UNL     1       2.331   7.094  20.533  0.00  0.00    +0.000 OA
ATOM     21  N   UNL     1       2.782   6.993  18.306  0.00  0.00    +0.000 N 
ATOM     22  H   UNL     1       2.741   7.428  17.394  0.00  0.00    +0.000 HD
BRANCH  19  26
ATOM     23  C   UNL     1       0.188  11.531  19.291  0.00  0.00    +0.000 C 
ATOM     24  C   UNL     1      -0.419  10.380  20.107  0.00  0.00    +0.000 C 
ATOM     25  C   UNL     1       0.611   9.287  20.402  0.00  0.00    +0.000 C 
ATOM     26  C   UNL     1       1.247   8.741  19.112  0.00  0.00    +0.000 C 
ATOM     27  C   UNL     1       1.898   9.890  18.336  0.00  0.00    +0.000 C 
ATOM     28  C   UNL     1       0.894  11.004  18.031  0.00  0.00    +0.000 C 
BRANCH  23  29
ATOM     29  C   UNL     1      -0.841  12.628  18.944  0.00  0.00    +0.000 C 
BRANCH  29  30
ATOM     30  N   UNL     1      -0.877  12.979  17.527  0.00  0.00    +0.000 NA
ATOM     31  H   UNL     1      -1.785  13.384  17.302  0.00  0.00    +0.000 HD
ATOM     32  H   UNL     1      -0.800  12.135  16.960  0.00  0.00    +0.000 HD
ENDBRANCH  29  30
ENDBRANCH  23  29
ENDBRANCH  19  26
ENDBRANCH   1  21
BRANCH   1  33
ATOM     33  C   UNL     1       2.531   4.498  18.172  0.00  0.00    +0.000 C 
BRANCH  33  34
ATOM     34  C   UNL     1       2.312   3.645  19.410  0.00  0.00    +0.000 A 
ATOM     35  C   UNL     1       1.063   3.596  20.048  0.00  0.00    +0.000 A 
ATOM     36  C   UNL     1       0.913   2.920  21.262  0.00  0.00    +0.000 A 
ATOM     37  C   UNL     1       2.002   2.276  21.844  0.00  0.00    +0.000 A 
ATOM     38  C   UNL     1       3.229   2.263  21.189  0.00  0.00    +0.000 A 
ATOM     39  C   UNL     1       3.374   2.920  19.969  0.00  0.00    +0.000 A 
ENDBRANCH  33  34
ENDBRANCH   1  33
TORSDOF 9
ENDMDL
MODEL 4
REMARK VINA RESULT:      -9.0      0.623      1.096
REMARK  Name = 
REMARK  9 active torsions:
REMARK  status: ('A' for Active; 'I' for Inactive)
REMARK    1  A    between atoms: N_1  and  C_2
REMARK    2  A    between atoms: C_2  and  C_3
REMARK    3  A    between atoms: C_6  and  C_7
REMARK    4  A    between atoms: N_9  and  C_10
REMARK    5  A    between atoms: C_10  and  C_11
REMARK    6  A    between atoms: C_10  and  C_18
REMARK    7  A    between atoms: C_11  and  C_12
REMARK    8  A    between atoms: C_20  and  C_21
REMARK    9  A    between atoms: C_25  and  C_26
REMARK                            x       y       z     vdW  Elec       q    Type
REMARK                         _______ _______ _______ _____ _____    ______ ____
ROOT
ATOM      1  C   UNL     1       5.056   4.568  19.181  0.00  0.00    +0.000 C 
ENDROOT
BRANCH   1   2
ATOM      2  C   UNL     1       5.789   4.992  17.925  0.00  0.00    +0.000 A 
ATOM      3  N   UNL     1       5.780   4.399  16.739  0.00  0.00    +0.000 NA
ATOM      4  C   UNL     1       6.571   5.177  15.914  0.00  0.00    +0.000 A 
ATOM      5  C   UNL     1       7.076   6.244  16.619  0.00  0.00    +0.000 A 
ATOM      6  N   UNL     1       6.570   6.122  17.878  0.00  0.00    +0.000 N 
ATOM      7  H   UNL     1       6.766   6.741  18.651  0.00  0.00    +0.000 HD
BRANCH   4   8
ATOM      8  C   UNL     1       6.825   4.889  14.509  0.00  0.00    +0.000 A 
ATOM      9  C   UNL     1       7.827   5.579  13.818  0.00  0.00    +0.000 A 
ATOM     10  C   UNL     1       8.073   5.317  12.466  0.00  0.00    +0.000 A 
ATOM     11  C   UNL     1       7.316   4.359  11.784  0.00  0.00    +0.000 A 
ATOM     12  C   UNL     1       6.313   3.652  12.455  0.00  0.00    +0.000 A 
ATOM     13  C   UNL     1       6.081   3.921  13.814  0.00  0.00    +0.000 A 
BRANCH  12  14
ATOM     14  C   UNL     1       5.461   2.612  11.807  0.00  0.00    +0.000 C 
ATOM     15  N   UNL     1       5.992   1.384  11.562  0.00  0.00    +0.000 N 
ATOM     16  O   UNL     1       4.298   2.850  11.484  0.00  0.00    +0.000 OA
ATOM     17  H   UNL     1       6.944   1.115  11.740  0.00  0.00    +0.000 HD
ATOM     18  H   UNL     1       5.391   0.714  11.094  0.00  0.00    +0.000 HD
ENDBRANCH  12  14
ENDBRANCH   4   8
ENDBRANCH   1   2
BRANCH   1  21
ATOM     19  C   UNL     1       3.074   5.857  18.412  0.00  0.00    +0.000 C 
ATOM     20  O   UNL     1       3.103   5.331  17.302  0.00  0.00    +0.000 OA
ATOM     21  N   UNL     1       3.952   5.496  19.406  0.00  0.00    +0.000 N 
ATOM     22  H   UNL     1       3.877   5.868  20.343  0.00  0.00    +0.000 HD
BRANCH  19  26
ATOM     23  C   UNL     1       1.465   9.734  19.870  0.00  0.00    +0.000 C 
ATOM     24  C   UNL     1       1.103   8.426  20.590  0.00  0.00    +0.000 C 
ATOM     25  C   UNL     1       2.084   7.301  20.252  0.00  0.00    +0.000 C 
ATOM     26  C   UNL     1       2.173   7.060  18.735  0.00  0.00    +0.000 C 
ATOM     27  C   UNL     1       2.590   8.357  18.035  0.00  0.00    +0.000 C 
ATOM     28  C   UNL     1       1.631   9.505  18.358  0.00  0.00    +0.000 C 
BRANCH  23  29
ATOM     29  C   UNL     1       0.466  10.874  20.161  0.00  0.00    +0.000 C 
BRANCH  29  30
ATOM     30  N   UNL     1       0.945  11.843  21.144  0.00  0.00    +0.000 NA
ATOM     31  H   UNL     1       0.379  11.775  21.989  0.00  0.00    +0.000 HD
ATOM     32  H   UNL     1       0.807  12.790  20.791  0.00  0.00    +0.000 HD
ENDBRANCH  29  30
ENDBRANCH  23  29
ENDBRANCH  19  26
ENDBRANCH   1  21
BRANCH   1  33
ATOM     33  C   UNL     1       4.585   3.080  19.145  0.00  0.00    +0.000 C 
BRANCH  33  34
ATOM     34  C   UNL     1       3.133   2.853  19.531  0.00  0.00    +0.000 A 
ATOM     35  C   UNL     1       2.179   2.470  18.576  0.00  0.00    +0.000 A 
ATOM     36  C   UNL     1       0.824   2.401  18.915  0.00  0.00    +0.000 A 
ATOM     37  C   UNL     1       0.411   2.701  20.211  0.00  0.00    +0.000 A 
ATOM     38  C   UNL     1       1.355   3.019  21.181  0.00  0.00    +0.000 A 
ATOM     39  C   UNL     1       2.707   3.069  20.848  0.00  0.00    +0.000 A 
ENDBRANCH  33  34
ENDBRANCH   1  33
TORSDOF 9
ENDMDL
MODEL 5
REMARK VINA RESULT:      -8.9      3.827      7.668
REMARK  Name = 
REMARK  9 active torsions:
REMARK  status: ('A' for Active; 'I' for Inactive)
REMARK    1  A    between atoms: N_1  and  C_2
REMARK    2  A    between atoms: C_2  and  C_3
REMARK    3  A    between atoms: C_6  and  C_7
REMARK    4  A    between atoms: N_9  and  C_10
REMARK    5  A    between atoms: C_10  and  C_11
REMARK    6  A    between atoms: C_10  and  C_18
REMARK    7  A    between atoms: C_11  and  C_12
REMARK    8  A    between atoms: C_20  and  C_21
REMARK    9  A    between atoms: C_25  and  C_26
REMARK                            x       y       z     vdW  Elec       q    Type
REMARK                         _______ _______ _______ _____ _____    ______ ____
ROOT
ATOM      1  C   UNL     1       0.690  10.828  19.313  0.00  0.00    +0.000 C 
ENDROOT
BRANCH   1   2
ATOM      2  C   UNL     1       1.310   9.446  19.330  0.00  0.00    +0.000 A 
ATOM      3  N   UNL     1       1.973   8.841  18.355  0.00  0.00    +0.000 NA
ATOM      4  C   UNL     1       2.367   7.615  18.860  0.00  0.00    +0.000 A 
ATOM      5  C   UNL     1       1.919   7.475  20.153  0.00  0.00    +0.000 A 
ATOM      6  N   UNL     1       1.265   8.636  20.439  0.00  0.00    +0.000 N 
ATOM      7  H   UNL     1       0.798   8.846  21.310  0.00  0.00    +0.000 HD
BRANCH   4   8
ATOM      8  C   UNL     1       3.136   6.628  18.115  0.00  0.00    +0.000 A 
ATOM      9  C   UNL     1       4.174   7.034  17.270  0.00  0.00    +0.000 A 
ATOM     10  C   UNL     1       4.913   6.094  16.543  0.00  0.00    +0.000 A 
ATOM     11  C   UNL     1       4.622   4.731  16.653  0.00  0.00    +0.000 A 
ATOM     12  C   UNL     1       3.592   4.300  17.496  0.00  0.00    +0.000 A 
ATOM     13  C   UNL     1       2.863   5.254  18.223  0.00  0.00    +0.000 A 
BRANCH  12  14
ATOM     14  C   UNL     1       3.216   2.866  17.674  0.00  0.00    +0.000 C 
ATOM     15  N   UNL     1       4.099   2.023  18.273  0.00  0.00    +0.000 N 
ATOM     16  O   UNL     1       2.132   2.438  17.282  0.00  0.00    +0.000 OA
ATOM     17  H   UNL     1       5.026   2.269  18.576  0.00  0.00    +0.000 HD
ATOM     18  H   UNL     1       3.819   1.051  18.350  0.00  0.00    +0.000 HD
ENDBRANCH  12  14
ENDBRANCH   4   8
ENDBRANCH   1   2
BRANCH   1  21
ATOM     19  C   UNL     1      -1.520  11.581  18.458  0.00  0.00    +0.000 C 
ATOM     20  O   UNL     1      -1.012  12.496  17.815  0.00  0.00    +0.000 OA
ATOM     21  N   UNL     1      -0.755  10.684  19.165  0.00  0.00    +0.000 N 
ATOM     22  H   UNL     1      -1.165   9.883  19.627  0.00  0.00    +0.000 HD
BRANCH  19  26
ATOM     23  C   UNL     1      -5.892  12.342  18.673  0.00  0.00    +0.000 C 
ATOM     24  C   UNL     1      -5.051  12.293  19.958  0.00  0.00    +0.000 C 
ATOM     25  C   UNL     1      -3.560  12.486  19.669  0.00  0.00    +0.000 C 
ATOM     26  C   UNL     1      -3.039  11.451  18.658  0.00  0.00    +0.000 C 
ATOM     27  C   UNL     1      -3.848  11.549  17.361  0.00  0.00    +0.000 C 
ATOM     28  C   UNL     1      -5.346  11.367  17.617  0.00  0.00    +0.000 C 
BRANCH  23  29
ATOM     29  C   UNL     1      -7.396  12.109  18.932  0.00  0.00    +0.000 C 
BRANCH  29  30
ATOM     30  N   UNL     1      -7.676  10.975  19.809  0.00  0.00    +0.000 NA
ATOM     31  H   UNL     1      -7.063  10.199  19.564  0.00  0.00    +0.000 HD
ATOM     32  H   UNL     1      -8.626  10.641  19.649  0.00  0.00    +0.000 HD
ENDBRANCH  29  30
ENDBRANCH  23  29
ENDBRANCH  19  26
ENDBRANCH   1  21
BRANCH   1  33
ATOM     33  C   UNL     1       1.079  11.691  20.554  0.00  0.00    +0.000 C 
BRANCH  33  34
ATOM     34  C   UNL     1      -0.082  12.097  21.447  0.00  0.00    +0.000 A 
ATOM     35  C   UNL     1      -0.485  13.437  21.549  0.00  0.00    +0.000 A 
ATOM     36  C   UNL     1      -1.460  13.815  22.478  0.00  0.00    +0.000 A 
ATOM     37  C   UNL     1      -2.049  12.858  23.302  0.00  0.00    +0.000 A 
ATOM     38  C   UNL     1      -1.703  11.519  23.164  0.00  0.00    +0.000 A 
ATOM     39  C   UNL     1      -0.746  11.139  22.226  0.00  0.00    +0.000 A 
ENDBRANCH  33  34
ENDBRANCH   1  33
TORSDOF 9
ENDMDL
MODEL 6
REMARK VINA RESULT:      -8.9      3.492      7.234
REMARK  Name = 
REMARK  9 active torsions:
REMARK  status: ('A' for Active; 'I' for Inactive)
REMARK    1  A    between atoms: N_1  and  C_2
REMARK    2  A    between atoms: C_2  and  C_3
REMARK    3  A    between atoms: C_6  and  C_7
REMARK    4  A    between atoms: N_9  and  C_10
REMARK    5  A    between atoms: C_10  and  C_11
REMARK    6  A    between atoms: C_10  and  C_18
REMARK    7  A    between atoms: C_11  and  C_12
REMARK    8  A    between atoms: C_20  and  C_21
REMARK    9  A    between atoms: C_25  and  C_26
REMARK                            x       y       z     vdW  Elec       q    Type
REMARK                         _______ _______ _______ _____ _____    ______ ____
ROOT
ATOM      1  C   UNL     1       0.946   9.680  20.290  0.00  0.00    +0.000 C 
ENDROOT
BRANCH   1   2
ATOM      2  C   UNL     1       1.540   8.310  20.036  0.00  0.00    +0.000 A 
ATOM      3  N   UNL     1       2.196   7.895  18.962  0.00  0.00    +0.000 NA
ATOM      4  C   UNL     1       2.565   6.587  19.217  0.00  0.00    +0.000 A 
ATOM      5  C   UNL     1       2.109   6.205  20.457  0.00  0.00    +0.000 A 
ATOM      6  N   UNL     1       1.475   7.299  20.965  0.00  0.00    +0.000 N 
ATOM      7  H   UNL     1       1.008   7.343  21.859  0.00  0.00    +0.000 HD
BRANCH   4   8
ATOM      8  C   UNL     1       3.320   5.751  18.294  0.00  0.00    +0.000 A 
ATOM      9  C   UNL     1       2.790   4.535  17.849  0.00  0.00    +0.000 A 
ATOM     10  C   UNL     1       3.511   3.720  16.970  0.00  0.00    +0.000 A 
ATOM     11  C   UNL     1       4.777   4.111  16.524  0.00  0.00    +0.000 A 
ATOM     12  C   UNL     1       5.325   5.324  16.951  0.00  0.00    +0.000 A 
ATOM     13  C   UNL     1       4.588   6.135  17.828  0.00  0.00    +0.000 A 
BRANCH  12  14
ATOM     14  C   UNL     1       6.668   5.819  16.523  0.00  0.00    +0.000 C 
ATOM     15  N   UNL     1       7.012   7.107  16.794  0.00  0.00    +0.000 N 
ATOM     16  O   UNL     1       7.456   5.090  15.925  0.00  0.00    +0.000 OA
ATOM     17  H   UNL     1       6.416   7.791  17.229  0.00  0.00    +0.000 HD
ATOM     18  H   UNL     1       7.920   7.414  16.463  0.00  0.00    +0.000 HD
ENDBRANCH  12  14
ENDBRANCH   4   8
ENDBRANCH   1   2
BRANCH   1  21
ATOM     19  C   UNL     1      -0.742  10.672  18.757  0.00  0.00    +0.000 C 
ATOM     20  O   UNL     1       0.075  11.467  18.297  0.00  0.00    +0.000 OA
ATOM     21  N   UNL     1      -0.383   9.726  19.687  0.00  0.00    +0.000 N 
ATOM     22  H   UNL     1      -1.033   9.020  20.005  0.00  0.00    +0.000 HD
BRANCH  19  26
ATOM     23  C   UNL     1      -4.783  12.016  17.490  0.00  0.00    +0.000 C 
ATOM     24  C   UNL     1      -4.405  11.999  18.979  0.00  0.00    +0.000 C 
ATOM     25  C   UNL     1      -2.888  11.962  19.180  0.00  0.00    +0.000 C 
ATOM     26  C   UNL     1      -2.247  10.764  18.459  0.00  0.00    +0.000 C 
ATOM     27  C   UNL     1      -2.584  10.825  16.966  0.00  0.00    +0.000 C 
ATOM     28  C   UNL     1      -4.095  10.869  16.731  0.00  0.00    +0.000 C 
BRANCH  23  29
ATOM     29  C   UNL     1      -6.309  12.011  17.259  0.00  0.00    +0.000 C 
BRANCH  29  30
ATOM     30  N   UNL     1      -6.951  13.296  17.521  0.00  0.00    +0.000 NA
ATOM     31  H   UNL     1      -6.692  13.959  16.792  0.00  0.00    +0.000 HD
ATOM     32  H   UNL     1      -6.597  13.688  18.393  0.00  0.00    +0.000 HD
ENDBRANCH  29  30
ENDBRANCH  23  29
ENDBRANCH  19  26
ENDBRANCH   1  21
BRANCH   1  33
ATOM     33  C   UNL     1       0.928  10.072  21.801  0.00  0.00    +0.000 C 
BRANCH  33  34
ATOM     34  C   UNL     1      -0.081  11.144  22.178  0.00  0.00    +0.000 A 
ATOM     35  C   UNL     1      -1.203  10.842  22.965  0.00  0.00    +0.000 A 
ATOM     36  C   UNL     1      -2.193  11.803  23.186  0.00  0.00    +0.000 A 
ATOM     37  C   UNL     1      -2.067  13.077  22.636  0.00  0.00    +0.000 A 
ATOM     38  C   UNL     1      -0.929  13.407  21.909  0.00  0.00    +0.000 A 
ATOM     39  C   UNL     1       0.067  12.455  21.704  0.00  0.00    +0.000 A 
ENDBRANCH  33  34
ENDBRANCH   1  33
TORSDOF 9
ENDMDL
MODEL 7
REMARK VINA RESULT:      -8.9      4.608      8.107
REMARK  Name = 
REMARK  9 active torsions:
REMARK  status: ('A' for Active; 'I' for Inactive)
REMARK    1  A    between atoms: N_1  and  C_2
REMARK    2  A    between atoms: C_2  and  C_3
REMARK    3  A    between atoms: C_6  and  C_7
REMARK    4  A    between atoms: N_9  and  C_10
REMARK    5  A    between atoms: C_10  and  C_11
REMARK    6  A    between atoms: C_10  and  C_18
REMARK    7  A    between atoms: C_11  and  C_12
REMARK    8  A    between atoms: C_20  and  C_21
REMARK    9  A    between atoms: C_25  and  C_26
REMARK                            x       y       z     vdW  Elec       q    Type
REMARK                         _______ _______ _______ _____ _____    ______ ____
ROOT
ATOM      1  C   UNL     1       0.869  10.644  19.781  0.00  0.00    +0.000 C 
ENDROOT
BRANCH   1   2
ATOM      2  C   UNL     1       1.564   9.440  19.180  0.00  0.00    +0.000 A 
ATOM      3  N   UNL     1       1.888   8.305  19.782  0.00  0.00    +0.000 NA
ATOM      4  C   UNL     1       2.472   7.508  18.814  0.00  0.00    +0.000 A 
ATOM      5  C   UNL     1       2.513   8.181  17.615  0.00  0.00    +0.000 A 
ATOM      6  N   UNL     1       1.931   9.390  17.856  0.00  0.00    +0.000 N 
ATOM      7  H   UNL     1       1.822  10.133  17.181  0.00  0.00    +0.000 HD
BRANCH   4   8
ATOM      8  C   UNL     1       2.969   6.159  19.048  0.00  0.00    +0.000 A 
ATOM      9  C   UNL     1       4.100   5.697  18.369  0.00  0.00    +0.000 A 
ATOM     10  C   UNL     1       4.581   4.400  18.580  0.00  0.00    +0.000 A 
ATOM     11  C   UNL     1       3.932   3.545  19.475  0.00  0.00    +0.000 A 
ATOM     12  C   UNL     1       2.802   3.986  20.171  0.00  0.00    +0.000 A 
ATOM     13  C   UNL     1       2.334   5.292  19.954  0.00  0.00    +0.000 A 
BRANCH  12  14
ATOM     14  C   UNL     1       2.049   3.142  21.146  0.00  0.00    +0.000 C 
ATOM     15  N   UNL     1       0.735   2.881  20.915  0.00  0.00    +0.000 N 
ATOM     16  O   UNL     1       2.594   2.691  22.152  0.00  0.00    +0.000 OA
ATOM     17  H   UNL     1       0.193   3.248  20.151  0.00  0.00    +0.000 HD
ATOM     18  H   UNL     1       0.251   2.328  21.614  0.00  0.00    +0.000 HD
ENDBRANCH  12  14
ENDBRANCH   4   8
ENDBRANCH   1   2
BRANCH   1  21
ATOM     19  C   UNL     1      -0.967  11.808  18.574  0.00  0.00    +0.000 C 
ATOM     20  O   UNL     1      -0.241  12.758  18.290  0.00  0.00    +0.000 OA
ATOM     21  N   UNL     1      -0.487  10.708  19.245  0.00  0.00    +0.000 N 
ATOM     22  H   UNL     1      -1.062   9.892  19.408  0.00  0.00    +0.000 HD
BRANCH  19  26
ATOM     23  C   UNL     1      -5.330  10.976  18.712  0.00  0.00    +0.000 C 
ATOM     24  C   UNL     1      -4.493  10.519  17.508  0.00  0.00    +0.000 C 
ATOM     25  C   UNL     1      -2.999  10.473  17.838  0.00  0.00    +0.000 C 
ATOM     26  C   UNL     1      -2.488  11.831  18.351  0.00  0.00    +0.000 C 
ATOM     27  C   UNL     1      -3.293  12.247  19.585  0.00  0.00    +0.000 C 
ATOM     28  C   UNL     1      -4.793  12.296  19.289  0.00  0.00    +0.000 C 
BRANCH  23  29
ATOM     29  C   UNL     1      -6.837  11.070  18.393  0.00  0.00    +0.000 C 
BRANCH  29  30
ATOM     30  N   UNL     1      -7.656  10.098  19.112  0.00  0.00    +0.000 NA
ATOM     31  H   UNL     1      -7.064   9.338  19.446  0.00  0.00    +0.000 HD
ATOM     32  H   UNL     1      -8.325   9.669  18.474  0.00  0.00    +0.000 HD
ENDBRANCH  29  30
ENDBRANCH  23  29
ENDBRANCH  19  26
ENDBRANCH   1  21
BRANCH   1  33
ATOM     33  C   UNL     1       0.893  10.653  21.342  0.00  0.00    +0.000 C 
BRANCH  33  34
ATOM     34  C   UNL     1      -0.137  11.556  21.998  0.00  0.00    +0.000 A 
ATOM     35  C   UNL     1      -1.217  11.023  22.718  0.00  0.00    +0.000 A 
ATOM     36  C   UNL     1      -2.231  11.858  23.197  0.00  0.00    +0.000 A 
ATOM     37  C   UNL     1      -2.170  13.231  22.973  0.00  0.00    +0.000 A 
ATOM     38  C   UNL     1      -1.073  13.777  22.317  0.00  0.00    +0.000 A 
ATOM     39  C   UNL     1      -0.053  12.948  21.857  0.00  0.00    +0.000 A 
ENDBRANCH  33  34
ENDBRANCH   1  33
TORSDOF 9
ENDMDL
MODEL 8
REMARK VINA RESULT:      -8.8      3.678      7.427
REMARK  Name = 
REMARK  9 active torsions:
REMARK  status: ('A' for Active; 'I' for Inactive)
REMARK    1  A    between atoms: N_1  and  C_2
REMARK    2  A    between atoms: C_2  and  C_3
REMARK    3  A    between atoms: C_6  and  C_7
REMARK    4  A    between atoms: N_9  and  C_10
REMARK    5  A    between atoms: C_10  and  C_11
REMARK    6  A    between atoms: C_10  and  C_18
REMARK    7  A    between atoms: C_11  and  C_12
REMARK    8  A    between atoms: C_20  and  C_21
REMARK    9  A    between atoms: C_25  and  C_26
REMARK                            x       y       z     vdW  Elec       q    Type
REMARK                         _______ _______ _______ _____ _____    ______ ____
ROOT
ATOM      1  C   UNL     1       0.887  10.517  19.144  0.00  0.00    +0.000 C 
ENDROOT
BRANCH   1   2
ATOM      2  C   UNL     1       1.448   9.113  19.245  0.00  0.00    +0.000 A 
ATOM      3  N   UNL     1       1.987   8.382  18.281  0.00  0.00    +0.000 NA
ATOM      4  C   UNL     1       2.378   7.194  18.870  0.00  0.00    +0.000 A 
ATOM      5  C   UNL     1       2.054   7.205  20.207  0.00  0.00    +0.000 A 
ATOM      6  N   UNL     1       1.480   8.420  20.432  0.00  0.00    +0.000 N 
ATOM      7  H   UNL     1       1.110   8.738  21.316  0.00  0.00    +0.000 HD
BRANCH   4   8
ATOM      8  C   UNL     1       3.030   6.100  18.163  0.00  0.00    +0.000 A 
ATOM      9  C   UNL     1       2.356   4.890  17.960  0.00  0.00    +0.000 A 
ATOM     10  C   UNL     1       2.977   3.830  17.291  0.00  0.00    +0.000 A 
ATOM     11  C   UNL     1       4.284   3.966  16.814  0.00  0.00    +0.000 A 
ATOM     12  C   UNL     1       4.976   5.167  17.000  0.00  0.00    +0.000 A 
ATOM     13  C   UNL     1       4.339   6.225  17.668  0.00  0.00    +0.000 A 
BRANCH  12  14
ATOM     14  C   UNL     1       6.372   5.399  16.523  0.00  0.00    +0.000 C 
ATOM     15  N   UNL     1       7.391   4.717  17.112  0.00  0.00    +0.000 N 
ATOM     16  O   UNL     1       6.613   6.198  15.620  0.00  0.00    +0.000 OA
ATOM     17  H   UNL     1       7.297   4.086  17.889  0.00  0.00    +0.000 HD
ATOM     18  H   UNL     1       8.327   4.922  16.780  0.00  0.00    +0.000 HD
ENDBRANCH  12  14
ENDBRANCH   4   8
ENDBRANCH   1   2
BRANCH   1  21
ATOM     19  C   UNL     1      -1.271  11.420  18.305  0.00  0.00    +0.000 C 
ATOM     20  O   UNL     1      -0.722  12.402  17.810  0.00  0.00    +0.000 OA
ATOM     21  N   UNL     1      -0.552  10.423  18.918  0.00  0.00    +0.000 N 
ATOM     22  H   UNL     1      -0.994   9.577  19.252  0.00  0.00    +0.000 HD
BRANCH  19  26
ATOM     23  C   UNL     1      -5.646  12.196  18.273  0.00  0.00    +0.000 C 
ATOM     24  C   UNL     1      -4.877  12.156  19.603  0.00  0.00    +0.000 C 
ATOM     25  C   UNL     1      -3.372  12.341  19.395  0.00  0.00    +0.000 C 
ATOM     26  C   UNL     1      -2.799  11.297  18.422  0.00  0.00    +0.000 C 
ATOM     27  C   UNL     1      -3.536  11.386  17.082  0.00  0.00    +0.000 C 
ATOM     28  C   UNL     1      -5.046  11.211  17.257  0.00  0.00    +0.000 C 
BRANCH  23  29
ATOM     29  C   UNL     1      -7.163  11.970  18.451  0.00  0.00    +0.000 C 
BRANCH  29  30
ATOM     30  N   UNL     1      -7.514  11.250  19.673  0.00  0.00    +0.000 NA
ATOM     31  H   UNL     1      -6.877  11.524  20.421  0.00  0.00    +0.000 HD
ATOM     32  H   UNL     1      -7.373  10.250  19.538  0.00  0.00    +0.000 HD
ENDBRANCH  29  30
ENDBRANCH  23  29
ENDBRANCH  19  26
ENDBRANCH   1  21
BRANCH   1  33
ATOM     33  C   UNL     1       1.240  11.410  20.374  0.00  0.00    +0.000 C 
BRANCH  33  34
ATOM     34  C   UNL     1       0.085  11.691  21.320  0.00  0.00    +0.000 A 
ATOM     35  C   UNL     1      -0.460  12.978  21.440  0.00  0.00    +0.000 A 
ATOM     36  C   UNL     1      -1.425  13.252  22.413  0.00  0.00    +0.000 A 
ATOM     37  C   UNL     1      -1.865  12.242  23.266  0.00  0.00    +0.000 A 
ATOM     38  C   UNL     1      -1.379  10.948  23.114  0.00  0.00    +0.000 A 
ATOM     39  C   UNL     1      -0.431  10.671  22.132  0.00  0.00    +0.000 A 
ENDBRANCH  33  34
ENDBRANCH   1  33
TORSDOF 9
ENDMDL
MODEL 9
REMARK VINA RESULT:      -8.7      3.972      7.872
REMARK  Name = 
REMARK  9 active torsions:
REMARK  status: ('A' for Active; 'I' for Inactive)
REMARK    1  A    between atoms: N_1  and  C_2
REMARK    2  A    between atoms: C_2  and  C_3
REMARK    3  A    between atoms: C_6  and  C_7
REMARK    4  A    between atoms: N_9  and  C_10
REMARK    5  A    between atoms: C_10  and  C_11
REMARK    6  A    between atoms: C_10  and  C_18
REMARK    7  A    between atoms: C_11  and  C_12
REMARK    8  A    between atoms: C_20  and  C_21
REMARK    9  A    between atoms: C_25  and  C_26
REMARK                            x       y       z     vdW  Elec       q    Type
REMARK                         _______ _______ _______ _____ _____    ______ ____
ROOT
ATOM      1  C   UNL     1       0.865  10.940  19.056  0.00  0.00    +0.000 C 
ENDROOT
BRANCH   1   2
ATOM      2  C   UNL     1       1.525   9.600  18.802  0.00  0.00    +0.000 A 
ATOM      3  N   UNL     1       1.453   8.505  19.546  0.00  0.00    +0.000 NA
ATOM      4  C   UNL     1       2.192   7.541  18.886  0.00  0.00    +0.000 A 
ATOM      5  C   UNL     1       2.730   8.070  17.735  0.00  0.00    +0.000 A 
ATOM      6  N   UNL     1       2.295   9.360  17.689  0.00  0.00    +0.000 N 
ATOM      7  H   UNL     1       2.531  10.033  16.974  0.00  0.00    +0.000 HD
BRANCH   4   8
ATOM      8  C   UNL     1       2.369   6.174  19.357  0.00  0.00    +0.000 A 
ATOM      9  C   UNL     1       1.892   5.795  20.615  0.00  0.00    +0.000 A 
ATOM     10  C   UNL     1       2.065   4.487  21.081  0.00  0.00    +0.000 A 
ATOM     11  C   UNL     1       2.723   3.539  20.291  0.00  0.00    +0.000 A 
ATOM     12  C   UNL     1       3.204   3.894  19.027  0.00  0.00    +0.000 A 
ATOM     13  C   UNL     1       3.018   5.208  18.570  0.00  0.00    +0.000 A 
BRANCH  12  14
ATOM     14  C   UNL     1       3.915   2.946  18.118  0.00  0.00    +0.000 C 
ATOM     15  N   UNL     1       4.045   1.645  18.494  0.00  0.00    +0.000 N 
ATOM     16  O   UNL     1       4.390   3.322  17.048  0.00  0.00    +0.000 OA
ATOM     17  H   UNL     1       3.737   1.258  19.370  0.00  0.00    +0.000 HD
ATOM     18  H   UNL     1       4.558   1.038  17.863  0.00  0.00    +0.000 HD
ENDBRANCH  12  14
ENDBRANCH   4   8
ENDBRANCH   1   2
BRANCH   1  21
ATOM     19  C   UNL     1      -1.420  11.700  18.439  0.00  0.00    +0.000 C 
ATOM     20  O   UNL     1      -0.984  12.698  17.867  0.00  0.00    +0.000 OA
ATOM     21  N   UNL     1      -0.582  10.761  18.990  0.00  0.00    +0.000 N 
ATOM     22  H   UNL     1      -0.936   9.901  19.388  0.00  0.00    +0.000 HD
BRANCH  19  26
ATOM     23  C   UNL     1      -5.815  12.220  18.836  0.00  0.00    +0.000 C 
ATOM     24  C   UNL     1      -4.911  12.299  20.076  0.00  0.00    +0.000 C 
ATOM     25  C   UNL     1      -3.450  12.559  19.699  0.00  0.00    +0.000 C 
ATOM     26  C   UNL     1      -2.917  11.496  18.724  0.00  0.00    +0.000 C 
ATOM     27  C   UNL     1      -3.792  11.467  17.468  0.00  0.00    +0.000 C 
ATOM     28  C   UNL     1      -5.262  11.215  17.812  0.00  0.00    +0.000 C 
BRANCH  23  29
ATOM     29  C   UNL     1      -7.287  11.917  19.186  0.00  0.00    +0.000 C 
BRANCH  29  30
ATOM     30  N   UNL     1      -7.686  12.377  20.513  0.00  0.00    +0.000 NA
ATOM     31  H   UNL     1      -7.084  11.949  21.215  0.00  0.00    +0.000 HD
ATOM     32  H   UNL     1      -8.631  12.055  20.721  0.00  0.00    +0.000 HD
ENDBRANCH  29  30
ENDBRANCH  23  29
ENDBRANCH  19  26
ENDBRANCH   1  21
BRANCH   1  33
ATOM     33  C   UNL     1       1.323  11.608  20.390  0.00  0.00    +0.000 C 
BRANCH  33  34
ATOM     34  C   UNL     1       0.281  11.619  21.497  0.00  0.00    +0.000 A 
ATOM     35  C   UNL     1      -0.064  10.443  22.180  0.00  0.00    +0.000 A 
ATOM     36  C   UNL     1      -1.121  10.440  23.096  0.00  0.00    +0.000 A 
ATOM     37  C   UNL     1      -1.832  11.611  23.348  0.00  0.00    +0.000 A 
ATOM     38  C   UNL     1      -1.456  12.796  22.724  0.00  0.00    +0.000 A 
ATOM     39  C   UNL     1      -0.392  12.803  21.826  0.00  0.00    +0.000 A 
ENDBRANCH  33  34
ENDBRANCH   1  33
TORSDOF 9
ENDMDL
