MODEL 1
REMARK VINA RESULT:      -8.6      0.000      0.000
REMARK  Name = 
REMARK  10 active torsions:
REMARK  status: ('A' for Active; 'I' for Inactive)
REMARK    1  A    between atoms: C_2  and  C_12
REMARK    2  A    between atoms: N_3  and  C_4
REMARK    3  A    between atoms: C_4  and  C_5
REMARK    4  A    between atoms: C_5  and  C_6
REMARK    5  A    between atoms: C_14  and  N_15
REMARK    6  A    between atoms: N_15  and  C_16
REMARK    7  A    between atoms: C_16  and  C_17
REMARK    8  A    between atoms: C_19  and  O_20
REMARK    9  A    between atoms: C_23  and  O_24
REMARK   10  A    between atoms: C_27  and  O_28
REMARK                            x       y       z     vdW  Elec       q    Type
REMARK                         _______ _______ _______ _____ _____    ______ ____
ROOT
ATOM      1  C   UNL     1       6.570   5.180  17.657  0.00  0.00    +0.000 A 
ATOM      2  C   UNL     1       5.537   4.513  18.348  0.00  0.00    +0.000 A 
ATOM      3  C   UNL     1       4.611   3.698  17.673  0.00  0.00    +0.000 A 
ATOM      4  C   UNL     1       4.663   3.679  16.273  0.00  0.00    +0.000 A 
ATOM      5  C   UNL     1       5.683   4.330  15.572  0.00  0.00    +0.000 A 
ATOM      6  C   UNL     1       6.648   5.051  16.269  0.00  0.00    +0.000 A 
ENDROOT
BRANCH   1   8
ATOM      7  O   UNL     1       8.061   5.608  19.428  0.00  0.00    +0.000 OA
ATOM      8  C   UNL     1       7.519   6.040  18.407  0.00  0.00    +0.000 C 
ATOM      9  N   UNL     1       7.745   7.314  17.917  0.00  0.00    +0.000 N 
ATOM     10  H   UNL     1       7.041   7.673  17.274  0.00  0.00    +0.000 HD
BRANCH   9  11
ATOM     11  C   UNL     1       8.620   8.230  18.620  0.00  0.00    +0.000 C 
BRANCH  11  12
ATOM     12  C   UNL     1       8.392   9.684  18.203  0.00  0.00    +0.000 C 
BRANCH  12  13
ATOM     13  C   UNL     1       9.422  10.633  18.769  0.00  0.00    +0.000 A 
ATOM     14  C   UNL     1      10.400  11.212  17.947  0.00  0.00    +0.000 A 
ATOM     15  C   UNL     1      11.393  12.029  18.494  0.00  0.00    +0.000 A 
ATOM     16  C   UNL     1      11.415  12.283  19.865  0.00  0.00    +0.000 A 
ATOM     17  C   UNL     1      10.430  11.741  20.685  0.00  0.00    +0.000 A 
ATOM     18  C   UNL     1       9.437  10.923  20.140  0.00  0.00    +0.000 A 
ENDBRANCH  12  13
ENDBRANCH  11  12
ENDBRANCH   9  11
ENDBRANCH   1   8
BRANCH   3  19
ATOM     19  N   UNL     1       3.599   3.056  18.411  0.00  0.00    +0.000 N 
ATOM     20  H   UNL     1       3.598   2.057  18.213  0.00  0.00    +0.000 HD
BRANCH  19  21
ATOM     21  C   UNL     1       2.230   3.597  18.326  0.00  0.00    +0.000 C 
BRANCH  21  22
ATOM     22  C   UNL     1       2.147   5.022  18.843  0.00  0.00    +0.000 A 
ATOM     23  C   UNL     1       2.292   6.130  17.992  0.00  0.00    +0.000 A 
ATOM     24  C   UNL     1       2.281   7.421  18.519  0.00  0.00    +0.000 A 
ATOM     25  C   UNL     1       2.048   7.645  19.870  0.00  0.00    +0.000 A 
ATOM     26  C   UNL     1       1.828   6.561  20.716  0.00  0.00    +0.000 A 
ATOM     27  C   UNL     1       1.879   5.264  20.201  0.00  0.00    +0.000 A 
BRANCH  24  28
ATOM     28  O   UNL     1       2.523   8.505  17.729  0.00  0.00    +0.000 OA
ATOM     29  H   UNL     1       2.420   8.234  16.801  0.00  0.00    +0.000 HD
ENDBRANCH  24  28
BRANCH  27  30
ATOM     30  O   UNL     1       1.671   4.199  21.033  0.00  0.00    +0.000 OA
ATOM     31  H   UNL     1       1.858   3.379  20.544  0.00  0.00    +0.000 HD
ENDBRANCH  27  30
ENDBRANCH  21  22
ENDBRANCH  19  21
ENDBRANCH   3  19
BRANCH   6  32
ATOM     32  O   UNL     1       7.672   5.645  15.582  0.00  0.00    +0.000 OA
ATOM     33  H   UNL     1       8.386   5.863  16.208  0.00  0.00    +0.000 HD
ENDBRANCH   6  32
TORSDOF 10
ENDMDL
MODEL 2
REMARK VINA RESULT:      -8.5      1.157      1.754
REMARK  Name = 
REMARK  10 active torsions:
REMARK  status: ('A' for Active; 'I' for Inactive)
REMARK    1  A    between atoms: C_2  and  C_12
REMARK    2  A    between atoms: N_3  and  C_4
REMARK    3  A    between atoms: C_4  and  C_5
REMARK    4  A    between atoms: C_5  and  C_6
REMARK    5  A    between atoms: C_14  and  N_15
REMARK    6  A    between atoms: N_15  and  C_16
REMARK    7  A    between atoms: C_16  and  C_17
REMARK    8  A    between atoms: C_19  and  O_20
REMARK    9  A    between atoms: C_23  and  O_24
REMARK   10  A    between atoms: C_27  and  O_28
REMARK                            x       y       z     vdW  Elec       q    Type
REMARK                         _______ _______ _______ _____ _____    ______ ____
ROOT
ATOM      1  C   UNL     1       6.816   5.328  17.064  0.00  0.00    +0.000 A 
ATOM      2  C   UNL     1       5.848   4.430  17.558  0.00  0.00    +0.000 A 
ATOM      3  C   UNL     1       5.099   3.611  16.693  0.00  0.00    +0.000 A 
ATOM      4  C   UNL     1       5.250   3.814  15.315  0.00  0.00    +0.000 A 
ATOM      5  C   UNL     1       6.209   4.696  14.809  0.00  0.00    +0.000 A 
ATOM      6  C   UNL     1       7.008   5.424  15.684  0.00  0.00    +0.000 A 
ENDROOT
BRANCH   1   8
ATOM      7  O   UNL     1       8.025   5.693  19.051  0.00  0.00    +0.000 OA
ATOM      8  C   UNL     1       7.576   6.182  18.011  0.00  0.00    +0.000 C 
ATOM      9  N   UNL     1       7.736   7.514  17.676  0.00  0.00    +0.000 N 
ATOM     10  H   UNL     1       7.086   7.878  16.980  0.00  0.00    +0.000 HD
BRANCH   9  11
ATOM     11  C   UNL     1       8.421   8.423  18.571  0.00  0.00    +0.000 C 
BRANCH  11  12
ATOM     12  C   UNL     1       8.460   9.853  18.029  0.00  0.00    +0.000 C 
BRANCH  12  13
ATOM     13  C   UNL     1       9.533  10.703  18.668  0.00  0.00    +0.000 A 
ATOM     14  C   UNL     1       9.566  10.901  20.056  0.00  0.00    +0.000 A 
ATOM     15  C   UNL     1      10.518  11.750  20.629  0.00  0.00    +0.000 A 
ATOM     16  C   UNL     1      11.450  12.403  19.824  0.00  0.00    +0.000 A 
ATOM     17  C   UNL     1      11.446  12.188  18.448  0.00  0.00    +0.000 A 
ATOM     18  C   UNL     1      10.496  11.340  17.873  0.00  0.00    +0.000 A 
ENDBRANCH  12  13
ENDBRANCH  11  12
ENDBRANCH   9  11
ENDBRANCH   1   8
BRANCH   3  19
ATOM     19  N   UNL     1       4.143   2.733  17.238  0.00  0.00    +0.000 N 
ATOM     20  H   UNL     1       4.287   1.790  16.881  0.00  0.00    +0.000 HD
BRANCH  19  21
ATOM     21  C   UNL     1       2.721   3.109  17.140  0.00  0.00    +0.000 C 
BRANCH  21  22
ATOM     22  C   UNL     1       2.217   3.768  18.411  0.00  0.00    +0.000 A 
ATOM     23  C   UNL     1       2.522   5.102  18.727  0.00  0.00    +0.000 A 
ATOM     24  C   UNL     1       2.099   5.647  19.939  0.00  0.00    +0.000 A 
ATOM     25  C   UNL     1       1.306   4.920  20.817  0.00  0.00    +0.000 A 
ATOM     26  C   UNL     1       0.931   3.620  20.486  0.00  0.00    +0.000 A 
ATOM     27  C   UNL     1       1.386   3.056  19.293  0.00  0.00    +0.000 A 
BRANCH  24  28
ATOM     28  O   UNL     1       2.471   6.904  20.312  0.00  0.00    +0.000 OA
ATOM     29  H   UNL     1       2.445   6.953  21.283  0.00  0.00    +0.000 HD
ENDBRANCH  24  28
BRANCH  27  30
ATOM     30  O   UNL     1       1.025   1.776  18.970  0.00  0.00    +0.000 OA
ATOM     31  H   UNL     1       1.361   1.174  19.656  0.00  0.00    +0.000 HD
ENDBRANCH  27  30
ENDBRANCH  21  22
ENDBRANCH  19  21
ENDBRANCH   3  19
BRANCH   6  32
ATOM     32  O   UNL     1       7.979   6.249  15.184  0.00  0.00    +0.000 OA
ATOM     33  H   UNL     1       7.928   7.108  15.640  0.00  0.00    +0.000 HD
ENDBRANCH   6  32
TORSDOF 10
ENDMDL
MODEL 3
REMARK VINA RESULT:      -8.5      3.320      5.633
REMARK  Name = 
REMARK  10 active torsions:
REMARK  status: ('A' for Active; 'I' for Inactive)
REMARK    1  A    between atoms: C_2  and  C_12
REMARK    2  A    between atoms: N_3  and  C_4
REMARK    3  A    between atoms: C_4  and  C_5
REMARK    4  A    between atoms: C_5  and  C_6
REMARK    5  A    between atoms: C_14  and  N_15
REMARK    6  A    between atoms: N_15  and  C_16
REMARK    7  A    between atoms: C_16  and  C_17
REMARK    8  A    between atoms: C_19  and  O_20
REMARK    9  A    between atoms: C_23  and  O_24
REMARK   10  A    between atoms: C_27  and  O_28
REMARK                            x       y       z     vdW  Elec       q    Type
REMARK                         _______ _______ _______ _____ _____    ______ ____
ROOT
ATOM      1  C   UNL     1       2.908   3.669  18.623  0.00  0.00    +0.000 A 
ATOM      2  C   UNL     1       3.071   4.982  19.111  0.00  0.00    +0.000 A 
ATOM      3  C   UNL     1       2.197   5.520  20.073  0.00  0.00    +0.000 A 
ATOM      4  C   UNL     1       1.078   4.758  20.431  0.00  0.00    +0.000 A 
ATOM      5  C   UNL     1       0.903   3.452  19.961  0.00  0.00    +0.000 A 
ATOM      6  C   UNL     1       1.834   2.903  19.085  0.00  0.00    +0.000 A 
ENDROOT
BRANCH   1   8
ATOM      7  O   UNL     1       4.130   1.943  17.588  0.00  0.00    +0.000 OA
ATOM      8  C   UNL     1       3.845   3.144  17.600  0.00  0.00    +0.000 C 
ATOM      9  N   UNL     1       4.374   4.050  16.698  0.00  0.00    +0.000 N 
ATOM     10  H   UNL     1       4.326   5.030  16.974  0.00  0.00    +0.000 HD
BRANCH   9  11
ATOM     11  C   UNL     1       5.335   3.624  15.701  0.00  0.00    +0.000 C 
BRANCH  11  12
ATOM     12  C   UNL     1       6.353   4.717  15.373  0.00  0.00    +0.000 C 
BRANCH  12  13
ATOM     13  C   UNL     1       6.904   5.404  16.600  0.00  0.00    +0.000 A 
ATOM     14  C   UNL     1       6.959   6.803  16.682  0.00  0.00    +0.000 A 
ATOM     15  C   UNL     1       7.540   7.427  17.790  0.00  0.00    +0.000 A 
ATOM     16  C   UNL     1       8.065   6.661  18.830  0.00  0.00    +0.000 A 
ATOM     17  C   UNL     1       7.986   5.272  18.775  0.00  0.00    +0.000 A 
ATOM     18  C   UNL     1       7.406   4.647  17.668  0.00  0.00    +0.000 A 
ENDBRANCH  12  13
ENDBRANCH  11  12
ENDBRANCH   9  11
ENDBRANCH   1   8
BRANCH   3  19
ATOM     19  N   UNL     1       2.404   6.837  20.524  0.00  0.00    +0.000 N 
ATOM     20  H   UNL     1       2.099   6.930  21.492  0.00  0.00    +0.000 HD
BRANCH  19  21
ATOM     21  C   UNL     1       1.867   7.942  19.709  0.00  0.00    +0.000 C 
BRANCH  21  22
ATOM     22  C   UNL     1       1.037   8.908  20.534  0.00  0.00    +0.000 A 
ATOM     23  C   UNL     1       0.951   8.806  21.932  0.00  0.00    +0.000 A 
ATOM     24  C   UNL     1       0.120   9.669  22.646  0.00  0.00    +0.000 A 
ATOM     25  C   UNL     1      -0.574  10.691  22.009  0.00  0.00    +0.000 A 
ATOM     26  C   UNL     1      -0.443  10.853  20.632  0.00  0.00    +0.000 A 
ATOM     27  C   UNL     1       0.356   9.965  19.907  0.00  0.00    +0.000 A 
BRANCH  24  28
ATOM     28  O   UNL     1      -0.059   9.523  23.989  0.00  0.00    +0.000 OA
ATOM     29  H   UNL     1      -0.632  10.244  24.299  0.00  0.00    +0.000 HD
ENDBRANCH  24  28
BRANCH  27  30
ATOM     30  O   UNL     1       0.479  10.119  18.554  0.00  0.00    +0.000 OA
ATOM     31  H   UNL     1       1.238   9.593  18.247  0.00  0.00    +0.000 HD
ENDBRANCH  27  30
ENDBRANCH  21  22
ENDBRANCH  19  21
ENDBRANCH   3  19
BRANCH   6  32
ATOM     32  O   UNL     1       1.686   1.608  18.668  0.00  0.00    +0.000 OA
ATOM     33  H   UNL     1       1.648   1.595  17.694  0.00  0.00    +0.000 HD
ENDBRANCH   6  32
TORSDOF 10
ENDMDL
MODEL 4
REMARK VINA RESULT:      -8.4      4.350      6.356
REMARK  Name = 
REMARK  10 active torsions:
REMARK  status: ('A' for Active; 'I' for Inactive)
REMARK    1  A    between atoms: C_2  and  C_12
REMARK    2  A    between atoms: N_3  and  C_4
REMARK    3  A    between atoms: C_4  and  C_5
REMARK    4  A    between atoms: C_5  and  C_6
REMARK    5  A    between atoms: C_14  and  N_15
REMARK    6  A    between atoms: N_15  and  C_16
REMARK    7  A    between atoms: C_16  and  C_17
REMARK    8  A    between atoms: C_19  and  O_20
REMARK    9  A    between atoms: C_23  and  O_24
REMARK   10  A    between atoms: C_27  and  O_28
REMARK                            x       y       z     vdW  Elec       q    Type
REMARK                         _______ _______ _______ _____ _____    ______ ____
ROOT
ATOM      1  C   UNL     1       4.562   4.288  19.540  0.00  0.00    +0.000 A 
ATOM      2  C   UNL     1       3.680   5.361  19.783  0.00  0.00    +0.000 A 
ATOM      3  C   UNL     1       2.446   5.164  20.429  0.00  0.00    +0.000 A 
ATOM      4  C   UNL     1       2.060   3.845  20.701  0.00  0.00    +0.000 A 
ATOM      5  C   UNL     1       2.923   2.770  20.471  0.00  0.00    +0.000 A 
ATOM      6  C   UNL     1       4.181   3.000  19.922  0.00  0.00    +0.000 A 
ENDROOT
BRANCH   1   8
ATOM      7  O   UNL     1       6.772   5.095  19.448  0.00  0.00    +0.000 OA
ATOM      8  C   UNL     1       5.849   4.538  18.846  0.00  0.00    +0.000 C 
ATOM      9  N   UNL     1       5.948   4.136  17.526  0.00  0.00    +0.000 N 
ATOM     10  H   UNL     1       5.065   3.978  17.043  0.00  0.00    +0.000 HD
BRANCH   9  11
ATOM     11  C   UNL     1       7.154   4.390  16.765  0.00  0.00    +0.000 C 
BRANCH  11  12
ATOM     12  C   UNL     1       6.931   5.413  15.650  0.00  0.00    +0.000 C 
BRANCH  12  13
ATOM     13  C   UNL     1       6.846   4.788  14.278  0.00  0.00    +0.000 A 
ATOM     14  C   UNL     1       7.700   5.196  13.243  0.00  0.00    +0.000 A 
ATOM     15  C   UNL     1       7.561   4.664  11.957  0.00  0.00    +0.000 A 
ATOM     16  C   UNL     1       6.575   3.715  11.694  0.00  0.00    +0.000 A 
ATOM     17  C   UNL     1       5.743   3.278  12.722  0.00  0.00    +0.000 A 
ATOM     18  C   UNL     1       5.879   3.809  14.007  0.00  0.00    +0.000 A 
ENDBRANCH  12  13
ENDBRANCH  11  12
ENDBRANCH   9  11
ENDBRANCH   1   8
BRANCH   3  19
ATOM     19  N   UNL     1       1.603   6.270  20.645  0.00  0.00    +0.000 N 
ATOM     20  H   UNL     1       0.651   6.049  20.356  0.00  0.00    +0.000 HD
BRANCH  19  21
ATOM     21  C   UNL     1       2.016   7.575  20.097  0.00  0.00    +0.000 C 
BRANCH  21  22
ATOM     22  C   UNL     1       1.174   8.714  20.642  0.00  0.00    +0.000 A 
ATOM     23  C   UNL     1       0.966   8.891  22.019  0.00  0.00    +0.000 A 
ATOM     24  C   UNL     1       0.128   9.908  22.474  0.00  0.00    +0.000 A 
ATOM     25  C   UNL     1      -0.452  10.811  21.592  0.00  0.00    +0.000 A 
ATOM     26  C   UNL     1      -0.198  10.696  20.228  0.00  0.00    +0.000 A 
ATOM     27  C   UNL     1       0.609   9.655  19.764  0.00  0.00    +0.000 A 
BRANCH  24  28
ATOM     28  O   UNL     1      -0.171  10.034  23.798  0.00  0.00    +0.000 OA
ATOM     29  H   UNL     1       0.530   9.596  24.311  0.00  0.00    +0.000 HD
ENDBRANCH  24  28
BRANCH  27  30
ATOM     30  O   UNL     1       0.853   9.537  18.423  0.00  0.00    +0.000 OA
ATOM     31  H   UNL     1       0.144   9.989  17.935  0.00  0.00    +0.000 HD
ENDBRANCH  27  30
ENDBRANCH  21  22
ENDBRANCH  19  21
ENDBRANCH   3  19
BRANCH   6  32
ATOM     32  O   UNL     1       5.042   1.950  19.745  0.00  0.00    +0.000 OA
ATOM     33  H   UNL     1       4.545   1.117  19.838  0.00  0.00    +0.000 HD
ENDBRANCH   6  32
TORSDOF 10
ENDMDL
MODEL 5
REMARK VINA RESULT:      -8.4      3.057      7.266
REMARK  Name = 
REMARK  10 active torsions:
REMARK  status: ('A' for Active; 'I' for Inactive)
REMARK    1  A    between atoms: C_2  and  C_12
REMARK    2  A    between atoms: N_3  and  C_4
REMARK    3  A    between atoms: C_4  and  C_5
REMARK    4  A    between atoms: C_5  and  C_6
REMARK    5  A    between atoms: C_14  and  N_15
REMARK    6  A    between atoms: N_15  and  C_16
REMARK    7  A    between atoms: C_16  and  C_17
REMARK    8  A    between atoms: C_19  and  O_20
REMARK    9  A    between atoms: C_23  and  O_24
REMARK   10  A    between atoms: C_27  and  O_28
REMARK                            x       y       z     vdW  Elec       q    Type
REMARK                         _______ _______ _______ _____ _____    ______ ____
ROOT
ATOM      1  C   UNL     1       2.348   4.583  19.149  0.00  0.00    +0.000 A 
ATOM      2  C   UNL     1       3.478   4.394  18.328  0.00  0.00    +0.000 A 
ATOM      3  C   UNL     1       3.823   3.122  17.836  0.00  0.00    +0.000 A 
ATOM      4  C   UNL     1       3.085   2.026  18.300  0.00  0.00    +0.000 A 
ATOM      5  C   UNL     1       1.959   2.195  19.111  0.00  0.00    +0.000 A 
ATOM      6  C   UNL     1       1.577   3.474  19.505  0.00  0.00    +0.000 A 
ENDROOT
BRANCH   1   8
ATOM      7  O   UNL     1       1.543   6.074  20.784  0.00  0.00    +0.000 OA
ATOM      8  C   UNL     1       2.026   5.940  19.656  0.00  0.00    +0.000 C 
ATOM      9  N   UNL     1       2.280   7.009  18.815  0.00  0.00    +0.000 N 
ATOM     10  H   UNL     1       2.380   6.781  17.826  0.00  0.00    +0.000 HD
BRANCH   9  11
ATOM     11  C   UNL     1       1.946   8.360  19.217  0.00  0.00    +0.000 C 
BRANCH  11  12
ATOM     12  C   UNL     1       1.494   9.221  18.036  0.00  0.00    +0.000 C 
BRANCH  12  13
ATOM     13  C   UNL     1       0.290  10.077  18.351  0.00  0.00    +0.000 A 
ATOM     14  C   UNL     1      -0.954   9.822  17.757  0.00  0.00    +0.000 A 
ATOM     15  C   UNL     1      -2.042  10.666  17.997  0.00  0.00    +0.000 A 
ATOM     16  C   UNL     1      -1.901  11.768  18.840  0.00  0.00    +0.000 A 
ATOM     17  C   UNL     1      -0.680  12.012  19.462  0.00  0.00    +0.000 A 
ATOM     18  C   UNL     1       0.409  11.170  19.222  0.00  0.00    +0.000 A 
ENDBRANCH  12  13
ENDBRANCH  11  12
ENDBRANCH   9  11
ENDBRANCH   1   8
BRANCH   3  19
ATOM     19  N   UNL     1       4.963   2.990  17.021  0.00  0.00    +0.000 N 
ATOM     20  H   UNL     1       5.750   2.649  17.570  0.00  0.00    +0.000 HD
BRANCH  19  21
ATOM     21  C   UNL     1       5.370   4.149  16.205  0.00  0.00    +0.000 C 
BRANCH  21  22
ATOM     22  C   UNL     1       6.260   5.105  16.977  0.00  0.00    +0.000 A 
ATOM     23  C   UNL     1       7.070   4.672  18.039  0.00  0.00    +0.000 A 
ATOM     24  C   UNL     1       7.818   5.595  18.769  0.00  0.00    +0.000 A 
ATOM     25  C   UNL     1       7.844   6.939  18.418  0.00  0.00    +0.000 A 
ATOM     26  C   UNL     1       7.104   7.375  17.322  0.00  0.00    +0.000 A 
ATOM     27  C   UNL     1       6.321   6.461  16.613  0.00  0.00    +0.000 A 
BRANCH  24  28
ATOM     28  O   UNL     1       8.530   5.213  19.867  0.00  0.00    +0.000 OA
ATOM     29  H   UNL     1       8.866   6.013  20.305  0.00  0.00    +0.000 HD
ENDBRANCH  24  28
BRANCH  27  30
ATOM     30  O   UNL     1       5.588   6.889  15.540  0.00  0.00    +0.000 OA
ATOM     31  H   UNL     1       5.949   7.739  15.234  0.00  0.00    +0.000 HD
ENDBRANCH  27  30
ENDBRANCH  21  22
ENDBRANCH  19  21
ENDBRANCH   3  19
BRANCH   6  32
ATOM     32  O   UNL     1       0.445   3.638  20.257  0.00  0.00    +0.000 OA
ATOM     33  H   UNL     1      -0.228   4.090  19.717  0.00  0.00    +0.000 HD
ENDBRANCH   6  32
TORSDOF 10
ENDMDL
MODEL 6
REMARK VINA RESULT:      -8.2      2.943      7.399
REMARK  Name = 
REMARK  10 active torsions:
REMARK  status: ('A' for Active; 'I' for Inactive)
REMARK    1  A    between atoms: C_2  and  C_12
REMARK    2  A    between atoms: N_3  and  C_4
REMARK    3  A    between atoms: C_4  and  C_5
REMARK    4  A    between atoms: C_5  and  C_6
REMARK    5  A    between atoms: C_14  and  N_15
REMARK    6  A    between atoms: N_15  and  C_16
REMARK    7  A    between atoms: C_16  and  C_17
REMARK    8  A    between atoms: C_19  and  O_20
REMARK    9  A    between atoms: C_23  and  O_24
REMARK   10  A    between atoms: C_27  and  O_28
REMARK                            x       y       z     vdW  Elec       q    Type
REMARK                         _______ _______ _______ _____ _____    ______ ____
ROOT
ATOM      1  C   UNL     1       2.343   4.976  19.181  0.00  0.00    +0.000 A 
ATOM      2  C   UNL     1       3.468   4.654  18.394  0.00  0.00    +0.000 A 
ATOM      3  C   UNL     1       3.785   3.319  18.081  0.00  0.00    +0.000 A 
ATOM      4  C   UNL     1       3.025   2.312  18.689  0.00  0.00    +0.000 A 
ATOM      5  C   UNL     1       1.903   2.614  19.467  0.00  0.00    +0.000 A 
ATOM      6  C   UNL     1       1.549   3.942  19.683  0.00  0.00    +0.000 A 
ENDROOT
BRANCH   1   8
ATOM      7  O   UNL     1       2.135   7.251  18.611  0.00  0.00    +0.000 OA
ATOM      8  C   UNL     1       2.050   6.396  19.497  0.00  0.00    +0.000 C 
ATOM      9  N   UNL     1       1.701   6.698  20.801  0.00  0.00    +0.000 N 
ATOM     10  H   UNL     1       1.955   6.001  21.501  0.00  0.00    +0.000 HD
BRANCH   9  11
ATOM     11  C   UNL     1       1.450   8.067  21.200  0.00  0.00    +0.000 C 
BRANCH  11  12
ATOM     12  C   UNL     1      -0.022   8.313  21.535  0.00  0.00    +0.000 C 
BRANCH  12  13
ATOM     13  C   UNL     1      -0.383   9.778  21.594  0.00  0.00    +0.000 A 
ATOM     14  C   UNL     1      -0.348  10.578  20.442  0.00  0.00    +0.000 A 
ATOM     15  C   UNL     1      -0.610  11.949  20.522  0.00  0.00    +0.000 A 
ATOM     16  C   UNL     1      -0.916  12.533  21.750  0.00  0.00    +0.000 A 
ATOM     17  C   UNL     1      -0.986  11.744  22.894  0.00  0.00    +0.000 A 
ATOM     18  C   UNL     1      -0.723  10.373  22.817  0.00  0.00    +0.000 A 
ENDBRANCH  12  13
ENDBRANCH  11  12
ENDBRANCH   9  11
ENDBRANCH   1   8
BRANCH   3  19
ATOM     19  N   UNL     1       4.921   3.053  17.294  0.00  0.00    +0.000 N 
ATOM     20  H   UNL     1       5.678   2.699  17.876  0.00  0.00    +0.000 HD
BRANCH  19  21
ATOM     21  C   UNL     1       5.414   4.121  16.405  0.00  0.00    +0.000 C 
BRANCH  21  22
ATOM     22  C   UNL     1       6.321   5.095  17.133  0.00  0.00    +0.000 A 
ATOM     23  C   UNL     1       7.124   4.696  18.214  0.00  0.00    +0.000 A 
ATOM     24  C   UNL     1       7.889   5.638  18.902  0.00  0.00    +0.000 A 
ATOM     25  C   UNL     1       7.939   6.963  18.490  0.00  0.00    +0.000 A 
ATOM     26  C   UNL     1       7.207   7.363  17.375  0.00  0.00    +0.000 A 
ATOM     27  C   UNL     1       6.407   6.432  16.707  0.00  0.00    +0.000 A 
BRANCH  24  28
ATOM     28  O   UNL     1       8.593   5.293  20.017  0.00  0.00    +0.000 OA
ATOM     29  H   UNL     1       9.355   5.892  20.092  0.00  0.00    +0.000 HD
ENDBRANCH  24  28
BRANCH  27  30
ATOM     30  O   UNL     1       5.682   6.824  15.616  0.00  0.00    +0.000 OA
ATOM     31  H   UNL     1       6.167   6.572  14.811  0.00  0.00    +0.000 HD
ENDBRANCH  27  30
ENDBRANCH  21  22
ENDBRANCH  19  21
ENDBRANCH   3  19
BRANCH   6  32
ATOM     32  O   UNL     1       0.422   4.231  20.404  0.00  0.00    +0.000 OA
ATOM     33  H   UNL     1       0.084   3.409  20.803  0.00  0.00    +0.000 HD
ENDBRANCH   6  32
TORSDOF 10
ENDMDL
MODEL 7
REMARK VINA RESULT:      -8.2      3.080      7.411
REMARK  Name = 
REMARK  10 active torsions:
REMARK  status: ('A' for Active; 'I' for Inactive)
REMARK    1  A    between atoms: C_2  and  C_12
REMARK    2  A    between atoms: N_3  and  C_4
REMARK    3  A    between atoms: C_4  and  C_5
REMARK    4  A    between atoms: C_5  and  C_6
REMARK    5  A    between atoms: C_14  and  N_15
REMARK    6  A    between atoms: N_15  and  C_16
REMARK    7  A    between atoms: C_16  and  C_17
REMARK    8  A    between atoms: C_19  and  O_20
REMARK    9  A    between atoms: C_23  and  O_24
REMARK   10  A    between atoms: C_27  and  O_28
REMARK                            x       y       z     vdW  Elec       q    Type
REMARK                         _______ _______ _______ _____ _____    ______ ____
ROOT
ATOM      1  C   UNL     1       2.340   4.181  19.507  0.00  0.00    +0.000 A 
ATOM      2  C   UNL     1       3.526   4.102  18.749  0.00  0.00    +0.000 A 
ATOM      3  C   UNL     1       3.742   3.055  17.834  0.00  0.00    +0.000 A 
ATOM      4  C   UNL     1       2.800   2.019  17.799  0.00  0.00    +0.000 A 
ATOM      5  C   UNL     1       1.616   2.085  18.540  0.00  0.00    +0.000 A 
ATOM      6  C   UNL     1       1.377   3.179  19.365  0.00  0.00    +0.000 A 
ENDROOT
BRANCH   1   8
ATOM      7  O   UNL     1       2.169   5.066  21.683  0.00  0.00    +0.000 OA
ATOM      8  C   UNL     1       2.157   5.295  20.470  0.00  0.00    +0.000 C 
ATOM      9  N   UNL     1       1.967   6.562  19.947  0.00  0.00    +0.000 N 
ATOM     10  H   UNL     1       1.670   6.600  18.973  0.00  0.00    +0.000 HD
BRANCH   9  11
ATOM     11  C   UNL     1       1.731   7.693  20.820  0.00  0.00    +0.000 C 
BRANCH  11  12
ATOM     12  C   UNL     1       0.255   7.839  21.195  0.00  0.00    +0.000 C 
BRANCH  12  13
ATOM     13  C   UNL     1      -0.133   9.257  21.541  0.00  0.00    +0.000 A 
ATOM     14  C   UNL     1      -0.573   9.592  22.831  0.00  0.00    +0.000 A 
ATOM     15  C   UNL     1      -1.002  10.891  23.119  0.00  0.00    +0.000 A 
ATOM     16  C   UNL     1      -0.988  11.870  22.127  0.00  0.00    +0.000 A 
ATOM     17  C   UNL     1      -0.522  11.557  20.853  0.00  0.00    +0.000 A 
ATOM     18  C   UNL     1      -0.094  10.259  20.562  0.00  0.00    +0.000 A 
ENDBRANCH  12  13
ENDBRANCH  11  12
ENDBRANCH   9  11
ENDBRANCH   1   8
BRANCH   3  19
ATOM     19  N   UNL     1       4.945   3.023  17.104  0.00  0.00    +0.000 N 
ATOM     20  H   UNL     1       5.720   2.767  17.713  0.00  0.00    +0.000 HD
BRANCH  19  21
ATOM     21  C   UNL     1       5.297   4.204  16.294  0.00  0.00    +0.000 C 
BRANCH  21  22
ATOM     22  C   UNL     1       6.224   5.148  17.037  0.00  0.00    +0.000 A 
ATOM     23  C   UNL     1       7.025   4.714  18.106  0.00  0.00    +0.000 A 
ATOM     24  C   UNL     1       7.809   5.628  18.809  0.00  0.00    +0.000 A 
ATOM     25  C   UNL     1       7.880   6.961  18.422  0.00  0.00    +0.000 A 
ATOM     26  C   UNL     1       7.150   7.394  17.318  0.00  0.00    +0.000 A 
ATOM     27  C   UNL     1       6.331   6.491  16.637  0.00  0.00    +0.000 A 
BRANCH  24  28
ATOM     28  O   UNL     1       8.513   5.250  19.913  0.00  0.00    +0.000 OA
ATOM     29  H   UNL     1       8.721   6.047  20.428  0.00  0.00    +0.000 HD
ENDBRANCH  24  28
BRANCH  27  30
ATOM     30  O   UNL     1       5.608   6.917  15.557  0.00  0.00    +0.000 OA
ATOM     31  H   UNL     1       5.246   7.799  15.752  0.00  0.00    +0.000 HD
ENDBRANCH  27  30
ENDBRANCH  21  22
ENDBRANCH  19  21
ENDBRANCH   3  19
BRANCH   6  32
ATOM     32  O   UNL     1       0.195   3.262  20.050  0.00  0.00    +0.000 OA
ATOM     33  H   UNL     1       0.342   2.970  20.967  0.00  0.00    +0.000 HD
ENDBRANCH   6  32
TORSDOF 10
ENDMDL
MODEL 8
REMARK VINA RESULT:      -8.2      3.084      7.341
REMARK  Name = 
REMARK  10 active torsions:
REMARK  status: ('A' for Active; 'I' for Inactive)
REMARK    1  A    between atoms: C_2  and  C_12
REMARK    2  A    between atoms: N_3  and  C_4
REMARK    3  A    between atoms: C_4  and  C_5
REMARK    4  A    between atoms: C_5  and  C_6
REMARK    5  A    between atoms: C_14  and  N_15
REMARK    6  A    between atoms: N_15  and  C_16
REMARK    7  A    between atoms: C_16  and  C_17
REMARK    8  A    between atoms: C_19  and  O_20
REMARK    9  A    between atoms: C_23  and  O_24
REMARK   10  A    between atoms: C_27  and  O_28
REMARK                            x       y       z     vdW  Elec       q    Type
REMARK                         _______ _______ _______ _____ _____    ______ ____
ROOT
ATOM      1  C   UNL     1       2.216   4.565  19.335  0.00  0.00    +0.000 A 
ATOM      2  C   UNL     1       3.157   4.838  18.321  0.00  0.00    +0.000 A 
ATOM      3  C   UNL     1       3.350   3.955  17.243  0.00  0.00    +0.000 A 
ATOM      4  C   UNL     1       2.673   2.729  17.279  0.00  0.00    +0.000 A 
ATOM      5  C   UNL     1       1.733   2.445  18.274  0.00  0.00    +0.000 A 
ATOM      6  C   UNL     1       1.486   3.376  19.277  0.00  0.00    +0.000 A 
ENDROOT
BRANCH   1   8
ATOM      7  O   UNL     1       2.070   5.101  21.623  0.00  0.00    +0.000 OA
ATOM      8  C   UNL     1       2.053   5.517  20.461  0.00  0.00    +0.000 C 
ATOM      9  N   UNL     1       1.874   6.852  20.143  0.00  0.00    +0.000 N 
ATOM     10  H   UNL     1       1.571   7.044  19.189  0.00  0.00    +0.000 HD
BRANCH   9  11
ATOM     11  C   UNL     1       1.657   7.836  21.184  0.00  0.00    +0.000 C 
BRANCH  11  12
ATOM     12  C   UNL     1       0.170   8.074  21.456  0.00  0.00    +0.000 C 
BRANCH  12  13
ATOM     13  C   UNL     1      -0.226   9.528  21.355  0.00  0.00    +0.000 A 
ATOM     14  C   UNL     1      -0.446  10.133  20.109  0.00  0.00    +0.000 A 
ATOM     15  C   UNL     1      -0.738  11.497  20.024  0.00  0.00    +0.000 A 
ATOM     16  C   UNL     1      -0.823  12.269  21.181  0.00  0.00    +0.000 A 
ATOM     17  C   UNL     1      -0.640  11.673  22.426  0.00  0.00    +0.000 A 
ATOM     18  C   UNL     1      -0.346  10.310  22.513  0.00  0.00    +0.000 A 
ENDBRANCH  12  13
ENDBRANCH  11  12
ENDBRANCH   9  11
ENDBRANCH   1   8
BRANCH   3  19
ATOM     19  N   UNL     1       4.304   4.275  16.259  0.00  0.00    +0.000 N 
ATOM     20  H   UNL     1       3.982   3.968  15.342  0.00  0.00    +0.000 HD
BRANCH  19  21
ATOM     21  C   UNL     1       5.698   3.851  16.481  0.00  0.00    +0.000 C 
BRANCH  21  22
ATOM     22  C   UNL     1       6.508   4.909  17.208  0.00  0.00    +0.000 A 
ATOM     23  C   UNL     1       7.226   4.621  18.379  0.00  0.00    +0.000 A 
ATOM     24  C   UNL     1       7.897   5.638  19.056  0.00  0.00    +0.000 A 
ATOM     25  C   UNL     1       7.940   6.932  18.551  0.00  0.00    +0.000 A 
ATOM     26  C   UNL     1       7.295   7.221  17.351  0.00  0.00    +0.000 A 
ATOM     27  C   UNL     1       6.587   6.214  16.691  0.00  0.00    +0.000 A 
BRANCH  24  28
ATOM     28  O   UNL     1       8.514   5.403  20.248  0.00  0.00    +0.000 OA
ATOM     29  H   UNL     1       9.284   5.992  20.314  0.00  0.00    +0.000 HD
ENDBRANCH  24  28
BRANCH  27  30
ATOM     30  O   UNL     1       5.946   6.498  15.516  0.00  0.00    +0.000 OA
ATOM     31  H   UNL     1       6.190   7.398  15.237  0.00  0.00    +0.000 HD
ENDBRANCH  27  30
ENDBRANCH  21  22
ENDBRANCH  19  21
ENDBRANCH   3  19
BRANCH   6  32
ATOM     32  O   UNL     1       0.529   3.113  20.220  0.00  0.00    +0.000 OA
ATOM     33  H   UNL     1       0.527   3.834  20.876  0.00  0.00    +0.000 HD
ENDBRANCH   6  32
TORSDOF 10
ENDMDL
MODEL 9
REMARK VINA RESULT:      -8.1      3.066      7.425
REMARK  Name = 
REMARK  10 active torsions:
REMARK  status: ('A' for Active; 'I' for Inactive)
REMARK    1  A    between atoms: C_2  and  C_12
REMARK    2  A    between atoms: N_3  and  C_4
REMARK    3  A    between atoms: C_4  and  C_5
REMARK    4  A    between atoms: C_5  and  C_6
REMARK    5  A    between atoms: C_14  and  N_15
REMARK    6  A    between atoms: N_15  and  C_16
REMARK    7  A    between atoms: C_16  and  C_17
REMARK    8  A    between atoms: C_19  and  O_20
REMARK    9  A    between atoms: C_23  and  O_24
REMARK   10  A    between atoms: C_27  and  O_28
REMARK                            x       y       z     vdW  Elec       q    Type
REMARK                         _______ _______ _______ _____ _____    ______ ____
ROOT
ATOM      1  C   UNL     1       2.634   4.933  18.969  0.00  0.00    +0.000 A 
ATOM      2  C   UNL     1       3.384   4.972  17.776  0.00  0.00    +0.000 A 
ATOM      3  C   UNL     1       3.885   3.797  17.186  0.00  0.00    +0.000 A 
ATOM      4  C   UNL     1       3.730   2.598  17.894  0.00  0.00    +0.000 A 
ATOM      5  C   UNL     1       2.985   2.541  19.076  0.00  0.00    +0.000 A 
ATOM      6  C   UNL     1       2.414   3.701  19.590  0.00  0.00    +0.000 A 
ENDROOT
BRANCH   1   8
ATOM      7  O   UNL     1       1.673   6.194  20.709  0.00  0.00    +0.000 OA
ATOM      8  C   UNL     1       2.134   6.197  19.564  0.00  0.00    +0.000 C 
ATOM      9  N   UNL     1       2.200   7.337  18.783  0.00  0.00    +0.000 N 
ATOM     10  H   UNL     1       2.301   7.182  17.780  0.00  0.00    +0.000 HD
BRANCH   9  11
ATOM     11  C   UNL     1       1.687   8.599  19.273  0.00  0.00    +0.000 C 
BRANCH  11  12
ATOM     12  C   UNL     1       1.312   9.553  18.138  0.00  0.00    +0.000 C 
BRANCH  12  13
ATOM     13  C   UNL     1      -0.006  10.256  18.363  0.00  0.00    +0.000 A 
ATOM     14  C   UNL     1      -0.157  11.197  19.393  0.00  0.00    +0.000 A 
ATOM     15  C   UNL     1      -1.400  11.785  19.639  0.00  0.00    +0.000 A 
ATOM     16  C   UNL     1      -2.503  11.447  18.857  0.00  0.00    +0.000 A 
ATOM     17  C   UNL     1      -2.358  10.539  17.811  0.00  0.00    +0.000 A 
ATOM     18  C   UNL     1      -1.116   9.949  17.564  0.00  0.00    +0.000 A 
ENDBRANCH  12  13
ENDBRANCH  11  12
ENDBRANCH   9  11
ENDBRANCH   1   8
BRANCH   3  19
ATOM     19  N   UNL     1       4.629   3.893  15.995  0.00  0.00    +0.000 N 
ATOM     20  H   UNL     1       4.255   3.257  15.293  0.00  0.00    +0.000 HD
BRANCH  19  21
ATOM     21  C   UNL     1       6.095   3.757  16.082  0.00  0.00    +0.000 C 
BRANCH  21  22
ATOM     22  C   UNL     1       6.720   4.848  16.932  0.00  0.00    +0.000 A 
ATOM     23  C   UNL     1       7.464   4.556  18.086  0.00  0.00    +0.000 A 
ATOM     24  C   UNL     1       7.959   5.590  18.879  0.00  0.00    +0.000 A 
ATOM     25  C   UNL     1       7.801   6.920  18.508  0.00  0.00    +0.000 A 
ATOM     26  C   UNL     1       7.130   7.227  17.327  0.00  0.00    +0.000 A 
ATOM     27  C   UNL     1       6.596   6.196  16.552  0.00  0.00    +0.000 A 
BRANCH  24  28
ATOM     28  O   UNL     1       8.594   5.332  20.057  0.00  0.00    +0.000 OA
ATOM     29  H   UNL     1       8.930   4.420  20.028  0.00  0.00    +0.000 HD
ENDBRANCH  24  28
BRANCH  27  30
ATOM     30  O   UNL     1       5.930   6.496  15.395  0.00  0.00    +0.000 OA
ATOM     31  H   UNL     1       6.266   7.342  15.052  0.00  0.00    +0.000 HD
ENDBRANCH  27  30
ENDBRANCH  21  22
ENDBRANCH  19  21
ENDBRANCH   3  19
BRANCH   6  32
ATOM     32  O   UNL     1       1.644   3.631  20.719  0.00  0.00    +0.000 OA
ATOM     33  H   UNL     1       0.744   3.935  20.505  0.00  0.00    +0.000 HD
ENDBRANCH   6  32
TORSDOF 10
ENDMDL
