MODEL 1
REMARK VINA RESULT:      -8.1      0.000      0.000
REMARK  Name = 
REMARK  1 active torsions:
REMARK  status: ('A' for Active; 'I' for Inactive)
REMARK    1  A    between atoms: C_5  and  C_6
REMARK                            x       y       z     vdW  Elec       q    Type
REMARK                         _______ _______ _______ _____ _____    ______ ____
ROOT
ATOM      1  C   UNL     1       5.073   4.896  18.718  0.00  0.00    +0.000 C 
ATOM      2  O   UNL     1       5.692   3.867  18.999  0.00  0.00    +0.000 OA
ATOM      3  N   UNL     1       3.773   5.078  19.168  0.00  0.00    +0.000 N 
ATOM      4  C   UNL     1       2.905   6.229  18.892  0.00  0.00    +0.000 C 
ATOM      5  C   UNL     1       2.105   6.649  20.127  0.00  0.00    +0.000 C 
ATOM      6  O   UNL     1       1.389   5.547  20.692  0.00  0.00    +0.000 OA
ATOM      7  C   UNL     1       2.299   4.516  21.111  0.00  0.00    +0.000 C 
ATOM      8  C   UNL     1       1.487   3.290  21.516  0.00  0.00    +0.000 C 
ATOM      9  C   UNL     1       1.296   2.476  20.229  0.00  0.00    +0.000 C 
ATOM     10  C   UNL     1       2.134   3.162  19.149  0.00  0.00    +0.000 C 
ATOM     11  C   UNL     1       3.146   3.999  19.939  0.00  0.00    +0.000 C 
ENDROOT
BRANCH   1  16
ATOM     12  C   UNL     1       7.235   4.980  14.114  0.00  0.00    +0.000 C 
ATOM     13  C   UNL     1       6.670   4.939  15.330  0.00  0.00    +0.000 C 
ATOM     14  C   UNL     1       7.449   4.616  16.578  0.00  0.00    +0.000 C 
ATOM     15  C   UNL     1       7.244   5.691  17.652  0.00  0.00    +0.000 C 
ATOM     16  C   UNL     1       5.756   6.022  17.919  0.00  0.00    +0.000 C 
ATOM     17  C   UNL     1       5.061   6.353  16.586  0.00  0.00    +0.000 C 
ATOM     18  C   UNL     1       5.216   5.241  15.551  0.00  0.00    +0.000 C 
ENDBRANCH   1  16
TORSDOF 1
ENDMDL
MODEL 2
REMARK VINA RESULT:      -7.9      1.823      2.830
REMARK  Name = 
REMARK  1 active torsions:
REMARK  status: ('A' for Active; 'I' for Inactive)
REMARK    1  A    between atoms: C_5  and  C_6
REMARK                            x       y       z     vdW  Elec       q    Type
REMARK                         _______ _______ _______ _____ _____    ______ ____
ROOT
ATOM      1  C   UNL     1       5.189   4.687  18.843  0.00  0.00    +0.000 C 
ATOM      2  O   UNL     1       5.325   5.336  19.883  0.00  0.00    +0.000 OA
ATOM      3  N   UNL     1       4.051   3.918  18.639  0.00  0.00    +0.000 N 
ATOM      4  C   UNL     1       3.762   3.075  17.474  0.00  0.00    +0.000 C 
ATOM      5  C   UNL     1       2.297   3.180  17.043  0.00  0.00    +0.000 C 
ATOM      6  O   UNL     1       1.407   2.929  18.134  0.00  0.00    +0.000 OA
ATOM      7  C   UNL     1       1.607   3.893  19.181  0.00  0.00    +0.000 C 
ATOM      8  C   UNL     1       0.787   3.468  20.394  0.00  0.00    +0.000 C 
ATOM      9  C   UNL     1       1.696   2.533  21.202  0.00  0.00    +0.000 C 
ATOM     10  C   UNL     1       3.068   2.567  20.528  0.00  0.00    +0.000 C 
ATOM     11  C   UNL     1       3.049   3.863  19.710  0.00  0.00    +0.000 C 
ENDROOT
BRANCH   1  16
ATOM     12  C   UNL     1       8.299   8.434  17.374  0.00  0.00    +0.000 C 
ATOM     13  C   UNL     1       7.465   7.459  17.767  0.00  0.00    +0.000 C 
ATOM     14  C   UNL     1       6.086   7.286  17.187  0.00  0.00    +0.000 C 
ATOM     15  C   UNL     1       5.872   5.853  16.686  0.00  0.00    +0.000 C 
ATOM     16  C   UNL     1       6.247   4.772  17.727  0.00  0.00    +0.000 C 
ATOM     17  C   UNL     1       7.676   5.030  18.239  0.00  0.00    +0.000 C 
ATOM     18  C   UNL     1       7.852   6.440  18.800  0.00  0.00    +0.000 C 
ENDBRANCH   1  16
TORSDOF 1
ENDMDL
MODEL 3
REMARK VINA RESULT:      -7.2      1.791      5.969
REMARK  Name = 
REMARK  1 active torsions:
REMARK  status: ('A' for Active; 'I' for Inactive)
REMARK    1  A    between atoms: C_5  and  C_6
REMARK                            x       y       z     vdW  Elec       q    Type
REMARK                         _______ _______ _______ _____ _____    ______ ____
ROOT
ATOM      1  C   UNL     1       3.012   3.910  17.662  0.00  0.00    +0.000 C 
ATOM      2  O   UNL     1       3.197   2.746  17.301  0.00  0.00    +0.000 OA
ATOM      3  N   UNL     1       3.930   4.900  17.340  0.00  0.00    +0.000 N 
ATOM      4  C   UNL     1       3.861   6.315  17.722  0.00  0.00    +0.000 C 
ATOM      5  C   UNL     1       4.288   7.237  16.577  0.00  0.00    +0.000 C 
ATOM      6  O   UNL     1       5.570   6.872  16.057  0.00  0.00    +0.000 OA
ATOM      7  C   UNL     1       5.540   5.535  15.532  0.00  0.00    +0.000 C 
ATOM      8  C   UNL     1       6.965   5.122  15.177  0.00  0.00    +0.000 C 
ATOM      9  C   UNL     1       7.549   4.511  16.458  0.00  0.00    +0.000 C 
ATOM     10  C   UNL     1       6.405   4.437  17.469  0.00  0.00    +0.000 C 
ATOM     11  C   UNL     1       5.140   4.513  16.607  0.00  0.00    +0.000 C 
ENDROOT
BRANCH   1  16
ATOM     12  C   UNL     1       1.189   2.533  22.207  0.00  0.00    +0.000 C 
ATOM     13  C   UNL     1       1.678   2.879  21.006  0.00  0.00    +0.000 C 
ATOM     14  C   UNL     1       1.353   2.120  19.747  0.00  0.00    +0.000 C 
ATOM     15  C   UNL     1       0.827   3.059  18.655  0.00  0.00    +0.000 C 
ATOM     16  C   UNL     1       1.727   4.296  18.418  0.00  0.00    +0.000 C 
ATOM     17  C   UNL     1       1.980   5.006  19.761  0.00  0.00    +0.000 C 
ATOM     18  C   UNL     1       2.570   4.072  20.816  0.00  0.00    +0.000 C 
ENDBRANCH   1  16
TORSDOF 1
ENDMDL
MODEL 4
REMARK VINA RESULT:      -6.7      1.736      6.083
REMARK  Name = 
REMARK  1 active torsions:
REMARK  status: ('A' for Active; 'I' for Inactive)
REMARK    1  A    between atoms: C_5  and  C_6
REMARK                            x       y       z     vdW  Elec       q    Type
REMARK                         _______ _______ _______ _____ _____    ______ ____
ROOT
ATOM      1  C   UNL     1       3.934   4.826  18.049  0.00  0.00    +0.000 C 
ATOM      2  O   UNL     1       2.924   4.540  17.402  0.00  0.00    +0.000 OA
ATOM      3  N   UNL     1       5.153   4.998  17.409  0.00  0.00    +0.000 N 
ATOM      4  C   UNL     1       6.438   5.311  18.045  0.00  0.00    +0.000 C 
ATOM      5  C   UNL     1       7.242   6.332  17.237  0.00  0.00    +0.000 C 
ATOM      6  O   UNL     1       7.390   5.926  15.873  0.00  0.00    +0.000 OA
ATOM      7  C   UNL     1       6.105   5.806  15.240  0.00  0.00    +0.000 C 
ATOM      8  C   UNL     1       6.301   5.182  13.862  0.00  0.00    +0.000 C 
ATOM      9  C   UNL     1       6.237   3.665  14.081  0.00  0.00    +0.000 C 
ATOM     10  C   UNL     1       5.846   3.450  15.544  0.00  0.00    +0.000 C 
ATOM     11  C   UNL     1       5.213   4.783  15.959  0.00  0.00    +0.000 C 
ENDROOT
BRANCH   1  16
ATOM     12  C   UNL     1       1.220   2.544  21.696  0.00  0.00    +0.000 C 
ATOM     13  C   UNL     1       1.921   3.143  20.722  0.00  0.00    +0.000 C 
ATOM     14  C   UNL     1       1.403   4.335  19.961  0.00  0.00    +0.000 C 
ATOM     15  C   UNL     1       2.414   5.487  19.982  0.00  0.00    +0.000 C 
ATOM     16  C   UNL     1       3.844   5.062  19.568  0.00  0.00    +0.000 C 
ATOM     17  C   UNL     1       4.281   3.853  20.416  0.00  0.00    +0.000 C 
ATOM     18  C   UNL     1       3.297   2.688  20.328  0.00  0.00    +0.000 C 
ENDBRANCH   1  16
TORSDOF 1
ENDMDL
MODEL 5
REMARK VINA RESULT:      -6.7      1.639      6.101
REMARK  Name = 
REMARK  1 active torsions:
REMARK  status: ('A' for Active; 'I' for Inactive)
REMARK    1  A    between atoms: C_5  and  C_6
REMARK                            x       y       z     vdW  Elec       q    Type
REMARK                         _______ _______ _______ _____ _____    ______ ____
ROOT
ATOM      1  C   UNL     1       3.924   5.012  18.754  0.00  0.00    +0.000 C 
ATOM      2  O   UNL     1       3.804   5.749  19.735  0.00  0.00    +0.000 OA
ATOM      3  N   UNL     1       4.983   5.182  17.873  0.00  0.00    +0.000 N 
ATOM      4  C   UNL     1       5.241   4.406  16.655  0.00  0.00    +0.000 C 
ATOM      5  C   UNL     1       6.729   4.092  16.483  0.00  0.00    +0.000 C 
ATOM      6  O   UNL     1       7.530   5.275  16.558  0.00  0.00    +0.000 OA
ATOM      7  C   UNL     1       7.379   5.906  17.841  0.00  0.00    +0.000 C 
ATOM      8  C   UNL     1       8.086   7.257  17.802  0.00  0.00    +0.000 C 
ATOM      9  C   UNL     1       7.042   8.256  17.286  0.00  0.00    +0.000 C 
ATOM     10  C   UNL     1       5.718   7.496  17.193  0.00  0.00    +0.000 C 
ATOM     11  C   UNL     1       5.917   6.288  18.114  0.00  0.00    +0.000 C 
ENDROOT
BRANCH   1  16
ATOM     12  C   UNL     1       1.106   2.260  21.973  0.00  0.00    +0.000 C 
ATOM     13  C   UNL     1       1.863   2.987  21.137  0.00  0.00    +0.000 C 
ATOM     14  C   UNL     1       3.264   2.589  20.753  0.00  0.00    +0.000 C 
ATOM     15  C   UNL     1       3.432   2.559  19.230  0.00  0.00    +0.000 C 
ATOM     16  C   UNL     1       2.940   3.849  18.529  0.00  0.00    +0.000 C 
ATOM     17  C   UNL     1       1.499   4.153  18.976  0.00  0.00    +0.000 C 
ATOM     18  C   UNL     1       1.363   4.249  20.494  0.00  0.00    +0.000 C 
ENDBRANCH   1  16
TORSDOF 1
ENDMDL
MODEL 6
REMARK VINA RESULT:      -6.7      1.631      2.328
REMARK  Name = 
REMARK  1 active torsions:
REMARK  status: ('A' for Active; 'I' for Inactive)
REMARK    1  A    between atoms: C_5  and  C_6
REMARK                            x       y       z     vdW  Elec       q    Type
REMARK                         _______ _______ _______ _____ _____    ______ ____
ROOT
ATOM      1  C   UNL     1       4.293   5.590  18.010  0.00  0.00    +0.000 C 
ATOM      2  O   UNL     1       3.457   6.380  17.565  0.00  0.00    +0.000 OA
ATOM      3  N   UNL     1       3.893   4.491  18.758  0.00  0.00    +0.000 N 
ATOM      4  C   UNL     1       4.768   3.487  19.373  0.00  0.00    +0.000 C 
ATOM      5  C   UNL     1       4.202   2.072  19.230  0.00  0.00    +0.000 C 
ATOM      6  O   UNL     1       2.856   1.992  19.706  0.00  0.00    +0.000 OA
ATOM      7  C   UNL     1       2.000   2.866  18.951  0.00  0.00    +0.000 C 
ATOM      8  C   UNL     1       0.630   2.897  19.620  0.00  0.00    +0.000 C 
ATOM      9  C   UNL     1       0.705   4.017  20.665  0.00  0.00    +0.000 C 
ATOM     10  C   UNL     1       2.053   4.711  20.467  0.00  0.00    +0.000 C 
ATOM     11  C   UNL     1       2.463   4.327  19.041  0.00  0.00    +0.000 C 
ENDROOT
BRANCH   1  16
ATOM     12  C   UNL     1       6.985   4.806  13.766  0.00  0.00    +0.000 C 
ATOM     13  C   UNL     1       6.263   4.998  14.880  0.00  0.00    +0.000 C 
ATOM     14  C   UNL     1       6.065   3.923  15.916  0.00  0.00    +0.000 C 
ATOM     15  C   UNL     1       6.447   4.425  17.314  0.00  0.00    +0.000 C 
ATOM     16  C   UNL     1       5.787   5.775  17.687  0.00  0.00    +0.000 C 
ATOM     17  C   UNL     1       6.066   6.802  16.575  0.00  0.00    +0.000 C 
ATOM     18  C   UNL     1       5.615   6.314  15.199  0.00  0.00    +0.000 C 
ENDBRANCH   1  16
TORSDOF 1
ENDMDL
MODEL 7
REMARK VINA RESULT:      -6.4      1.063      2.000
REMARK  Name = 
REMARK  1 active torsions:
REMARK  status: ('A' for Active; 'I' for Inactive)
REMARK    1  A    between atoms: C_5  and  C_6
REMARK                            x       y       z     vdW  Elec       q    Type
REMARK                         _______ _______ _______ _____ _____    ______ ____
ROOT
ATOM      1  C   UNL     1       4.247   4.402  17.434  0.00  0.00    +0.000 C 
ATOM      2  O   UNL     1       4.789   3.300  17.550  0.00  0.00    +0.000 OA
ATOM      3  N   UNL     1       3.236   4.782  18.305  0.00  0.00    +0.000 N 
ATOM      4  C   UNL     1       2.482   6.041  18.275  0.00  0.00    +0.000 C 
ATOM      5  C   UNL     1       2.250   6.601  19.680  0.00  0.00    +0.000 C 
ATOM      6  O   UNL     1       1.655   5.628  20.544  0.00  0.00    +0.000 OA
ATOM      7  C   UNL     1       2.515   4.485  20.684  0.00  0.00    +0.000 C 
ATOM      8  C   UNL     1       1.758   3.399  21.443  0.00  0.00    +0.000 C 
ATOM      9  C   UNL     1       1.008   2.594  20.374  0.00  0.00    +0.000 C 
ATOM     10  C   UNL     1       1.473   3.126  19.018  0.00  0.00    +0.000 C 
ATOM     11  C   UNL     1       2.802   3.823  19.328  0.00  0.00    +0.000 C 
ENDROOT
BRANCH   1  16
ATOM     12  C   UNL     1       7.991   7.845  17.419  0.00  0.00    +0.000 C 
ATOM     13  C   UNL     1       7.001   6.940  17.441  0.00  0.00    +0.000 C 
ATOM     14  C   UNL     1       5.605   7.273  17.897  0.00  0.00    +0.000 C 
ATOM     15  C   UNL     1       4.567   6.858  16.848  0.00  0.00    +0.000 C 
ATOM     16  C   UNL     1       4.728   5.398  16.362  0.00  0.00    +0.000 C 
ATOM     17  C   UNL     1       6.180   5.171  15.904  0.00  0.00    +0.000 C 
ATOM     18  C   UNL     1       7.199   5.522  16.987  0.00  0.00    +0.000 C 
ENDBRANCH   1  16
TORSDOF 1
ENDMDL
MODEL 8
REMARK VINA RESULT:      -6.4      1.868      5.969
REMARK  Name = 
REMARK  1 active torsions:
REMARK  status: ('A' for Active; 'I' for Inactive)
REMARK    1  A    between atoms: C_5  and  C_6
REMARK                            x       y       z     vdW  Elec       q    Type
REMARK                         _______ _______ _______ _____ _____    ______ ____
ROOT
ATOM      1  C   UNL     1       4.725   4.220  18.303  0.00  0.00    +0.000 C 
ATOM      2  O   UNL     1       4.706   4.589  19.479  0.00  0.00    +0.000 OA
ATOM      3  N   UNL     1       5.489   4.901  17.365  0.00  0.00    +0.000 N 
ATOM      4  C   UNL     1       5.589   4.600  15.933  0.00  0.00    +0.000 C 
ATOM      5  C   UNL     1       7.024   4.740  15.418  0.00  0.00    +0.000 C 
ATOM      6  O   UNL     1       7.580   6.016  15.750  0.00  0.00    +0.000 OA
ATOM      7  C   UNL     1       7.625   6.192  17.176  0.00  0.00    +0.000 C 
ATOM      8  C   UNL     1       8.033   7.631  17.473  0.00  0.00    +0.000 C 
ATOM      9  C   UNL     1       6.726   8.434  17.503  0.00  0.00    +0.000 C 
ATOM     10  C   UNL     1       5.587   7.421  17.385  0.00  0.00    +0.000 C 
ATOM     11  C   UNL     1       6.226   6.092  17.802  0.00  0.00    +0.000 C 
ENDROOT
BRANCH   1  16
ATOM     12  C   UNL     1       0.126   2.442  19.549  0.00  0.00    +0.000 C 
ATOM     13  C   UNL     1       1.340   2.918  19.237  0.00  0.00    +0.000 C 
ATOM     14  C   UNL     1       2.580   2.552  20.011  0.00  0.00    +0.000 C 
ATOM     15  C   UNL     1       3.680   2.032  19.078  0.00  0.00    +0.000 C 
ATOM     16  C   UNL     1       3.955   2.959  17.869  0.00  0.00    +0.000 C 
ATOM     17  C   UNL     1       2.630   3.254  17.142  0.00  0.00    +0.000 C 
ATOM     18  C   UNL     1       1.568   3.838  18.072  0.00  0.00    +0.000 C 
ENDBRANCH   1  16
TORSDOF 1
ENDMDL
MODEL 9
REMARK VINA RESULT:      -6.3      1.881      5.781
REMARK  Name = 
REMARK  1 active torsions:
REMARK  status: ('A' for Active; 'I' for Inactive)
REMARK    1  A    between atoms: C_5  and  C_6
REMARK                            x       y       z     vdW  Elec       q    Type
REMARK                         _______ _______ _______ _____ _____    ______ ____
ROOT
ATOM      1  C   UNL     1       3.396   3.875  18.049  0.00  0.00    +0.000 C 
ATOM      2  O   UNL     1       4.028   2.862  17.742  0.00  0.00    +0.000 OA
ATOM      3  N   UNL     1       4.006   5.121  18.015  0.00  0.00    +0.000 N 
ATOM      4  C   UNL     1       3.395   6.404  18.377  0.00  0.00    +0.000 C 
ATOM      5  C   UNL     1       3.799   7.522  17.413  0.00  0.00    +0.000 C 
ATOM      6  O   UNL     1       5.221   7.612  17.277  0.00  0.00    +0.000 OA
ATOM      7  C   UNL     1       5.755   6.387  16.748  0.00  0.00    +0.000 C 
ATOM      8  C   UNL     1       7.277   6.456  16.810  0.00  0.00    +0.000 C 
ATOM      9  C   UNL     1       7.660   5.923  18.196  0.00  0.00    +0.000 C 
ATOM     10  C   UNL     1       6.372   5.408  18.839  0.00  0.00    +0.000 C 
ATOM     11  C   UNL     1       5.426   5.189  17.653  0.00  0.00    +0.000 C 
ENDROOT
BRANCH   1  16
ATOM     12  C   UNL     1       1.005   2.328  22.264  0.00  0.00    +0.000 C 
ATOM     13  C   UNL     1       1.650   2.723  21.156  0.00  0.00    +0.000 C 
ATOM     14  C   UNL     1       1.991   1.779  20.033  0.00  0.00    +0.000 C 
ATOM     15  C   UNL     1       1.488   2.315  18.687  0.00  0.00    +0.000 C 
ATOM     16  C   UNL     1       1.902   3.780  18.412  0.00  0.00    +0.000 C 
ATOM     17  C   UNL     1       1.492   4.659  19.609  0.00  0.00    +0.000 C 
ATOM     18  C   UNL     1       2.061   4.150  20.932  0.00  0.00    +0.000 C 
ENDBRANCH   1  16
TORSDOF 1
ENDMDL
