MODEL 1
REMARK VINA RESULT:      -5.9      0.000      0.000
REMARK  Name = 
REMARK  5 active torsions:
REMARK  status: ('A' for Active; 'I' for Inactive)
REMARK    1  A    between atoms: N_1  and  C_2
REMARK    2  A    between atoms: C_2  and  C_3
REMARK    3  A    between atoms: C_3  and  C_4
REMARK    4  A    between atoms: C_7  and  C_8
REMARK    5  A    between atoms: C_8  and  C_9
REMARK                            x       y       z     vdW  Elec       q    Type
REMARK                         _______ _______ _______ _____ _____    ______ ____
ROOT
ATOM      1  C   UNL     1       6.256   4.740  17.505  0.00  0.00    +0.000 A 
ATOM      2  C   UNL     1       5.710   4.108  16.409  0.00  0.00    +0.000 A 
ATOM      3  N   UNL     1       4.364   4.331  16.497  0.00  0.00    +0.000 N 
ATOM      4  C   UNL     1       4.136   5.093  17.616  0.00  0.00    +0.000 A 
ATOM      5  N   UNL     1       5.268   5.342  18.246  0.00  0.00    +0.000 NA
ATOM      6  H   UNL     1       3.657   3.998  15.855  0.00  0.00    +0.000 HD
ENDROOT
BRANCH   1   7
ATOM      7  C   UNL     1       7.679   4.822  17.933  0.00  0.00    +0.000 C 
BRANCH   7   8
ATOM      8  C   UNL     1       7.899   5.943  18.956  0.00  0.00    +0.000 C 
BRANCH   8   9
ATOM      9  N   UNL     1       7.867   5.436  20.334  0.00  0.00    +0.000 NA
ATOM     10  H   UNL     1       8.321   4.523  20.356  0.00  0.00    +0.000 HD
ATOM     11  H   UNL     1       6.896   5.272  20.605  0.00  0.00    +0.000 HD
ENDBRANCH   8   9
ENDBRANCH   7   8
ENDBRANCH   1   7
BRANCH   4  12
ATOM     12  C   UNL     1       2.769   5.549  18.014  0.00  0.00    +0.000 C 
BRANCH  12  13
ATOM     13  C   UNL     1       2.085   4.550  18.903  0.00  0.00    +0.000 A 
ATOM     14  C   UNL     1       1.367   3.431  18.524  0.00  0.00    +0.000 A 
ATOM     15  C   UNL     1       0.798   2.748  19.636  0.00  0.00    +0.000 A 
ATOM     16  C   UNL     1       1.130   3.346  20.830  0.00  0.00    +0.000 A 
ATOM     17  S   UNL     1       2.130   4.716  20.607  0.00  0.00    +0.000 S 
ENDBRANCH  12  13
ENDBRANCH   4  12
TORSDOF 5
ENDMDL
MODEL 2
REMARK VINA RESULT:      -5.8      2.721      5.539
REMARK  Name = 
REMARK  5 active torsions:
REMARK  status: ('A' for Active; 'I' for Inactive)
REMARK    1  A    between atoms: N_1  and  C_2
REMARK    2  A    between atoms: C_2  and  C_3
REMARK    3  A    between atoms: C_3  and  C_4
REMARK    4  A    between atoms: C_7  and  C_8
REMARK    5  A    between atoms: C_8  and  C_9
REMARK                            x       y       z     vdW  Elec       q    Type
REMARK                         _______ _______ _______ _____ _____    ______ ____
ROOT
ATOM      1  C   UNL     1       3.131   2.959  20.106  0.00  0.00    +0.000 A 
ATOM      2  C   UNL     1       4.243   2.155  19.971  0.00  0.00    +0.000 A 
ATOM      3  N   UNL     1       5.224   2.977  19.490  0.00  0.00    +0.000 N 
ATOM      4  C   UNL     1       4.695   4.237  19.364  0.00  0.00    +0.000 A 
ATOM      5  N   UNL     1       3.426   4.244  19.722  0.00  0.00    +0.000 NA
ATOM      6  H   UNL     1       6.174   2.709  19.266  0.00  0.00    +0.000 HD
ENDROOT
BRANCH   1   7
ATOM      7  C   UNL     1       1.764   2.604  20.575  0.00  0.00    +0.000 C 
BRANCH   7   8
ATOM      8  C   UNL     1       0.688   3.063  19.583  0.00  0.00    +0.000 C 
BRANCH   8   9
ATOM      9  N   UNL     1       1.160   2.985  18.195  0.00  0.00    +0.000 NA
ATOM     10  H   UNL     1       1.041   2.028  17.864  0.00  0.00    +0.000 HD
ATOM     11  H   UNL     1       2.165   3.165  18.174  0.00  0.00    +0.000 HD
ENDBRANCH   8   9
ENDBRANCH   7   8
ENDBRANCH   1   7
BRANCH   4  12
ATOM     12  C   UNL     1       5.498   5.403  18.882  0.00  0.00    +0.000 C 
BRANCH  12  13
ATOM     13  C   UNL     1       5.823   5.290  17.420  0.00  0.00    +0.000 A 
ATOM     14  C   UNL     1       5.023   5.633  16.346  0.00  0.00    +0.000 A 
ATOM     15  C   UNL     1       5.630   5.325  15.096  0.00  0.00    +0.000 A 
ATOM     16  C   UNL     1       6.888   4.789  15.254  0.00  0.00    +0.000 A 
ATOM     17  S   UNL     1       7.334   4.671  16.902  0.00  0.00    +0.000 S 
ENDBRANCH  12  13
ENDBRANCH   4  12
TORSDOF 5
ENDMDL
MODEL 3
REMARK VINA RESULT:      -5.7      2.041      2.742
REMARK  Name = 
REMARK  5 active torsions:
REMARK  status: ('A' for Active; 'I' for Inactive)
REMARK    1  A    between atoms: N_1  and  C_2
REMARK    2  A    between atoms: C_2  and  C_3
REMARK    3  A    between atoms: C_3  and  C_4
REMARK    4  A    between atoms: C_7  and  C_8
REMARK    5  A    between atoms: C_8  and  C_9
REMARK                            x       y       z     vdW  Elec       q    Type
REMARK                         _______ _______ _______ _____ _____    ______ ____
ROOT
ATOM      1  C   UNL     1       5.555   4.875  16.699  0.00  0.00    +0.000 A 
ATOM      2  C   UNL     1       4.924   5.996  17.194  0.00  0.00    +0.000 A 
ATOM      3  N   UNL     1       3.671   5.578  17.546  0.00  0.00    +0.000 N 
ATOM      4  C   UNL     1       3.583   4.236  17.274  0.00  0.00    +0.000 A 
ATOM      5  N   UNL     1       4.710   3.794  16.751  0.00  0.00    +0.000 NA
ATOM      6  H   UNL     1       2.935   6.152  17.939  0.00  0.00    +0.000 HD
ENDROOT
BRANCH   1   7
ATOM      7  C   UNL     1       6.932   4.733  16.154  0.00  0.00    +0.000 C 
BRANCH   7   8
ATOM      8  C   UNL     1       6.937   4.739  14.620  0.00  0.00    +0.000 C 
BRANCH   8   9
ATOM      9  N   UNL     1       6.247   3.566  14.070  0.00  0.00    +0.000 NA
ATOM     10  H   UNL     1       6.936   2.962  13.623  0.00  0.00    +0.000 HD
ATOM     11  H   UNL     1       5.618   3.870  13.324  0.00  0.00    +0.000 HD
ENDBRANCH   8   9
ENDBRANCH   7   8
ENDBRANCH   1   7
BRANCH   4  12
ATOM     12  C   UNL     1       2.350   3.437  17.557  0.00  0.00    +0.000 C 
BRANCH  12  13
ATOM     13  C   UNL     1       2.178   3.179  19.027  0.00  0.00    +0.000 A 
ATOM     14  C   UNL     1       1.008   3.217  19.762  0.00  0.00    +0.000 A 
ATOM     15  C   UNL     1       1.230   2.988  21.149  0.00  0.00    +0.000 A 
ATOM     16  C   UNL     1       2.557   2.747  21.424  0.00  0.00    +0.000 A 
ATOM     17  S   UNL     1       3.523   2.788  20.012  0.00  0.00    +0.000 S 
ENDBRANCH  12  13
ENDBRANCH   4  12
TORSDOF 5
ENDMDL
MODEL 4
REMARK VINA RESULT:      -5.7      1.892      2.320
REMARK  Name = 
REMARK  5 active torsions:
REMARK  status: ('A' for Active; 'I' for Inactive)
REMARK    1  A    between atoms: N_1  and  C_2
REMARK    2  A    between atoms: C_2  and  C_3
REMARK    3  A    between atoms: C_3  and  C_4
REMARK    4  A    between atoms: C_7  and  C_8
REMARK    5  A    between atoms: C_8  and  C_9
REMARK                            x       y       z     vdW  Elec       q    Type
REMARK                         _______ _______ _______ _____ _____    ______ ____
ROOT
ATOM      1  C   UNL     1       4.880   5.525  16.713  0.00  0.00    +0.000 A 
ATOM      2  C   UNL     1       4.115   6.378  17.479  0.00  0.00    +0.000 A 
ATOM      3  N   UNL     1       3.065   5.623  17.921  0.00  0.00    +0.000 N 
ATOM      4  C   UNL     1       3.227   4.350  17.432  0.00  0.00    +0.000 A 
ATOM      5  N   UNL     1       4.314   4.273  16.690  0.00  0.00    +0.000 NA
ATOM      6  H   UNL     1       2.302   5.939  18.506  0.00  0.00    +0.000 HD
ENDROOT
BRANCH   1   7
ATOM      7  C   UNL     1       6.138   5.800  15.967  0.00  0.00    +0.000 C 
BRANCH   7   8
ATOM      8  C   UNL     1       7.073   4.585  15.968  0.00  0.00    +0.000 C 
BRANCH   8   9
ATOM      9  N   UNL     1       7.655   4.347  17.294  0.00  0.00    +0.000 NA
ATOM     10  H   UNL     1       7.933   5.243  17.694  0.00  0.00    +0.000 HD
ATOM     11  H   UNL     1       8.517   3.810  17.187  0.00  0.00    +0.000 HD
ENDBRANCH   8   9
ENDBRANCH   7   8
ENDBRANCH   1   7
BRANCH   4  12
ATOM     12  C   UNL     1       2.267   3.244  17.737  0.00  0.00    +0.000 C 
BRANCH  12  13
ATOM     13  C   UNL     1       2.127   3.019  19.215  0.00  0.00    +0.000 A 
ATOM     14  C   UNL     1       0.970   3.054  19.971  0.00  0.00    +0.000 A 
ATOM     15  C   UNL     1       1.222   2.863  21.359  0.00  0.00    +0.000 A 
ATOM     16  C   UNL     1       2.558   2.651  21.614  0.00  0.00    +0.000 A 
ATOM     17  S   UNL     1       3.497   2.675  20.184  0.00  0.00    +0.000 S 
ENDBRANCH  12  13
ENDBRANCH   4  12
TORSDOF 5
ENDMDL
MODEL 5
REMARK VINA RESULT:      -5.7      1.407      1.623
REMARK  Name = 
REMARK  5 active torsions:
REMARK  status: ('A' for Active; 'I' for Inactive)
REMARK    1  A    between atoms: N_1  and  C_2
REMARK    2  A    between atoms: C_2  and  C_3
REMARK    3  A    between atoms: C_3  and  C_4
REMARK    4  A    between atoms: C_7  and  C_8
REMARK    5  A    between atoms: C_8  and  C_9
REMARK                            x       y       z     vdW  Elec       q    Type
REMARK                         _______ _______ _______ _____ _____    ______ ____
ROOT
ATOM      1  C   UNL     1       5.857   5.738  17.972  0.00  0.00    +0.000 A 
ATOM      2  C   UNL     1       5.275   6.485  16.971  0.00  0.00    +0.000 A 
ATOM      3  N   UNL     1       3.993   6.711  17.388  0.00  0.00    +0.000 N 
ATOM      4  C   UNL     1       3.839   6.118  18.617  0.00  0.00    +0.000 A 
ATOM      5  N   UNL     1       4.953   5.514  18.982  0.00  0.00    +0.000 NA
ATOM      6  H   UNL     1       3.280   7.225  16.887  0.00  0.00    +0.000 HD
ENDROOT
BRANCH   1   7
ATOM      7  C   UNL     1       7.237   5.189  18.056  0.00  0.00    +0.000 C 
BRANCH   7   8
ATOM      8  C   UNL     1       8.088   5.953  19.078  0.00  0.00    +0.000 C 
BRANCH   8   9
ATOM      9  N   UNL     1       7.940   5.401  20.430  0.00  0.00    +0.000 NA
ATOM     10  H   UNL     1       7.410   4.531  20.371  0.00  0.00    +0.000 HD
ATOM     11  H   UNL     1       7.368   6.038  20.988  0.00  0.00    +0.000 HD
ENDBRANCH   8   9
ENDBRANCH   7   8
ENDBRANCH   1   7
BRANCH   4  12
ATOM     12  C   UNL     1       2.559   6.183  19.388  0.00  0.00    +0.000 C 
BRANCH  12  13
ATOM     13  C   UNL     1       1.912   4.833  19.509  0.00  0.00    +0.000 A 
ATOM     14  C   UNL     1       1.502   4.190  20.661  0.00  0.00    +0.000 A 
ATOM     15  C   UNL     1       0.991   2.887  20.405  0.00  0.00    +0.000 A 
ATOM     16  C   UNL     1       0.994   2.590  19.061  0.00  0.00    +0.000 A 
ATOM     17  S   UNL     1       1.600   3.882  18.118  0.00  0.00    +0.000 S 
ENDBRANCH  12  13
ENDBRANCH   4  12
TORSDOF 5
ENDMDL
MODEL 6
REMARK VINA RESULT:      -5.7      1.329      1.462
REMARK  Name = 
REMARK  5 active torsions:
REMARK  status: ('A' for Active; 'I' for Inactive)
REMARK    1  A    between atoms: N_1  and  C_2
REMARK    2  A    between atoms: C_2  and  C_3
REMARK    3  A    between atoms: C_3  and  C_4
REMARK    4  A    between atoms: C_7  and  C_8
REMARK    5  A    between atoms: C_8  and  C_9
REMARK                            x       y       z     vdW  Elec       q    Type
REMARK                         _______ _______ _______ _____ _____    ______ ____
ROOT
ATOM      1  C   UNL     1       6.266   5.358  17.297  0.00  0.00    +0.000 A 
ATOM      2  C   UNL     1       6.667   4.395  16.395  0.00  0.00    +0.000 A 
ATOM      3  N   UNL     1       5.645   3.488  16.358  0.00  0.00    +0.000 N 
ATOM      4  C   UNL     1       4.662   3.925  17.211  0.00  0.00    +0.000 A 
ATOM      5  N   UNL     1       5.024   5.050  17.797  0.00  0.00    +0.000 NA
ATOM      6  H   UNL     1       5.611   2.644  15.801  0.00  0.00    +0.000 HD
ENDROOT
BRANCH   1   7
ATOM      7  C   UNL     1       6.982   6.581  17.749  0.00  0.00    +0.000 C 
BRANCH   7   8
ATOM      8  C   UNL     1       7.947   6.278  18.902  0.00  0.00    +0.000 C 
BRANCH   8   9
ATOM      9  N   UNL     1       7.331   5.409  19.913  0.00  0.00    +0.000 NA
ATOM     10  H   UNL     1       6.319   5.524  19.868  0.00  0.00    +0.000 HD
ATOM     11  H   UNL     1       7.608   5.731  20.842  0.00  0.00    +0.000 HD
ENDBRANCH   8   9
ENDBRANCH   7   8
ENDBRANCH   1   7
BRANCH   4  12
ATOM     12  C   UNL     1       3.378   3.184  17.406  0.00  0.00    +0.000 C 
BRANCH  12  13
ATOM     13  C   UNL     1       2.749   3.500  18.733  0.00  0.00    +0.000 A 
ATOM     14  C   UNL     1       1.698   4.360  18.990  0.00  0.00    +0.000 A 
ATOM     15  C   UNL     1       1.409   4.466  20.379  0.00  0.00    +0.000 A 
ATOM     16  C   UNL     1       2.224   3.655  21.137  0.00  0.00    +0.000 A 
ATOM     17  S   UNL     1       3.322   2.767  20.172  0.00  0.00    +0.000 S 
ENDBRANCH  12  13
ENDBRANCH   4  12
TORSDOF 5
ENDMDL
MODEL 7
REMARK VINA RESULT:      -5.6      2.364      5.459
REMARK  Name = 
REMARK  5 active torsions:
REMARK  status: ('A' for Active; 'I' for Inactive)
REMARK    1  A    between atoms: N_1  and  C_2
REMARK    2  A    between atoms: C_2  and  C_3
REMARK    3  A    between atoms: C_3  and  C_4
REMARK    4  A    between atoms: C_7  and  C_8
REMARK    5  A    between atoms: C_8  and  C_9
REMARK                            x       y       z     vdW  Elec       q    Type
REMARK                         _______ _______ _______ _____ _____    ______ ____
ROOT
ATOM      1  C   UNL     1       1.780   4.373  19.704  0.00  0.00    +0.000 A 
ATOM      2  C   UNL     1       2.346   5.155  20.688  0.00  0.00    +0.000 A 
ATOM      3  N   UNL     1       3.185   6.011  20.031  0.00  0.00    +0.000 N 
ATOM      4  C   UNL     1       3.096   5.740  18.688  0.00  0.00    +0.000 A 
ATOM      5  N   UNL     1       2.259   4.744  18.470  0.00  0.00    +0.000 NA
ATOM      6  H   UNL     1       3.770   6.721  20.453  0.00  0.00    +0.000 HD
ENDROOT
BRANCH   1   7
ATOM      7  C   UNL     1       0.800   3.261  19.831  0.00  0.00    +0.000 C 
BRANCH   7   8
ATOM      8  C   UNL     1       0.907   2.275  18.662  0.00  0.00    +0.000 C 
BRANCH   8   9
ATOM      9  N   UNL     1       2.253   1.695  18.562  0.00  0.00    +0.000 NA
ATOM     10  H   UNL     1       2.200   0.845  18.001  0.00  0.00    +0.000 HD
ATOM     11  H   UNL     1       2.556   1.397  19.491  0.00  0.00    +0.000 HD
ENDBRANCH   8   9
ENDBRANCH   7   8
ENDBRANCH   1   7
BRANCH   4  12
ATOM     12  C   UNL     1       3.867   6.505  17.660  0.00  0.00    +0.000 C 
BRANCH  12  13
ATOM     13  C   UNL     1       5.084   5.752  17.201  0.00  0.00    +0.000 A 
ATOM     14  C   UNL     1       5.305   5.170  15.968  0.00  0.00    +0.000 A 
ATOM     15  C   UNL     1       6.546   4.477  15.908  0.00  0.00    +0.000 A 
ATOM     16  C   UNL     1       7.250   4.582  17.087  0.00  0.00    +0.000 A 
ATOM     17  S   UNL     1       6.419   5.521  18.250  0.00  0.00    +0.000 S 
ENDBRANCH  12  13
ENDBRANCH   4  12
TORSDOF 5
ENDMDL
MODEL 8
REMARK VINA RESULT:      -5.6      1.822      3.025
REMARK  Name = 
REMARK  5 active torsions:
REMARK  status: ('A' for Active; 'I' for Inactive)
REMARK    1  A    between atoms: N_1  and  C_2
REMARK    2  A    between atoms: C_2  and  C_3
REMARK    3  A    between atoms: C_3  and  C_4
REMARK    4  A    between atoms: C_7  and  C_8
REMARK    5  A    between atoms: C_8  and  C_9
REMARK                            x       y       z     vdW  Elec       q    Type
REMARK                         _______ _______ _______ _____ _____    ______ ____
ROOT
ATOM      1  C   UNL     1       5.573   4.694  16.547  0.00  0.00    +0.000 A 
ATOM      2  C   UNL     1       6.270   4.636  17.734  0.00  0.00    +0.000 A 
ATOM      3  N   UNL     1       5.585   3.745  18.512  0.00  0.00    +0.000 N 
ATOM      4  C   UNL     1       4.518   3.283  17.782  0.00  0.00    +0.000 A 
ATOM      5  N   UNL     1       4.487   3.854  16.594  0.00  0.00    +0.000 NA
ATOM      6  H   UNL     1       5.818   3.470  19.457  0.00  0.00    +0.000 HD
ENDROOT
BRANCH   1   7
ATOM      7  C   UNL     1       5.847   5.509  15.332  0.00  0.00    +0.000 C 
BRANCH   7   8
ATOM      8  C   UNL     1       6.817   4.798  14.381  0.00  0.00    +0.000 C 
BRANCH   8   9
ATOM      9  N   UNL     1       6.290   3.503  13.934  0.00  0.00    +0.000 NA
ATOM     10  H   UNL     1       6.635   3.317  12.993  0.00  0.00    +0.000 HD
ATOM     11  H   UNL     1       5.274   3.568  13.851  0.00  0.00    +0.000 HD
ENDBRANCH   8   9
ENDBRANCH   7   8
ENDBRANCH   1   7
BRANCH   4  12
ATOM     12  C   UNL     1       3.556   2.269  18.316  0.00  0.00    +0.000 C 
BRANCH  12  13
ATOM     13  C   UNL     1       2.634   2.862  19.343  0.00  0.00    +0.000 A 
ATOM     14  C   UNL     1       2.367   2.391  20.614  0.00  0.00    +0.000 A 
ATOM     15  C   UNL     1       1.385   3.171  21.288  0.00  0.00    +0.000 A 
ATOM     16  C   UNL     1       0.961   4.234  20.523  0.00  0.00    +0.000 A 
ATOM     17  S   UNL     1       1.752   4.292  19.008  0.00  0.00    +0.000 S 
ENDBRANCH  12  13
ENDBRANCH   4  12
TORSDOF 5
ENDMDL
MODEL 9
REMARK VINA RESULT:      -5.5      2.591      5.208
REMARK  Name = 
REMARK  5 active torsions:
REMARK  status: ('A' for Active; 'I' for Inactive)
REMARK    1  A    between atoms: N_1  and  C_2
REMARK    2  A    between atoms: C_2  and  C_3
REMARK    3  A    between atoms: C_3  and  C_4
REMARK    4  A    between atoms: C_7  and  C_8
REMARK    5  A    between atoms: C_8  and  C_9
REMARK                            x       y       z     vdW  Elec       q    Type
REMARK                         _______ _______ _______ _____ _____    ______ ____
ROOT
ATOM      1  C   UNL     1       2.499   3.085  18.891  0.00  0.00    +0.000 A 
ATOM      2  C   UNL     1       3.232   1.922  18.793  0.00  0.00    +0.000 A 
ATOM      3  N   UNL     1       4.161   2.163  17.820  0.00  0.00    +0.000 N 
ATOM      4  C   UNL     1       3.980   3.448  17.373  0.00  0.00    +0.000 A 
ATOM      5  N   UNL     1       2.972   4.020  18.002  0.00  0.00    +0.000 NA
ATOM      6  H   UNL     1       4.862   1.514  17.485  0.00  0.00    +0.000 HD
ENDROOT
BRANCH   1   7
ATOM      7  C   UNL     1       1.345   3.400  19.777  0.00  0.00    +0.000 C 
BRANCH   7   8
ATOM      8  C   UNL     1       1.798   4.071  21.079  0.00  0.00    +0.000 C 
BRANCH   8   9
ATOM      9  N   UNL     1       2.503   5.333  20.824  0.00  0.00    +0.000 NA
ATOM     10  H   UNL     1       3.232   5.447  21.528  0.00  0.00    +0.000 HD
ATOM     11  H   UNL     1       1.855   6.110  20.966  0.00  0.00    +0.000 HD
ENDBRANCH   8   9
ENDBRANCH   7   8
ENDBRANCH   1   7
BRANCH   4  12
ATOM     12  C   UNL     1       4.842   4.061  16.316  0.00  0.00    +0.000 C 
BRANCH  12  13
ATOM     13  C   UNL     1       5.708   5.157  16.869  0.00  0.00    +0.000 A 
ATOM     14  C   UNL     1       5.521   6.522  16.759  0.00  0.00    +0.000 A 
ATOM     15  C   UNL     1       6.581   7.265  17.349  0.00  0.00    +0.000 A 
ATOM     16  C   UNL     1       7.527   6.445  17.922  0.00  0.00    +0.000 A 
ATOM     17  S   UNL     1       7.127   4.790  17.755  0.00  0.00    +0.000 S 
ENDBRANCH  12  13
ENDBRANCH   4  12
TORSDOF 5
ENDMDL
