MODEL 1
REMARK VINA RESULT:      -8.7      0.000      0.000
REMARK  Name = 
REMARK  9 active torsions:
REMARK  status: ('A' for Active; 'I' for Inactive)
REMARK    1  A    between atoms: C_1  and  C_2
REMARK    2  A    between atoms: C_8  and  C_9
REMARK    3  A    between atoms: C_9  and  O_10
REMARK    4  A    between atoms: O_10  and  C_11
REMARK    5  A    between atoms: C_11  and  C_13
REMARK    6  A    between atoms: C_17  and  N_18
REMARK    7  A    between atoms: C_19  and  C_21
REMARK    8  A    between atoms: C_21  and  O_22
REMARK    9  A    between atoms: O_22  and  C_23
REMARK                            x       y       z     vdW  Elec       q    Type
REMARK                         _______ _______ _______ _____ _____    ______ ____
ROOT
ATOM      1  C   UNL     1       2.182   5.602  19.583  0.00  0.00    +0.000 A 
ATOM      2  C   UNL     1       2.411   6.160  18.315  0.00  0.00    +0.000 A 
ATOM      3  C   UNL     1       2.273   7.538  18.117  0.00  0.00    +0.000 A 
ATOM      4  C   UNL     1       1.922   8.367  19.183  0.00  0.00    +0.000 A 
ATOM      5  C   UNL     1       1.742   7.818  20.452  0.00  0.00    +0.000 A 
ATOM      6  C   UNL     1       1.851   6.441  20.653  0.00  0.00    +0.000 A 
ENDROOT
BRANCH   5   7
ATOM      7  N   UNL     1       1.454   8.642  21.557  0.00  0.00    +0.000 N 
ATOM      8  C   UNL     1       0.120   8.792  21.931  0.00  0.00    +0.000 C 
ATOM      9  O   UNL     1      -0.845   8.383  21.287  0.00  0.00    +0.000 OA
ATOM     10  H   UNL     1       2.073   8.541  22.354  0.00  0.00    +0.000 HD
BRANCH   8  11
ATOM     11  C   UNL     1      -0.062   9.565  23.233  0.00  0.00    +0.000 C 
BRANCH  11  12
ATOM     12  O   UNL     1       0.087  10.965  23.026  0.00  0.00    +0.000 OA
BRANCH  12  13
ATOM     13  C   UNL     1      -1.014  11.585  22.481  0.00  0.00    +0.000 A 
ATOM     14  C   UNL     1      -2.197  11.808  23.197  0.00  0.00    +0.000 A 
ATOM     15  C   UNL     1      -3.300  12.409  22.588  0.00  0.00    +0.000 A 
ATOM     16  C   UNL     1      -3.226  12.821  21.261  0.00  0.00    +0.000 A 
ATOM     17  C   UNL     1      -2.041  12.647  20.547  0.00  0.00    +0.000 A 
ATOM     18  C   UNL     1      -0.936  12.040  21.156  0.00  0.00    +0.000 A 
ATOM     19 CL   UNL     1       0.500  11.837  20.216  0.00  0.00    +0.000 Cl
ENDBRANCH  12  13
ENDBRANCH  11  12
ENDBRANCH   8  11
ENDBRANCH   5   7
BRANCH   1  20
ATOM     20  C   UNL     1       2.286   4.146  19.843  0.00  0.00    +0.000 C 
ATOM     21  O   UNL     1       1.330   3.433  20.129  0.00  0.00    +0.000 OA
BRANCH  20  22
ATOM     22  O   UNL     1       3.572   3.742  19.730  0.00  0.00    +0.000 OA
BRANCH  22  23
ATOM     23  C   UNL     1       3.902   2.939  18.588  0.00  0.00    +0.000 C 
BRANCH  23  31
ATOM     24  C   UNL     1       7.968   5.451  12.832  0.00  0.00    +0.000 C 
ATOM     25  C   UNL     1       7.273   5.048  14.087  0.00  0.00    +0.000 A 
ATOM     26  N   UNL     1       7.607   5.474  15.263  0.00  0.00    +0.000 NA
ATOM     27  N   UNL     1       6.759   4.905  16.190  0.00  0.00    +0.000 N 
ATOM     28  C   UNL     1       6.861   5.175  17.536  0.00  0.00    +0.000 A 
ATOM     29  O   UNL     1       7.660   5.914  18.104  0.00  0.00    +0.000 OA
ATOM     30  C   UNL     1       5.850   4.462  18.353  0.00  0.00    +0.000 A 
ATOM     31  C   UNL     1       4.953   3.654  17.762  0.00  0.00    +0.000 A 
ATOM     32  N   UNL     1       4.907   3.439  16.399  0.00  0.00    +0.000 NA
ATOM     33  C   UNL     1       5.795   4.060  15.700  0.00  0.00    +0.000 A 
ATOM     34  S   UNL     1       5.931   3.939  13.980  0.00  0.00    +0.000 S 
ENDBRANCH  23  31
ENDBRANCH  22  23
ENDBRANCH  20  22
ENDBRANCH   1  20
TORSDOF 8
ENDMDL
MODEL 2
REMARK VINA RESULT:      -8.4      4.533      8.521
REMARK  Name = 
REMARK  9 active torsions:
REMARK  status: ('A' for Active; 'I' for Inactive)
REMARK    1  A    between atoms: C_1  and  C_2
REMARK    2  A    between atoms: C_8  and  C_9
REMARK    3  A    between atoms: C_9  and  O_10
REMARK    4  A    between atoms: O_10  and  C_11
REMARK    5  A    between atoms: C_11  and  C_13
REMARK    6  A    between atoms: C_17  and  N_18
REMARK    7  A    between atoms: C_19  and  C_21
REMARK    8  A    between atoms: C_21  and  O_22
REMARK    9  A    between atoms: O_22  and  C_23
REMARK                            x       y       z     vdW  Elec       q    Type
REMARK                         _______ _______ _______ _____ _____    ______ ____
ROOT
ATOM      1  C   UNL     1       4.773   4.231  18.301  0.00  0.00    +0.000 A 
ATOM      2  C   UNL     1       4.946   3.633  17.043  0.00  0.00    +0.000 A 
ATOM      3  C   UNL     1       6.012   4.016  16.221  0.00  0.00    +0.000 A 
ATOM      4  C   UNL     1       6.919   4.984  16.656  0.00  0.00    +0.000 A 
ATOM      5  C   UNL     1       6.773   5.543  17.926  0.00  0.00    +0.000 A 
ATOM      6  C   UNL     1       5.697   5.186  18.740  0.00  0.00    +0.000 A 
ENDROOT
BRANCH   5   7
ATOM      7  N   UNL     1       7.712   6.471  18.413  0.00  0.00    +0.000 N 
ATOM      8  C   UNL     1       7.748   7.735  17.828  0.00  0.00    +0.000 C 
ATOM      9  O   UNL     1       7.127   8.063  16.818  0.00  0.00    +0.000 OA
ATOM     10  H   UNL     1       7.813   6.505  19.422  0.00  0.00    +0.000 HD
BRANCH   8  11
ATOM     11  C   UNL     1       8.681   8.708  18.541  0.00  0.00    +0.000 C 
BRANCH  11  12
ATOM     12  O   UNL     1       8.518  10.033  18.049  0.00  0.00    +0.000 OA
BRANCH  12  13
ATOM     13  C   UNL     1       9.148  11.003  18.795  0.00  0.00    +0.000 A 
ATOM     14  C   UNL     1      10.025  10.708  19.847  0.00  0.00    +0.000 A 
ATOM     15  C   UNL     1      10.612  11.729  20.597  0.00  0.00    +0.000 A 
ATOM     16  C   UNL     1      10.351  13.060  20.289  0.00  0.00    +0.000 A 
ATOM     17  C   UNL     1       9.515  13.372  19.217  0.00  0.00    +0.000 A 
ATOM     18  C   UNL     1       8.922  12.349  18.467  0.00  0.00    +0.000 A 
ATOM     19 CL   UNL     1       7.884  12.796  17.160  0.00  0.00    +0.000 Cl
ENDBRANCH  12  13
ENDBRANCH  11  12
ENDBRANCH   8  11
ENDBRANCH   5   7
BRANCH   1  20
ATOM     20  C   UNL     1       3.646   3.886  19.199  0.00  0.00    +0.000 C 
ATOM     21  O   UNL     1       3.602   2.868  19.882  0.00  0.00    +0.000 OA
BRANCH  20  22
ATOM     22  O   UNL     1       2.691   4.842  19.138  0.00  0.00    +0.000 OA
BRANCH  22  23
ATOM     23  C   UNL     1       2.450   5.596  20.335  0.00  0.00    +0.000 C 
BRANCH  23  31
ATOM     24  C   UNL     1      -0.394  12.509  20.651  0.00  0.00    +0.000 C 
ATOM     25  C   UNL     1       0.215  11.169  20.411  0.00  0.00    +0.000 A 
ATOM     26  N   UNL     1       0.767  10.819  19.294  0.00  0.00    +0.000 NA
ATOM     27  N   UNL     1       1.223   9.524  19.419  0.00  0.00    +0.000 N 
ATOM     28  C   UNL     1       1.867   8.873  18.391  0.00  0.00    +0.000 A 
ATOM     29  O   UNL     1       2.131   9.299  17.270  0.00  0.00    +0.000 OA
ATOM     30  C   UNL     1       2.276   7.492  18.740  0.00  0.00    +0.000 A 
ATOM     31  C   UNL     1       2.013   6.998  19.962  0.00  0.00    +0.000 A 
ATOM     32  N   UNL     1       1.369   7.718  20.949  0.00  0.00    +0.000 NA
ATOM     33  C   UNL     1       1.012   8.916  20.632  0.00  0.00    +0.000 A 
ATOM     34  S   UNL     1       0.189   9.997  21.702  0.00  0.00    +0.000 S 
ENDBRANCH  23  31
ENDBRANCH  22  23
ENDBRANCH  20  22
ENDBRANCH   1  20
TORSDOF 8
ENDMDL
MODEL 3
REMARK VINA RESULT:      -8.3      1.277      1.543
REMARK  Name = 
REMARK  9 active torsions:
REMARK  status: ('A' for Active; 'I' for Inactive)
REMARK    1  A    between atoms: C_1  and  C_2
REMARK    2  A    between atoms: C_8  and  C_9
REMARK    3  A    between atoms: C_9  and  O_10
REMARK    4  A    between atoms: O_10  and  C_11
REMARK    5  A    between atoms: C_11  and  C_13
REMARK    6  A    between atoms: C_17  and  N_18
REMARK    7  A    between atoms: C_19  and  C_21
REMARK    8  A    between atoms: C_21  and  O_22
REMARK    9  A    between atoms: O_22  and  C_23
REMARK                            x       y       z     vdW  Elec       q    Type
REMARK                         _______ _______ _______ _____ _____    ______ ____
ROOT
ATOM      1  C   UNL     1       2.066   5.529  19.543  0.00  0.00    +0.000 A 
ATOM      2  C   UNL     1       2.336   6.081  18.282  0.00  0.00    +0.000 A 
ATOM      3  C   UNL     1       2.279   7.466  18.092  0.00  0.00    +0.000 A 
ATOM      4  C   UNL     1       1.968   8.308  19.162  0.00  0.00    +0.000 A 
ATOM      5  C   UNL     1       1.746   7.761  20.426  0.00  0.00    +0.000 A 
ATOM      6  C   UNL     1       1.775   6.378  20.617  0.00  0.00    +0.000 A 
ENDROOT
BRANCH   5   7
ATOM      7  N   UNL     1       1.497   8.592  21.533  0.00  0.00    +0.000 N 
ATOM      8  C   UNL     1       0.173   8.794  21.916  0.00  0.00    +0.000 C 
ATOM      9  O   UNL     1      -0.811   8.426  21.276  0.00  0.00    +0.000 OA
ATOM     10  H   UNL     1       2.117   8.465  22.327  0.00  0.00    +0.000 HD
BRANCH   8  11
ATOM     11  C   UNL     1       0.029   9.571  23.221  0.00  0.00    +0.000 C 
BRANCH  11  12
ATOM     12  O   UNL     1      -1.186  10.311  23.250  0.00  0.00    +0.000 OA
BRANCH  12  13
ATOM     13  C   UNL     1      -1.090  11.590  22.750  0.00  0.00    +0.000 A 
ATOM     14  C   UNL     1      -0.026  12.018  21.945  0.00  0.00    +0.000 A 
ATOM     15  C   UNL     1       0.043  13.336  21.492  0.00  0.00    +0.000 A 
ATOM     16  C   UNL     1      -0.965  14.240  21.815  0.00  0.00    +0.000 A 
ATOM     17  C   UNL     1      -2.053  13.819  22.579  0.00  0.00    +0.000 A 
ATOM     18  C   UNL     1      -2.121  12.497  23.037  0.00  0.00    +0.000 A 
ATOM     19 CL   UNL     1      -3.487  12.038  23.992  0.00  0.00    +0.000 Cl
ENDBRANCH  12  13
ENDBRANCH  11  12
ENDBRANCH   8  11
ENDBRANCH   5   7
BRANCH   1  20
ATOM     20  C   UNL     1       2.084   4.068  19.794  0.00  0.00    +0.000 C 
ATOM     21  O   UNL     1       1.318   3.496  20.562  0.00  0.00    +0.000 OA
BRANCH  20  22
ATOM     22  O   UNL     1       3.063   3.482  19.068  0.00  0.00    +0.000 OA
BRANCH  22  23
ATOM     23  C   UNL     1       4.395   3.557  19.595  0.00  0.00    +0.000 C 
BRANCH  23  31
ATOM     24  C   UNL     1       7.725   5.275  13.119  0.00  0.00    +0.000 C 
ATOM     25  C   UNL     1       7.176   5.056  14.488  0.00  0.00    +0.000 A 
ATOM     26  N   UNL     1       7.572   5.707  15.535  0.00  0.00    +0.000 NA
ATOM     27  N   UNL     1       6.859   5.255  16.625  0.00  0.00    +0.000 N 
ATOM     28  C   UNL     1       7.053   5.767  17.888  0.00  0.00    +0.000 A 
ATOM     29  O   UNL     1       7.832   6.649  18.239  0.00  0.00    +0.000 OA
ATOM     30  C   UNL     1       6.180   5.143  18.911  0.00  0.00    +0.000 A 
ATOM     31  C   UNL     1       5.308   4.183  18.560  0.00  0.00    +0.000 A 
ATOM     32  N   UNL     1       5.162   3.726  17.265  0.00  0.00    +0.000 NA
ATOM     33  C   UNL     1       5.931   4.272  16.385  0.00  0.00    +0.000 A 
ATOM     34  S   UNL     1       5.929   3.856  14.706  0.00  0.00    +0.000 S 
ENDBRANCH  23  31
ENDBRANCH  22  23
ENDBRANCH  20  22
ENDBRANCH   1  20
TORSDOF 8
ENDMDL
MODEL 4
REMARK VINA RESULT:      -8.0      4.591      9.313
REMARK  Name = 
REMARK  9 active torsions:
REMARK  status: ('A' for Active; 'I' for Inactive)
REMARK    1  A    between atoms: C_1  and  C_2
REMARK    2  A    between atoms: C_8  and  C_9
REMARK    3  A    between atoms: C_9  and  O_10
REMARK    4  A    between atoms: O_10  and  C_11
REMARK    5  A    between atoms: C_11  and  C_13
REMARK    6  A    between atoms: C_17  and  N_18
REMARK    7  A    between atoms: C_19  and  C_21
REMARK    8  A    between atoms: C_21  and  O_22
REMARK    9  A    between atoms: O_22  and  C_23
REMARK                            x       y       z     vdW  Elec       q    Type
REMARK                         _______ _______ _______ _____ _____    ______ ____
ROOT
ATOM      1  C   UNL     1       4.211   5.187  17.651  0.00  0.00    +0.000 A 
ATOM      2  C   UNL     1       4.530   4.207  16.698  0.00  0.00    +0.000 A 
ATOM      3  C   UNL     1       5.854   4.037  16.278  0.00  0.00    +0.000 A 
ATOM      4  C   UNL     1       6.868   4.831  16.817  0.00  0.00    +0.000 A 
ATOM      5  C   UNL     1       6.556   5.773  17.798  0.00  0.00    +0.000 A 
ATOM      6  C   UNL     1       5.235   5.968  18.202  0.00  0.00    +0.000 A 
ENDROOT
BRANCH   5   7
ATOM      7  N   UNL     1       7.569   6.539  18.404  0.00  0.00    +0.000 N 
ATOM      8  C   UNL     1       7.809   7.819  17.906  0.00  0.00    +0.000 C 
ATOM      9  O   UNL     1       7.309   8.283  16.883  0.00  0.00    +0.000 OA
ATOM     10  H   UNL     1       7.602   6.502  19.417  0.00  0.00    +0.000 HD
BRANCH   8  11
ATOM     11  C   UNL     1       8.806   8.617  18.740  0.00  0.00    +0.000 C 
BRANCH  11  12
ATOM     12  O   UNL     1       8.545  10.013  18.658  0.00  0.00    +0.000 OA
BRANCH  12  13
ATOM     13  C   UNL     1       9.650  10.815  18.837  0.00  0.00    +0.000 A 
ATOM     14  C   UNL     1      10.510  11.175  17.791  0.00  0.00    +0.000 A 
ATOM     15  C   UNL     1      11.637  11.961  18.032  0.00  0.00    +0.000 A 
ATOM     16  C   UNL     1      11.907  12.422  19.316  0.00  0.00    +0.000 A 
ATOM     17  C   UNL     1      11.037  12.110  20.361  0.00  0.00    +0.000 A 
ATOM     18  C   UNL     1       9.908  11.317  20.122  0.00  0.00    +0.000 A 
ATOM     19 CL   UNL     1       8.874  10.951  21.458  0.00  0.00    +0.000 Cl
ENDBRANCH  12  13
ENDBRANCH  11  12
ENDBRANCH   8  11
ENDBRANCH   5   7
BRANCH   1  20
ATOM     20  C   UNL     1       2.823   5.431  18.110  0.00  0.00    +0.000 C 
ATOM     21  O   UNL     1       1.875   4.704  17.837  0.00  0.00    +0.000 OA
BRANCH  20  22
ATOM     22  O   UNL     1       2.768   6.563  18.848  0.00  0.00    +0.000 OA
BRANCH  22  23
ATOM     23  C   UNL     1       2.433   7.774  18.156  0.00  0.00    +0.000 C 
BRANCH  23  31
ATOM     24  C   UNL     1      -2.345  12.980  20.616  0.00  0.00    +0.000 C 
ATOM     25  C   UNL     1      -1.370  11.896  20.304  0.00  0.00    +0.000 A 
ATOM     26  N   UNL     1      -0.848  11.119  21.198  0.00  0.00    +0.000 NA
ATOM     27  N   UNL     1       0.003  10.237  20.566  0.00  0.00    +0.000 N 
ATOM     28  C   UNL     1       0.704   9.276  21.258  0.00  0.00    +0.000 A 
ATOM     29  O   UNL     1       0.694   9.049  22.465  0.00  0.00    +0.000 OA
ATOM     30  C   UNL     1       1.556   8.433  20.385  0.00  0.00    +0.000 A 
ATOM     31  C   UNL     1       1.583   8.646  19.059  0.00  0.00    +0.000 A 
ATOM     32  N   UNL     1       0.841   9.628  18.433  0.00  0.00    +0.000 NA
ATOM     33  C   UNL     1       0.108  10.359  19.203  0.00  0.00    +0.000 A 
ATOM     34  S   UNL     1      -0.898  11.649  18.643  0.00  0.00    +0.000 S 
ENDBRANCH  23  31
ENDBRANCH  22  23
ENDBRANCH  20  22
ENDBRANCH   1  20
TORSDOF 8
ENDMDL
MODEL 5
REMARK VINA RESULT:      -7.9      5.593      8.816
REMARK  Name = 
REMARK  9 active torsions:
REMARK  status: ('A' for Active; 'I' for Inactive)
REMARK    1  A    between atoms: C_1  and  C_2
REMARK    2  A    between atoms: C_8  and  C_9
REMARK    3  A    between atoms: C_9  and  O_10
REMARK    4  A    between atoms: O_10  and  C_11
REMARK    5  A    between atoms: C_11  and  C_13
REMARK    6  A    between atoms: C_17  and  N_18
REMARK    7  A    between atoms: C_19  and  C_21
REMARK    8  A    between atoms: C_21  and  O_22
REMARK    9  A    between atoms: O_22  and  C_23
REMARK                            x       y       z     vdW  Elec       q    Type
REMARK                         _______ _______ _______ _____ _____    ______ ____
ROOT
ATOM      1  C   UNL     1       6.995   5.608  16.880  0.00  0.00    +0.000 A 
ATOM      2  C   UNL     1       7.410   5.037  18.092  0.00  0.00    +0.000 A 
ATOM      3  C   UNL     1       8.005   5.830  19.079  0.00  0.00    +0.000 A 
ATOM      4  C   UNL     1       8.174   7.200  18.868  0.00  0.00    +0.000 A 
ATOM      5  C   UNL     1       7.718   7.775  17.681  0.00  0.00    +0.000 A 
ATOM      6  C   UNL     1       7.148   6.985  16.681  0.00  0.00    +0.000 A 
ENDROOT
BRANCH   5   7
ATOM      7  N   UNL     1       7.816   9.164  17.473  0.00  0.00    +0.000 N 
ATOM      8  C   UNL     1       8.693   9.886  18.280  0.00  0.00    +0.000 C 
ATOM      9  O   UNL     1       9.281   9.437  19.263  0.00  0.00    +0.000 OA
ATOM     10  H   UNL     1       7.844   9.462  16.504  0.00  0.00    +0.000 HD
BRANCH   8  11
ATOM     11  C   UNL     1       8.844  11.344  17.859  0.00  0.00    +0.000 C 
BRANCH  11  12
ATOM     12  O   UNL     1      10.212  11.689  17.677  0.00  0.00    +0.000 OA
BRANCH  12  13
ATOM     13  C   UNL     1      10.558  12.934  18.151  0.00  0.00    +0.000 A 
ATOM     14  C   UNL     1       9.944  14.115  17.715  0.00  0.00    +0.000 A 
ATOM     15  C   UNL     1      10.355  15.357  18.201  0.00  0.00    +0.000 A 
ATOM     16  C   UNL     1      11.368  15.435  19.151  0.00  0.00    +0.000 A 
ATOM     17  C   UNL     1      11.960  14.266  19.629  0.00  0.00    +0.000 A 
ATOM     18  C   UNL     1      11.551  13.020  19.139  0.00  0.00    +0.000 A 
ATOM     19 CL   UNL     1      12.332  11.607  19.758  0.00  0.00    +0.000 Cl
ENDBRANCH  12  13
ENDBRANCH  11  12
ENDBRANCH   8  11
ENDBRANCH   5   7
BRANCH   1  20
ATOM     20  C   UNL     1       6.386   4.810  15.789  0.00  0.00    +0.000 C 
ATOM     21  O   UNL     1       7.032   4.222  14.929  0.00  0.00    +0.000 OA
BRANCH  20  22
ATOM     22  O   UNL     1       5.037   4.842  15.884  0.00  0.00    +0.000 OA
BRANCH  22  23
ATOM     23  C   UNL     1       4.434   3.972  16.852  0.00  0.00    +0.000 C 
BRANCH  23  31
ATOM     24  C   UNL     1       0.934   9.602  20.322  0.00  0.00    +0.000 C 
ATOM     25  C   UNL     1       1.611   8.385  19.789  0.00  0.00    +0.000 A 
ATOM     26  N   UNL     1       1.746   7.285  20.459  0.00  0.00    +0.000 NA
ATOM     27  N   UNL     1       2.413   6.373  19.669  0.00  0.00    +0.000 N 
ATOM     28  C   UNL     1       2.701   5.100  20.106  0.00  0.00    +0.000 A 
ATOM     29  O   UNL     1       2.432   4.591  21.191  0.00  0.00    +0.000 OA
ATOM     30  C   UNL     1       3.420   4.284  19.098  0.00  0.00    +0.000 A 
ATOM     31  C   UNL     1       3.720   4.807  17.897  0.00  0.00    +0.000 A 
ATOM     32  N   UNL     1       3.389   6.095  17.525  0.00  0.00    +0.000 NA
ATOM     33  C   UNL     1       2.770   6.797  18.412  0.00  0.00    +0.000 A 
ATOM     34  S   UNL     1       2.262   8.432  18.172  0.00  0.00    +0.000 S 
ENDBRANCH  23  31
ENDBRANCH  22  23
ENDBRANCH  20  22
ENDBRANCH   1  20
TORSDOF 8
ENDMDL
MODEL 6
REMARK VINA RESULT:      -7.9      1.558      1.769
REMARK  Name = 
REMARK  9 active torsions:
REMARK  status: ('A' for Active; 'I' for Inactive)
REMARK    1  A    between atoms: C_1  and  C_2
REMARK    2  A    between atoms: C_8  and  C_9
REMARK    3  A    between atoms: C_9  and  O_10
REMARK    4  A    between atoms: O_10  and  C_11
REMARK    5  A    between atoms: C_11  and  C_13
REMARK    6  A    between atoms: C_17  and  N_18
REMARK    7  A    between atoms: C_19  and  C_21
REMARK    8  A    between atoms: C_21  and  O_22
REMARK    9  A    between atoms: O_22  and  C_23
REMARK                            x       y       z     vdW  Elec       q    Type
REMARK                         _______ _______ _______ _____ _____    ______ ____
ROOT
ATOM      1  C   UNL     1       2.273   6.512  19.582  0.00  0.00    +0.000 A 
ATOM      2  C   UNL     1       2.605   6.896  18.273  0.00  0.00    +0.000 A 
ATOM      3  C   UNL     1       2.343   8.198  17.833  0.00  0.00    +0.000 A 
ATOM      4  C   UNL     1       1.764   9.128  18.699  0.00  0.00    +0.000 A 
ATOM      5  C   UNL     1       1.478   8.758  20.013  0.00  0.00    +0.000 A 
ATOM      6  C   UNL     1       1.711   7.454  20.452  0.00  0.00    +0.000 A 
ENDROOT
BRANCH   5   7
ATOM      7  N   UNL     1       0.957   9.696  20.924  0.00  0.00    +0.000 N 
ATOM      8  C   UNL     1      -0.329  10.183  20.698  0.00  0.00    +0.000 C 
ATOM      9  O   UNL     1      -0.995   9.976  19.684  0.00  0.00    +0.000 OA
ATOM     10  H   UNL     1       1.133   9.502  21.904  0.00  0.00    +0.000 HD
BRANCH   8  11
ATOM     11  C   UNL     1      -0.854  11.059  21.830  0.00  0.00    +0.000 C 
BRANCH  11  12
ATOM     12  O   UNL     1      -0.936  12.423  21.433  0.00  0.00    +0.000 OA
BRANCH  12  13
ATOM     13  C   UNL     1      -1.677  13.222  22.273  0.00  0.00    +0.000 A 
ATOM     14  C   UNL     1      -1.137  13.846  23.406  0.00  0.00    +0.000 A 
ATOM     15  C   UNL     1      -1.939  14.619  24.247  0.00  0.00    +0.000 A 
ATOM     16  C   UNL     1      -3.287  14.802  23.954  0.00  0.00    +0.000 A 
ATOM     17  C   UNL     1      -3.830  14.225  22.806  0.00  0.00    +0.000 A 
ATOM     18  C   UNL     1      -3.027  13.445  21.964  0.00  0.00    +0.000 A 
ATOM     19 CL   UNL     1      -3.760  12.743  20.564  0.00  0.00    +0.000 Cl
ENDBRANCH  12  13
ENDBRANCH  11  12
ENDBRANCH   8  11
ENDBRANCH   5   7
BRANCH   1  20
ATOM     20  C   UNL     1       2.501   5.140  20.092  0.00  0.00    +0.000 C 
ATOM     21  O   UNL     1       2.333   4.807  21.260  0.00  0.00    +0.000 OA
BRANCH  20  22
ATOM     22  O   UNL     1       2.926   4.334  19.091  0.00  0.00    +0.000 OA
BRANCH  22  23
ATOM     23  C   UNL     1       4.207   3.712  19.258  0.00  0.00    +0.000 C 
BRANCH  23  31
ATOM     24  C   UNL     1       7.825   5.214  12.884  0.00  0.00    +0.000 C 
ATOM     25  C   UNL     1       7.220   5.034  14.235  0.00  0.00    +0.000 A 
ATOM     26  N   UNL     1       7.603   5.685  15.286  0.00  0.00    +0.000 NA
ATOM     27  N   UNL     1       6.835   5.276  16.356  0.00  0.00    +0.000 N 
ATOM     28  C   UNL     1       7.004   5.799  17.618  0.00  0.00    +0.000 A 
ATOM     29  O   UNL     1       7.802   6.657  17.985  0.00  0.00    +0.000 OA
ATOM     30  C   UNL     1       6.073   5.222  18.618  0.00  0.00    +0.000 A 
ATOM     31  C   UNL     1       5.179   4.290  18.248  0.00  0.00    +0.000 A 
ATOM     32  N   UNL     1       5.062   3.820  16.955  0.00  0.00    +0.000 NA
ATOM     33  C   UNL     1       5.881   4.324  16.096  0.00  0.00    +0.000 A 
ATOM     34  S   UNL     1       5.923   3.884  14.423  0.00  0.00    +0.000 S 
ENDBRANCH  23  31
ENDBRANCH  22  23
ENDBRANCH  20  22
ENDBRANCH   1  20
TORSDOF 8
ENDMDL
MODEL 7
REMARK VINA RESULT:      -7.8      4.409     11.218
REMARK  Name = 
REMARK  9 active torsions:
REMARK  status: ('A' for Active; 'I' for Inactive)
REMARK    1  A    between atoms: C_1  and  C_2
REMARK    2  A    between atoms: C_8  and  C_9
REMARK    3  A    between atoms: C_9  and  O_10
REMARK    4  A    between atoms: O_10  and  C_11
REMARK    5  A    between atoms: C_11  and  C_13
REMARK    6  A    between atoms: C_17  and  N_18
REMARK    7  A    between atoms: C_19  and  C_21
REMARK    8  A    between atoms: C_21  and  O_22
REMARK    9  A    between atoms: O_22  and  C_23
REMARK                            x       y       z     vdW  Elec       q    Type
REMARK                         _______ _______ _______ _____ _____    ______ ____
ROOT
ATOM      1  C   UNL     1       0.997   8.933  20.345  0.00  0.00    +0.000 A 
ATOM      2  C   UNL     1       1.010   9.524  19.072  0.00  0.00    +0.000 A 
ATOM      3  C   UNL     1       1.776   8.965  18.043  0.00  0.00    +0.000 A 
ATOM      4  C   UNL     1       2.520   7.806  18.274  0.00  0.00    +0.000 A 
ATOM      5  C   UNL     1       2.469   7.194  19.526  0.00  0.00    +0.000 A 
ATOM      6  C   UNL     1       1.729   7.760  20.565  0.00  0.00    +0.000 A 
ENDROOT
BRANCH   5   7
ATOM      7  N   UNL     1       3.156   5.989  19.764  0.00  0.00    +0.000 N 
ATOM      8  C   UNL     1       2.794   4.870  19.017  0.00  0.00    +0.000 C 
ATOM      9  O   UNL     1       1.820   4.806  18.268  0.00  0.00    +0.000 OA
ATOM     10  H   UNL     1       4.161   6.071  19.880  0.00  0.00    +0.000 HD
BRANCH   8  11
ATOM     11  C   UNL     1       3.711   3.671  19.235  0.00  0.00    +0.000 C 
BRANCH  11  12
ATOM     12  O   UNL     1       5.080   4.046  19.143  0.00  0.00    +0.000 OA
BRANCH  12  13
ATOM     13  C   UNL     1       5.503   4.365  17.872  0.00  0.00    +0.000 A 
ATOM     14  C   UNL     1       4.871   3.890  16.716  0.00  0.00    +0.000 A 
ATOM     15  C   UNL     1       5.360   4.215  15.449  0.00  0.00    +0.000 A 
ATOM     16  C   UNL     1       6.472   5.042  15.320  0.00  0.00    +0.000 A 
ATOM     17  C   UNL     1       7.086   5.559  16.460  0.00  0.00    +0.000 A 
ATOM     18  C   UNL     1       6.599   5.230  17.732  0.00  0.00    +0.000 A 
ATOM     19 CL   UNL     1       7.410   5.890  19.108  0.00  0.00    +0.000 Cl
ENDBRANCH  12  13
ENDBRANCH  11  12
ENDBRANCH   8  11
ENDBRANCH   5   7
BRANCH   1  20
ATOM     20  C   UNL     1       0.228   9.499  21.478  0.00  0.00    +0.000 C 
ATOM     21  O   UNL     1       0.222   9.022  22.607  0.00  0.00    +0.000 OA
BRANCH  20  22
ATOM     22  O   UNL     1      -0.461  10.592  21.076  0.00  0.00    +0.000 OA
BRANCH  22  23
ATOM     23  C   UNL     1      -0.147  11.832  21.725  0.00  0.00    +0.000 C 
BRANCH  23  31
ATOM     24  C   UNL     1      -5.824  16.618  22.639  0.00  0.00    +0.000 C 
ATOM     25  C   UNL     1      -4.777  15.559  22.584  0.00  0.00    +0.000 A 
ATOM     26  N   UNL     1      -4.829  14.460  23.266  0.00  0.00    +0.000 NA
ATOM     27  N   UNL     1      -3.707  13.713  22.976  0.00  0.00    +0.000 N 
ATOM     28  C   UNL     1      -3.482  12.481  23.547  0.00  0.00    +0.000 A 
ATOM     29  O   UNL     1      -4.187  11.875  24.348  0.00  0.00    +0.000 OA
ATOM     30  C   UNL     1      -2.219  11.850  23.095  0.00  0.00    +0.000 A 
ATOM     31  C   UNL     1      -1.428  12.481  22.210  0.00  0.00    +0.000 A 
ATOM     32  N   UNL     1      -1.726  13.717  21.672  0.00  0.00    +0.000 NA
ATOM     33  C   UNL     1      -2.824  14.259  22.077  0.00  0.00    +0.000 A 
ATOM     34  S   UNL     1      -3.397  15.802  21.546  0.00  0.00    +0.000 S 
ENDBRANCH  23  31
ENDBRANCH  22  23
ENDBRANCH  20  22
ENDBRANCH   1  20
TORSDOF 8
ENDMDL
MODEL 8
REMARK VINA RESULT:      -7.7      4.069     10.441
REMARK  Name = 
REMARK  9 active torsions:
REMARK  status: ('A' for Active; 'I' for Inactive)
REMARK    1  A    between atoms: C_1  and  C_2
REMARK    2  A    between atoms: C_8  and  C_9
REMARK    3  A    between atoms: C_9  and  O_10
REMARK    4  A    between atoms: O_10  and  C_11
REMARK    5  A    between atoms: C_11  and  C_13
REMARK    6  A    between atoms: C_17  and  N_18
REMARK    7  A    between atoms: C_19  and  C_21
REMARK    8  A    between atoms: C_21  and  O_22
REMARK    9  A    between atoms: O_22  and  C_23
REMARK                            x       y       z     vdW  Elec       q    Type
REMARK                         _______ _______ _______ _____ _____    ______ ____
ROOT
ATOM      1  C   UNL     1       1.767   8.544  19.231  0.00  0.00    +0.000 A 
ATOM      2  C   UNL     1       1.197   8.383  20.504  0.00  0.00    +0.000 A 
ATOM      3  C   UNL     1       1.241   7.139  21.142  0.00  0.00    +0.000 A 
ATOM      4  C   UNL     1       1.866   6.055  20.523  0.00  0.00    +0.000 A 
ATOM      5  C   UNL     1       2.473   6.229  19.280  0.00  0.00    +0.000 A 
ATOM      6  C   UNL     1       2.410   7.459  18.624  0.00  0.00    +0.000 A 
ENDROOT
BRANCH   5   7
ATOM      7  N   UNL     1       3.167   5.169  18.666  0.00  0.00    +0.000 N 
ATOM      8  C   UNL     1       2.468   4.360  17.771  0.00  0.00    +0.000 C 
ATOM      9  O   UNL     1       1.253   4.401  17.583  0.00  0.00    +0.000 OA
ATOM     10  H   UNL     1       4.105   5.386  18.345  0.00  0.00    +0.000 HD
BRANCH   8  11
ATOM     11  C   UNL     1       3.355   3.356  17.043  0.00  0.00    +0.000 C 
BRANCH  11  12
ATOM     12  O   UNL     1       4.728   3.561  17.351  0.00  0.00    +0.000 OA
BRANCH  12  13
ATOM     13  C   UNL     1       5.498   3.983  16.291  0.00  0.00    +0.000 A 
ATOM     14  C   UNL     1       5.125   3.793  14.954  0.00  0.00    +0.000 A 
ATOM     15  C   UNL     1       5.957   4.209  13.913  0.00  0.00    +0.000 A 
ATOM     16  C   UNL     1       7.162   4.845  14.193  0.00  0.00    +0.000 A 
ATOM     17  C   UNL     1       7.528   5.082  15.518  0.00  0.00    +0.000 A 
ATOM     18  C   UNL     1       6.695   4.661  16.563  0.00  0.00    +0.000 A 
ATOM     19 CL   UNL     1       7.209   4.969  18.185  0.00  0.00    +0.000 Cl
ENDBRANCH  12  13
ENDBRANCH  11  12
ENDBRANCH   8  11
ENDBRANCH   5   7
BRANCH   1  20
ATOM     20  C   UNL     1       1.724   9.831  18.496  0.00  0.00    +0.000 C 
ATOM     21  O   UNL     1       2.057   9.960  17.324  0.00  0.00    +0.000 OA
BRANCH  20  22
ATOM     22  O   UNL     1       1.282  10.818  19.309  0.00  0.00    +0.000 OA
BRANCH  22  23
ATOM     23  C   UNL     1       0.755  11.993  18.676  0.00  0.00    +0.000 C 
BRANCH  23  31
ATOM     24  C   UNL     1      -6.677  11.364  18.088  0.00  0.00    +0.000 C 
ATOM     25  C   UNL     1      -5.227  11.577  18.365  0.00  0.00    +0.000 A 
ATOM     26  N   UNL     1      -4.776  12.137  19.442  0.00  0.00    +0.000 NA
ATOM     27  N   UNL     1      -3.400  12.171  19.371  0.00  0.00    +0.000 N 
ATOM     28  C   UNL     1      -2.629  12.704  20.380  0.00  0.00    +0.000 A 
ATOM     29  O   UNL     1      -3.002  13.202  21.438  0.00  0.00    +0.000 OA
ATOM     30  C   UNL     1      -1.174  12.636  20.101  0.00  0.00    +0.000 A 
ATOM     31  C   UNL     1      -0.731  12.088  18.957  0.00  0.00    +0.000 A 
ATOM     32  N   UNL     1      -1.568  11.562  17.993  0.00  0.00    +0.000 NA
ATOM     33  C   UNL     1      -2.831  11.633  18.243  0.00  0.00    +0.000 A 
ATOM     34  S   UNL     1      -4.063  11.046  17.181  0.00  0.00    +0.000 S 
ENDBRANCH  23  31
ENDBRANCH  22  23
ENDBRANCH  20  22
ENDBRANCH   1  20
TORSDOF 8
ENDMDL
MODEL 9
REMARK VINA RESULT:      -7.7      4.371      8.582
REMARK  Name = 
REMARK  9 active torsions:
REMARK  status: ('A' for Active; 'I' for Inactive)
REMARK    1  A    between atoms: C_1  and  C_2
REMARK    2  A    between atoms: C_8  and  C_9
REMARK    3  A    between atoms: C_9  and  O_10
REMARK    4  A    between atoms: O_10  and  C_11
REMARK    5  A    between atoms: C_11  and  C_13
REMARK    6  A    between atoms: C_17  and  N_18
REMARK    7  A    between atoms: C_19  and  C_21
REMARK    8  A    between atoms: C_21  and  O_22
REMARK    9  A    between atoms: O_22  and  C_23
REMARK                            x       y       z     vdW  Elec       q    Type
REMARK                         _______ _______ _______ _____ _____    ______ ____
ROOT
ATOM      1  C   UNL     1       4.590   4.576  18.360  0.00  0.00    +0.000 A 
ATOM      2  C   UNL     1       4.816   3.747  17.251  0.00  0.00    +0.000 A 
ATOM      3  C   UNL     1       5.982   3.888  16.490  0.00  0.00    +0.000 A 
ATOM      4  C   UNL     1       6.935   4.846  16.842  0.00  0.00    +0.000 A 
ATOM      5  C   UNL     1       6.732   5.637  17.973  0.00  0.00    +0.000 A 
ATOM      6  C   UNL     1       5.559   5.520  18.720  0.00  0.00    +0.000 A 
ENDROOT
BRANCH   5   7
ATOM      7  N   UNL     1       7.708   6.563  18.386  0.00  0.00    +0.000 N 
ATOM      8  C   UNL     1       7.688   7.834  17.816  0.00  0.00    +0.000 C 
ATOM      9  O   UNL     1       6.977   8.173  16.871  0.00  0.00    +0.000 OA
ATOM     10  H   UNL     1       7.900   6.584  19.382  0.00  0.00    +0.000 HD
BRANCH   8  11
ATOM     11  C   UNL     1       8.678   8.801  18.455  0.00  0.00    +0.000 C 
BRANCH  11  12
ATOM     12  O   UNL     1       8.465  10.133  18.001  0.00  0.00    +0.000 OA
BRANCH  12  13
ATOM     13  C   UNL     1       9.190  11.091  18.672  0.00  0.00    +0.000 A 
ATOM     14  C   UNL     1      10.176  10.780  19.618  0.00  0.00    +0.000 A 
ATOM     15  C   UNL     1      10.858  11.789  20.299  0.00  0.00    +0.000 A 
ATOM     16  C   UNL     1      10.585  13.125  20.024  0.00  0.00    +0.000 A 
ATOM     17  C   UNL     1       9.639  13.453  19.053  0.00  0.00    +0.000 A 
ATOM     18  C   UNL     1       8.950  12.441  18.373  0.00  0.00    +0.000 A 
ATOM     19 CL   UNL     1       7.778  12.908  17.192  0.00  0.00    +0.000 Cl
ENDBRANCH  12  13
ENDBRANCH  11  12
ENDBRANCH   8  11
ENDBRANCH   5   7
BRANCH   1  20
ATOM     20  C   UNL     1       3.360   4.489  19.183  0.00  0.00    +0.000 C 
ATOM     21  O   UNL     1       2.945   3.451  19.686  0.00  0.00    +0.000 OA
BRANCH  20  22
ATOM     22  O   UNL     1       2.776   5.706  19.277  0.00  0.00    +0.000 OA
BRANCH  22  23
ATOM     23  C   UNL     1       1.979   5.954  20.444  0.00  0.00    +0.000 C 
BRANCH  23  31
ATOM     24  C   UNL     1       0.849  13.091  18.505  0.00  0.00    +0.000 C 
ATOM     25  C   UNL     1       1.002  11.714  19.056  0.00  0.00    +0.000 A 
ATOM     26  N   UNL     1       0.610  11.366  20.240  0.00  0.00    +0.000 NA
ATOM     27  N   UNL     1       0.903  10.031  20.420  0.00  0.00    +0.000 N 
ATOM     28  C   UNL     1       0.596   9.366  21.587  0.00  0.00    +0.000 A 
ATOM     29  O   UNL     1       0.046   9.810  22.591  0.00  0.00    +0.000 OA
ATOM     30  C   UNL     1       0.995   7.939  21.568  0.00  0.00    +0.000 A 
ATOM     31  C   UNL     1       1.589   7.418  20.480  0.00  0.00    +0.000 A 
ATOM     32  N   UNL     1       1.857   8.148  19.339  0.00  0.00    +0.000 NA
ATOM     33  C   UNL     1       1.511   9.390  19.369  0.00  0.00    +0.000 A 
ATOM     34  S   UNL     1       1.752  10.495  18.061  0.00  0.00    +0.000 S 
ENDBRANCH  23  31
ENDBRANCH  22  23
ENDBRANCH  20  22
ENDBRANCH   1  20
TORSDOF 8
ENDMDL
