MODEL 1
REMARK VINA RESULT:      -6.6      0.000      0.000
REMARK  Name = 
REMARK  11 active torsions:
REMARK  status: ('A' for Active; 'I' for Inactive)
REMARK    1  A    between atoms: C_2  and  C_3
REMARK    2  A    between atoms: C_3  and  N_4
REMARK    3  A    between atoms: C_5  and  C_6
REMARK    4  A    between atoms: C_9  and  N_10
REMARK    5  A    between atoms: N_18  and  C_19
REMARK    6  A    between atoms: C_19  and  P_20
REMARK    7  A    between atoms: C_19  and  P_24
REMARK    8  A    between atoms: P_20  and  O_22
REMARK    9  A    between atoms: P_20  and  O_23
REMARK   10  A    between atoms: P_24  and  O_26
REMARK   11  A    between atoms: P_24  and  O_27
REMARK                            x       y       z     vdW  Elec       q    Type
REMARK                         _______ _______ _______ _____ _____    ______ ____
ROOT
ATOM      1  N   UNL     1       1.463   8.373  19.857  0.00  0.00    +0.000 N 
ATOM      2  C   UNL     1       2.309   7.690  18.982  0.00  0.00    +0.000 A 
ATOM      3  C   UNL     1       2.658   8.366  17.875  0.00  0.00    +0.000 A 
ATOM      4  S   UNL     1       1.919   9.935  17.834  0.00  0.00    +0.000 S 
ATOM      5  C   UNL     1       1.103   9.635  19.401  0.00  0.00    +0.000 A 
ATOM      6  N   UNL     1       0.293  10.441  19.976  0.00  0.00    +0.000 NA
ENDROOT
BRANCH   2   7
ATOM      7  C   UNL     1       2.758   6.319  19.195  0.00  0.00    +0.000 A 
ATOM      8  C   UNL     1       4.125   6.010  19.232  0.00  0.00    +0.000 A 
ATOM      9  C   UNL     1       4.543   4.692  19.347  0.00  0.00    +0.000 A 
ATOM     10  C   UNL     1       3.589   3.667  19.429  0.00  0.00    +0.000 A 
ATOM     11  C   UNL     1       2.217   3.961  19.405  0.00  0.00    +0.000 A 
ATOM     12  C   UNL     1       1.807   5.291  19.291  0.00  0.00    +0.000 A 
BRANCH  10  13
ATOM     13  N   UNL     1       4.027   2.271  19.518  0.00  0.00    +0.000 N 
ATOM     14  O   UNL     1       4.859   1.984  20.388  0.00  0.00    +0.000 OA
ATOM     15  O   UNL     1       3.540   1.463  18.714  0.00  0.00    +0.000 OA
ENDBRANCH  10  13
ENDBRANCH   2   7
BRANCH   1  16
ATOM     16  C   UNL     1       1.012   7.890  21.158  0.00  0.00    +0.000 C 
BRANCH  16  18
ATOM     17  C   UNL     1       0.405   9.364  23.116  0.00  0.00    +0.000 C 
ATOM     18  C   UNL     1       1.298   8.920  22.219  0.00  0.00    +0.000 C 
ENDBRANCH  16  18
ENDBRANCH   1  16
BRANCH   6  19
ATOM     19  C   UNL     1       0.015  11.773  19.413  0.00  0.00    +0.000 C 
BRANCH  19  20
ATOM     20  P   UNL     1      -1.603  11.586  18.535  0.00  0.00    +0.000 P 
ATOM     21  O   UNL     1      -2.064  10.186  18.291  0.00  0.00    +0.000 OA
BRANCH  20  22
ATOM     22  O   UNL     1      -2.642  12.494  19.355  0.00  0.00    +0.000 OA
ATOM     23  H   UNL     1      -3.234  13.003  18.754  0.00  0.00    +0.000 HD
ENDBRANCH  20  22
BRANCH  20  24
ATOM     24  O   UNL     1      -1.424  12.441  17.188  0.00  0.00    +0.000 OA
ATOM     25  H   UNL     1      -0.805  13.186  17.328  0.00  0.00    +0.000 HD
ENDBRANCH  20  24
ENDBRANCH  19  20
BRANCH  19  26
ATOM     26  P   UNL     1      -0.189  13.060  20.699  0.00  0.00    +0.000 P 
ATOM     27  O   UNL     1       1.273  12.924  21.151  0.00  0.00    +0.000 OA
BRANCH  26  28
ATOM     28  O   UNL     1      -0.219  14.253  19.575  0.00  0.00    +0.000 OA
ATOM     29  H   UNL     1       0.260  15.067  19.824  0.00  0.00    +0.000 HD
ENDBRANCH  26  28
BRANCH  26  30
ATOM     30  O   UNL     1      -0.382  14.276  21.914  0.00  0.00    +0.000 OA
ATOM     31  H   UNL     1      -0.133  13.809  22.739  0.00  0.00    +0.000 HD
ENDBRANCH  26  30
ENDBRANCH  19  26
ENDBRANCH   6  19
TORSDOF 11
ENDMDL
MODEL 2
REMARK VINA RESULT:      -6.6      0.638      1.011
REMARK  Name = 
REMARK  11 active torsions:
REMARK  status: ('A' for Active; 'I' for Inactive)
REMARK    1  A    between atoms: C_2  and  C_3
REMARK    2  A    between atoms: C_3  and  N_4
REMARK    3  A    between atoms: C_5  and  C_6
REMARK    4  A    between atoms: C_9  and  N_10
REMARK    5  A    between atoms: N_18  and  C_19
REMARK    6  A    between atoms: C_19  and  P_20
REMARK    7  A    between atoms: C_19  and  P_24
REMARK    8  A    between atoms: P_20  and  O_22
REMARK    9  A    between atoms: P_20  and  O_23
REMARK   10  A    between atoms: P_24  and  O_26
REMARK   11  A    between atoms: P_24  and  O_27
REMARK                            x       y       z     vdW  Elec       q    Type
REMARK                         _______ _______ _______ _____ _____    ______ ____
ROOT
ATOM      1  N   UNL     1       1.458   8.446  19.714  0.00  0.00    +0.000 N 
ATOM      2  C   UNL     1       2.273   7.775  18.801  0.00  0.00    +0.000 A 
ATOM      3  C   UNL     1       2.653   8.495  17.733  0.00  0.00    +0.000 A 
ATOM      4  S   UNL     1       1.986  10.096  17.780  0.00  0.00    +0.000 S 
ATOM      5  C   UNL     1       1.156   9.746  19.329  0.00  0.00    +0.000 A 
ATOM      6  N   UNL     1       0.382  10.556  19.949  0.00  0.00    +0.000 NA
ENDROOT
BRANCH   2   7
ATOM      7  C   UNL     1       2.659   6.375  18.938  0.00  0.00    +0.000 A 
ATOM      8  C   UNL     1       3.856   6.022  19.577  0.00  0.00    +0.000 A 
ATOM      9  C   UNL     1       4.259   4.695  19.626  0.00  0.00    +0.000 A 
ATOM     10  C   UNL     1       3.461   3.706  19.033  0.00  0.00    +0.000 A 
ATOM     11  C   UNL     1       2.255   4.043  18.399  0.00  0.00    +0.000 A 
ATOM     12  C   UNL     1       1.857   5.381  18.357  0.00  0.00    +0.000 A 
BRANCH  10  13
ATOM     13  N   UNL     1       3.900   2.307  19.054  0.00  0.00    +0.000 N 
ATOM     14  O   UNL     1       3.389   1.533  18.234  0.00  0.00    +0.000 OA
ATOM     15  O   UNL     1       4.754   1.985  19.892  0.00  0.00    +0.000 OA
ENDBRANCH  10  13
ENDBRANCH   2   7
BRANCH   1  16
ATOM     16  C   UNL     1       0.984   7.913  20.987  0.00  0.00    +0.000 C 
BRANCH  16  18
ATOM     17  C   UNL     1       0.502   9.317  23.030  0.00  0.00    +0.000 C 
ATOM     18  C   UNL     1       1.357   8.846  22.109  0.00  0.00    +0.000 C 
ENDBRANCH  16  18
ENDBRANCH   1  16
BRANCH   6  19
ATOM     19  C   UNL     1       0.166  11.927  19.461  0.00  0.00    +0.000 C 
BRANCH  19  20
ATOM     20  P   UNL     1      -1.496  11.882  18.647  0.00  0.00    +0.000 P 
ATOM     21  O   UNL     1      -2.142  10.540  18.539  0.00  0.00    +0.000 OA
BRANCH  20  22
ATOM     22  O   UNL     1      -2.377  12.984  19.411  0.00  0.00    +0.000 OA
ATOM     23  H   UNL     1      -1.836  13.764  19.676  0.00  0.00    +0.000 HD
ENDBRANCH  20  22
BRANCH  20  24
ATOM     24  O   UNL     1      -1.260  12.590  17.225  0.00  0.00    +0.000 OA
ATOM     25  H   UNL     1      -1.961  13.248  17.042  0.00  0.00    +0.000 HD
ENDBRANCH  20  24
ENDBRANCH  19  20
BRANCH  19  26
ATOM     26  P   UNL     1       0.095  13.160  20.812  0.00  0.00    +0.000 P 
ATOM     27  O   UNL     1      -0.822  12.265  21.659  0.00  0.00    +0.000 OA
BRANCH  26  28
ATOM     28  O   UNL     1       1.631  12.821  21.275  0.00  0.00    +0.000 OA
ATOM     29  H   UNL     1       2.220  13.596  21.351  0.00  0.00    +0.000 HD
ENDBRANCH  26  28
BRANCH  26  30
ATOM     30  O   UNL     1       0.027  14.325  22.089  0.00  0.00    +0.000 OA
ATOM     31  H   UNL     1      -0.089  15.173  21.612  0.00  0.00    +0.000 HD
ENDBRANCH  26  30
ENDBRANCH  19  26
ENDBRANCH   6  19
TORSDOF 11
ENDMDL
MODEL 3
REMARK VINA RESULT:      -6.5      3.667      8.496
REMARK  Name = 
REMARK  11 active torsions:
REMARK  status: ('A' for Active; 'I' for Inactive)
REMARK    1  A    between atoms: C_2  and  C_3
REMARK    2  A    between atoms: C_3  and  N_4
REMARK    3  A    between atoms: C_5  and  C_6
REMARK    4  A    between atoms: C_9  and  N_10
REMARK    5  A    between atoms: N_18  and  C_19
REMARK    6  A    between atoms: C_19  and  P_20
REMARK    7  A    between atoms: C_19  and  P_24
REMARK    8  A    between atoms: P_20  and  O_22
REMARK    9  A    between atoms: P_20  and  O_23
REMARK   10  A    between atoms: P_24  and  O_26
REMARK   11  A    between atoms: P_24  and  O_27
REMARK                            x       y       z     vdW  Elec       q    Type
REMARK                         _______ _______ _______ _____ _____    ______ ____
ROOT
ATOM      1  N   UNL     1       2.178   7.139  19.722  0.00  0.00    +0.000 N 
ATOM      2  C   UNL     1       1.722   8.407  19.357  0.00  0.00    +0.000 A 
ATOM      3  C   UNL     1       2.142   8.846  18.160  0.00  0.00    +0.000 A 
ATOM      4  S   UNL     1       3.182   7.689  17.391  0.00  0.00    +0.000 S 
ATOM      5  C   UNL     1       3.024   6.567  18.779  0.00  0.00    +0.000 A 
ATOM      6  N   UNL     1       3.629   5.445  18.891  0.00  0.00    +0.000 NA
ENDROOT
BRANCH   2   7
ATOM      7  C   UNL     1       0.891   9.245  20.215  0.00  0.00    +0.000 A 
ATOM      8  C   UNL     1       0.216  10.356  19.692  0.00  0.00    +0.000 A 
ATOM      9  C   UNL     1      -0.500  11.199  20.530  0.00  0.00    +0.000 A 
ATOM     10  C   UNL     1      -0.547  10.932  21.906  0.00  0.00    +0.000 A 
ATOM     11  C   UNL     1       0.116   9.817  22.443  0.00  0.00    +0.000 A 
ATOM     12  C   UNL     1       0.832   8.975  21.591  0.00  0.00    +0.000 A 
BRANCH  10  13
ATOM     13  N   UNL     1      -1.275  11.839  22.799  0.00  0.00    +0.000 N 
ATOM     14  O   UNL     1      -2.195  11.362  23.476  0.00  0.00    +0.000 OA
ATOM     15  O   UNL     1      -0.927  13.028  22.820  0.00  0.00    +0.000 OA
ENDBRANCH  10  13
ENDBRANCH   2   7
BRANCH   1  16
ATOM     16  C   UNL     1       1.799   6.410  20.927  0.00  0.00    +0.000 C 
BRANCH  16  18
ATOM     17  C   UNL     1       1.408   3.915  20.932  0.00  0.00    +0.000 C 
ATOM     18  C   UNL     1       1.054   5.154  20.558  0.00  0.00    +0.000 C 
ENDBRANCH  16  18
ENDBRANCH   1  16
BRANCH   6  19
ATOM     19  C   UNL     1       4.475   4.924  17.806  0.00  0.00    +0.000 C 
BRANCH  19  20
ATOM     20  P   UNL     1       6.205   5.342  18.315  0.00  0.00    +0.000 P 
ATOM     21  O   UNL     1       6.745   6.642  17.815  0.00  0.00    +0.000 OA
BRANCH  20  22
ATOM     22  O   UNL     1       6.232   5.181  19.911  0.00  0.00    +0.000 OA
ATOM     23  H   UNL     1       7.134   5.334  20.278  0.00  0.00    +0.000 HD
ENDBRANCH  20  22
BRANCH  20  24
ATOM     24  O   UNL     1       7.072   4.073  17.850  0.00  0.00    +0.000 OA
ATOM     25  H   UNL     1       7.071   3.987  16.875  0.00  0.00    +0.000 HD
ENDBRANCH  20  24
ENDBRANCH  19  20
BRANCH  19  26
ATOM     26  P   UNL     1       4.367   3.105  17.629  0.00  0.00    +0.000 P 
ATOM     27  O   UNL     1       4.532   2.890  19.142  0.00  0.00    +0.000 OA
BRANCH  26  28
ATOM     28  O   UNL     1       2.754   3.176  17.343  0.00  0.00    +0.000 OA
ATOM     29  H   UNL     1       2.380   4.077  17.303  0.00  0.00    +0.000 HD
ENDBRANCH  26  28
BRANCH  26  30
ATOM     30  O   UNL     1       4.265   1.386  17.463  0.00  0.00    +0.000 OA
ATOM     31  H   UNL     1       3.684   1.124  18.207  0.00  0.00    +0.000 HD
ENDBRANCH  26  30
ENDBRANCH  19  26
ENDBRANCH   6  19
TORSDOF 11
ENDMDL
MODEL 4
REMARK VINA RESULT:      -6.5      3.741      8.509
REMARK  Name = 
REMARK  11 active torsions:
REMARK  status: ('A' for Active; 'I' for Inactive)
REMARK    1  A    between atoms: C_2  and  C_3
REMARK    2  A    between atoms: C_3  and  N_4
REMARK    3  A    between atoms: C_5  and  C_6
REMARK    4  A    between atoms: C_9  and  N_10
REMARK    5  A    between atoms: N_18  and  C_19
REMARK    6  A    between atoms: C_19  and  P_20
REMARK    7  A    between atoms: C_19  and  P_24
REMARK    8  A    between atoms: P_20  and  O_22
REMARK    9  A    between atoms: P_20  and  O_23
REMARK   10  A    between atoms: P_24  and  O_26
REMARK   11  A    between atoms: P_24  and  O_27
REMARK                            x       y       z     vdW  Elec       q    Type
REMARK                         _______ _______ _______ _____ _____    ______ ____
ROOT
ATOM      1  N   UNL     1       2.181   6.968  19.819  0.00  0.00    +0.000 N 
ATOM      2  C   UNL     1       1.764   8.260  19.495  0.00  0.00    +0.000 A 
ATOM      3  C   UNL     1       2.215   8.730  18.321  0.00  0.00    +0.000 A 
ATOM      4  S   UNL     1       3.236   7.574  17.525  0.00  0.00    +0.000 S 
ATOM      5  C   UNL     1       3.026   6.408  18.869  0.00  0.00    +0.000 A 
ATOM      6  N   UNL     1       3.599   5.266  18.949  0.00  0.00    +0.000 NA
ENDROOT
BRANCH   2   7
ATOM      7  C   UNL     1       0.943   9.088  20.370  0.00  0.00    +0.000 A 
ATOM      8  C   UNL     1       0.127  10.098  19.841  0.00  0.00    +0.000 A 
ATOM      9  C   UNL     1      -0.583  10.940  20.686  0.00  0.00    +0.000 A 
ATOM     10  C   UNL     1      -0.481  10.774  22.075  0.00  0.00    +0.000 A 
ATOM     11  C   UNL     1       0.323   9.761  22.619  0.00  0.00    +0.000 A 
ATOM     12  C   UNL     1       1.032   8.918  21.760  0.00  0.00    +0.000 A 
BRANCH  10  13
ATOM     13  N   UNL     1      -1.204  11.682  22.970  0.00  0.00    +0.000 N 
ATOM     14  O   UNL     1      -0.671  12.765  23.242  0.00  0.00    +0.000 OA
ATOM     15  O   UNL     1      -2.304  11.309  23.403  0.00  0.00    +0.000 OA
ENDBRANCH  10  13
ENDBRANCH   2   7
BRANCH   1  16
ATOM     16  C   UNL     1       1.764   6.206  20.992  0.00  0.00    +0.000 C 
BRANCH  16  18
ATOM     17  C   UNL     1       1.432   3.705  21.083  0.00  0.00    +0.000 C 
ATOM     18  C   UNL     1       1.134   4.906  20.566  0.00  0.00    +0.000 C 
ENDBRANCH  16  18
ENDBRANCH   1  16
BRANCH   6  19
ATOM     19  C   UNL     1       4.448   4.762  17.858  0.00  0.00    +0.000 C 
BRANCH  19  20
ATOM     20  P   UNL     1       6.175   5.190  18.368  0.00  0.00    +0.000 P 
ATOM     21  O   UNL     1       6.375   5.519  19.811  0.00  0.00    +0.000 OA
BRANCH  20  22
ATOM     22  O   UNL     1       7.092   3.989  17.827  0.00  0.00    +0.000 OA
ATOM     23  H   UNL     1       7.603   4.253  17.027  0.00  0.00    +0.000 HD
ENDBRANCH  20  22
BRANCH  20  24
ATOM     24  O   UNL     1       6.595   6.384  17.379  0.00  0.00    +0.000 OA
ATOM     25  H   UNL     1       5.925   6.508  16.677  0.00  0.00    +0.000 HD
ENDBRANCH  20  24
ENDBRANCH  19  20
BRANCH  19  26
ATOM     26  P   UNL     1       4.355   2.944  17.666  0.00  0.00    +0.000 P 
ATOM     27  O   UNL     1       4.552   2.716  19.172  0.00  0.00    +0.000 OA
BRANCH  26  28
ATOM     28  O   UNL     1       2.736   3.000  17.412  0.00  0.00    +0.000 OA
ATOM     29  H   UNL     1       2.419   2.480  16.649  0.00  0.00    +0.000 HD
ENDBRANCH  26  28
BRANCH  26  30
ATOM     30  O   UNL     1       4.268   1.226  17.485  0.00  0.00    +0.000 OA
ATOM     31  H   UNL     1       4.947   1.038  16.804  0.00  0.00    +0.000 HD
ENDBRANCH  26  30
ENDBRANCH  19  26
ENDBRANCH   6  19
TORSDOF 11
ENDMDL
MODEL 5
REMARK VINA RESULT:      -6.4      0.307      1.058
REMARK  Name = 
REMARK  11 active torsions:
REMARK  status: ('A' for Active; 'I' for Inactive)
REMARK    1  A    between atoms: C_2  and  C_3
REMARK    2  A    between atoms: C_3  and  N_4
REMARK    3  A    between atoms: C_5  and  C_6
REMARK    4  A    between atoms: C_9  and  N_10
REMARK    5  A    between atoms: N_18  and  C_19
REMARK    6  A    between atoms: C_19  and  P_20
REMARK    7  A    between atoms: C_19  and  P_24
REMARK    8  A    between atoms: P_20  and  O_22
REMARK    9  A    between atoms: P_20  and  O_23
REMARK   10  A    between atoms: P_24  and  O_26
REMARK   11  A    between atoms: P_24  and  O_27
REMARK                            x       y       z     vdW  Elec       q    Type
REMARK                         _______ _______ _______ _____ _____    ______ ____
ROOT
ATOM      1  N   UNL     1       1.517   8.301  19.779  0.00  0.00    +0.000 N 
ATOM      2  C   UNL     1       2.361   7.602  18.915  0.00  0.00    +0.000 A 
ATOM      3  C   UNL     1       2.728   8.267  17.808  0.00  0.00    +0.000 A 
ATOM      4  S   UNL     1       2.010   9.845  17.751  0.00  0.00    +0.000 S 
ATOM      5  C   UNL     1       1.177   9.565  19.313  0.00  0.00    +0.000 A 
ATOM      6  N   UNL     1       0.373  10.385  19.876  0.00  0.00    +0.000 NA
ENDROOT
BRANCH   2   7
ATOM      7  C   UNL     1       2.790   6.226  19.141  0.00  0.00    +0.000 A 
ATOM      8  C   UNL     1       4.140   5.926  19.372  0.00  0.00    +0.000 A 
ATOM      9  C   UNL     1       4.552   4.607  19.497  0.00  0.00    +0.000 A 
ATOM     10  C   UNL     1       3.610   3.573  19.395  0.00  0.00    +0.000 A 
ATOM     11  C   UNL     1       2.254   3.859  19.175  0.00  0.00    +0.000 A 
ATOM     12  C   UNL     1       1.849   5.189  19.052  0.00  0.00    +0.000 A 
BRANCH  10  13
ATOM     13  N   UNL     1       4.048   2.178  19.495  0.00  0.00    +0.000 N 
ATOM     14  O   UNL     1       3.553   1.362  18.706  0.00  0.00    +0.000 OA
ATOM     15  O   UNL     1       4.885   1.897  20.365  0.00  0.00    +0.000 OA
ENDBRANCH  10  13
ENDBRANCH   2   7
BRANCH   1  16
ATOM     16  C   UNL     1       1.048   7.832  21.079  0.00  0.00    +0.000 C 
BRANCH  16  18
ATOM     17  C   UNL     1       0.499   9.343  23.026  0.00  0.00    +0.000 C 
ATOM     18  C   UNL     1       1.378   8.845  22.143  0.00  0.00    +0.000 C 
ENDBRANCH  16  18
ENDBRANCH   1  16
BRANCH   6  19
ATOM     19  C   UNL     1       0.118  11.717  19.302  0.00  0.00    +0.000 C 
BRANCH  19  20
ATOM     20  P   UNL     1      -1.630  11.643  18.697  0.00  0.00    +0.000 P 
ATOM     21  O   UNL     1      -2.675  12.157  19.631  0.00  0.00    +0.000 OA
BRANCH  20  22
ATOM     22  O   UNL     1      -1.615  12.357  17.259  0.00  0.00    +0.000 OA
ATOM     23  H   UNL     1      -2.097  11.826  16.584  0.00  0.00    +0.000 HD
ENDBRANCH  20  22
BRANCH  20  24
ATOM     24  O   UNL     1      -1.842  10.105  18.288  0.00  0.00    +0.000 OA
ATOM     25  H   UNL     1      -1.091   9.556  18.592  0.00  0.00    +0.000 HD
ENDBRANCH  20  24
ENDBRANCH  19  20
BRANCH  19  26
ATOM     26  P   UNL     1       0.225  13.058  20.544  0.00  0.00    +0.000 P 
ATOM     27  O   UNL     1       1.740  13.208  20.337  0.00  0.00    +0.000 OA
BRANCH  26  28
ATOM     28  O   UNL     1      -0.490  14.128  19.528  0.00  0.00    +0.000 OA
ATOM     29  H   UNL     1      -0.273  14.009  18.583  0.00  0.00    +0.000 HD
ENDBRANCH  26  28
BRANCH  26  30
ATOM     30  O   UNL     1       0.327  14.325  21.717  0.00  0.00    +0.000 OA
ATOM     31  H   UNL     1       0.562  13.849  22.540  0.00  0.00    +0.000 HD
ENDBRANCH  26  30
ENDBRANCH  19  26
ENDBRANCH   6  19
TORSDOF 11
ENDMDL
MODEL 6
REMARK VINA RESULT:      -6.4      3.746      8.566
REMARK  Name = 
REMARK  11 active torsions:
REMARK  status: ('A' for Active; 'I' for Inactive)
REMARK    1  A    between atoms: C_2  and  C_3
REMARK    2  A    between atoms: C_3  and  N_4
REMARK    3  A    between atoms: C_5  and  C_6
REMARK    4  A    between atoms: C_9  and  N_10
REMARK    5  A    between atoms: N_18  and  C_19
REMARK    6  A    between atoms: C_19  and  P_20
REMARK    7  A    between atoms: C_19  and  P_24
REMARK    8  A    between atoms: P_20  and  O_22
REMARK    9  A    between atoms: P_20  and  O_23
REMARK   10  A    between atoms: P_24  and  O_26
REMARK   11  A    between atoms: P_24  and  O_27
REMARK                            x       y       z     vdW  Elec       q    Type
REMARK                         _______ _______ _______ _____ _____    ______ ____
ROOT
ATOM      1  N   UNL     1       2.170   7.210  19.840  0.00  0.00    +0.000 N 
ATOM      2  C   UNL     1       1.663   8.463  19.487  0.00  0.00    +0.000 A 
ATOM      3  C   UNL     1       2.041   8.915  18.281  0.00  0.00    +0.000 A 
ATOM      4  S   UNL     1       3.100   7.794  17.487  0.00  0.00    +0.000 S 
ATOM      5  C   UNL     1       3.012   6.667  18.877  0.00  0.00    +0.000 A 
ATOM      6  N   UNL     1       3.656   5.565  18.975  0.00  0.00    +0.000 NA
ENDROOT
BRANCH   2   7
ATOM      7  C   UNL     1       0.826   9.272  20.364  0.00  0.00    +0.000 A 
ATOM      8  C   UNL     1       0.053  10.322  19.848  0.00  0.00    +0.000 A 
ATOM      9  C   UNL     1      -0.672  11.143  20.699  0.00  0.00    +0.000 A 
ATOM     10  C   UNL     1      -0.629  10.918  22.083  0.00  0.00    +0.000 A 
ATOM     11  C   UNL     1       0.132   9.865  22.614  0.00  0.00    +0.000 A 
ATOM     12  C   UNL     1       0.856   9.043  21.748  0.00  0.00    +0.000 A 
BRANCH  10  13
ATOM     13  N   UNL     1      -1.367  11.803  22.988  0.00  0.00    +0.000 N 
ATOM     14  O   UNL     1      -2.449  11.399  23.433  0.00  0.00    +0.000 OA
ATOM     15  O   UNL     1      -0.865  12.906  23.250  0.00  0.00    +0.000 OA
ENDBRANCH  10  13
ENDBRANCH   2   7
BRANCH   1  16
ATOM     16  C   UNL     1       1.844   6.469  21.053  0.00  0.00    +0.000 C 
BRANCH  16  18
ATOM     17  C   UNL     1       1.692   3.952  21.170  0.00  0.00    +0.000 C 
ATOM     18  C   UNL     1       1.256   5.129  20.698  0.00  0.00    +0.000 C 
ENDBRANCH  16  18
ENDBRANCH   1  16
BRANCH   6  19
ATOM     19  C   UNL     1       4.494   5.073  17.869  0.00  0.00    +0.000 C 
BRANCH  19  20
ATOM     20  P   UNL     1       6.233   5.401  18.413  0.00  0.00    +0.000 P 
ATOM     21  O   UNL     1       6.483   5.364  19.885  0.00  0.00    +0.000 OA
BRANCH  20  22
ATOM     22  O   UNL     1       7.145   4.395  17.558  0.00  0.00    +0.000 OA
ATOM     23  H   UNL     1       7.622   4.862  16.833  0.00  0.00    +0.000 HD
ENDBRANCH  20  22
BRANCH  20  24
ATOM     24  O   UNL     1       6.598   6.813  17.741  0.00  0.00    +0.000 OA
ATOM     25  H   UNL     1       6.542   6.760  16.765  0.00  0.00    +0.000 HD
ENDBRANCH  20  24
ENDBRANCH  19  20
BRANCH  19  26
ATOM     26  P   UNL     1       4.323   3.271  17.595  0.00  0.00    +0.000 P 
ATOM     27  O   UNL     1       5.234   3.314  16.358  0.00  0.00    +0.000 OA
BRANCH  26  28
ATOM     28  O   UNL     1       5.291   2.930  18.873  0.00  0.00    +0.000 OA
ATOM     29  H   UNL     1       6.145   3.403  18.882  0.00  0.00    +0.000 HD
ENDBRANCH  26  28
BRANCH  26  30
ATOM     30  O   UNL     1       4.161   1.569  17.335  0.00  0.00    +0.000 OA
ATOM     31  H   UNL     1       3.804   1.245  18.188  0.00  0.00    +0.000 HD
ENDBRANCH  26  30
ENDBRANCH  19  26
ENDBRANCH   6  19
TORSDOF 11
ENDMDL
MODEL 7
REMARK VINA RESULT:      -6.4      0.807      1.449
REMARK  Name = 
REMARK  11 active torsions:
REMARK  status: ('A' for Active; 'I' for Inactive)
REMARK    1  A    between atoms: C_2  and  C_3
REMARK    2  A    between atoms: C_3  and  N_4
REMARK    3  A    between atoms: C_5  and  C_6
REMARK    4  A    between atoms: C_9  and  N_10
REMARK    5  A    between atoms: N_18  and  C_19
REMARK    6  A    between atoms: C_19  and  P_20
REMARK    7  A    between atoms: C_19  and  P_24
REMARK    8  A    between atoms: P_20  and  O_22
REMARK    9  A    between atoms: P_20  and  O_23
REMARK   10  A    between atoms: P_24  and  O_26
REMARK   11  A    between atoms: P_24  and  O_27
REMARK                            x       y       z     vdW  Elec       q    Type
REMARK                         _______ _______ _______ _____ _____    ______ ____
ROOT
ATOM      1  N   UNL     1       1.732   8.420  19.722  0.00  0.00    +0.000 N 
ATOM      2  C   UNL     1       2.403   7.743  18.702  0.00  0.00    +0.000 A 
ATOM      3  C   UNL     1       2.645   8.465  17.596  0.00  0.00    +0.000 A 
ATOM      4  S   UNL     1       2.018  10.076  17.743  0.00  0.00    +0.000 S 
ATOM      5  C   UNL     1       1.403   9.728  19.389  0.00  0.00    +0.000 A 
ATOM      6  N   UNL     1       0.735  10.545  20.113  0.00  0.00    +0.000 NA
ENDROOT
BRANCH   2   7
ATOM      7  C   UNL     1       2.780   6.336  18.777  0.00  0.00    +0.000 A 
ATOM      8  C   UNL     1       1.851   5.329  18.481  0.00  0.00    +0.000 A 
ATOM      9  C   UNL     1       2.190   3.993  18.640  0.00  0.00    +0.000 A 
ATOM     10  C   UNL     1       3.472   3.653  19.098  0.00  0.00    +0.000 A 
ATOM     11  C   UNL     1       4.416   4.650  19.388  0.00  0.00    +0.000 A 
ATOM     12  C   UNL     1       4.065   5.991  19.223  0.00  0.00    +0.000 A 
BRANCH  10  13
ATOM     13  N   UNL     1       3.823   2.245  19.299  0.00  0.00    +0.000 N 
ATOM     14  O   UNL     1       3.224   1.401  18.620  0.00  0.00    +0.000 OA
ATOM     15  O   UNL     1       4.697   1.983  20.137  0.00  0.00    +0.000 OA
ENDBRANCH  10  13
ENDBRANCH   2   7
BRANCH   1  16
ATOM     16  C   UNL     1       1.428   7.885  21.045  0.00  0.00    +0.000 C 
BRANCH  16  18
ATOM     17  C   UNL     1      -0.482   8.686  22.488  0.00  0.00    +0.000 C 
ATOM     18  C   UNL     1      -0.026   8.104  21.369  0.00  0.00    +0.000 C 
ENDBRANCH  16  18
ENDBRANCH   1  16
BRANCH   6  19
ATOM     19  C   UNL     1       0.478  11.924  19.667  0.00  0.00    +0.000 C 
BRANCH  19  20
ATOM     20  P   UNL     1      -1.265  11.900  19.042  0.00  0.00    +0.000 P 
ATOM     21  O   UNL     1      -1.893  10.553  18.890  0.00  0.00    +0.000 OA
BRANCH  20  22
ATOM     22  O   UNL     1      -2.074  12.907  19.994  0.00  0.00    +0.000 OA
ATOM     23  H   UNL     1      -2.057  12.614  20.934  0.00  0.00    +0.000 HD
ENDBRANCH  20  22
BRANCH  20  24
ATOM     24  O   UNL     1      -1.205  12.733  17.671  0.00  0.00    +0.000 OA
ATOM     25  H   UNL     1      -0.504  12.386  17.082  0.00  0.00    +0.000 HD
ENDBRANCH  20  24
ENDBRANCH  19  20
BRANCH  19  26
ATOM     26  P   UNL     1       0.568  13.141  21.031  0.00  0.00    +0.000 P 
ATOM     27  O   UNL     1      -0.006  12.138  22.043  0.00  0.00    +0.000 OA
BRANCH  26  28
ATOM     28  O   UNL     1       2.200  13.005  21.116  0.00  0.00    +0.000 OA
ATOM     29  H   UNL     1       2.662  13.792  21.462  0.00  0.00    +0.000 HD
ENDBRANCH  26  28
BRANCH  26  30
ATOM     30  O   UNL     1       0.653  14.292  22.320  0.00  0.00    +0.000 OA
ATOM     31  H   UNL     1       0.781  13.730  23.112  0.00  0.00    +0.000 HD
ENDBRANCH  26  30
ENDBRANCH  19  26
ENDBRANCH   6  19
TORSDOF 11
ENDMDL
MODEL 8
REMARK VINA RESULT:      -6.4      1.132      1.562
REMARK  Name = 
REMARK  11 active torsions:
REMARK  status: ('A' for Active; 'I' for Inactive)
REMARK    1  A    between atoms: C_2  and  C_3
REMARK    2  A    between atoms: C_3  and  N_4
REMARK    3  A    between atoms: C_5  and  C_6
REMARK    4  A    between atoms: C_9  and  N_10
REMARK    5  A    between atoms: N_18  and  C_19
REMARK    6  A    between atoms: C_19  and  P_20
REMARK    7  A    between atoms: C_19  and  P_24
REMARK    8  A    between atoms: P_20  and  O_22
REMARK    9  A    between atoms: P_20  and  O_23
REMARK   10  A    between atoms: P_24  and  O_26
REMARK   11  A    between atoms: P_24  and  O_27
REMARK                            x       y       z     vdW  Elec       q    Type
REMARK                         _______ _______ _______ _____ _____    ______ ____
ROOT
ATOM      1  N   UNL     1       1.516   8.896  20.015  0.00  0.00    +0.000 N 
ATOM      2  C   UNL     1       2.005   8.077  18.995  0.00  0.00    +0.000 A 
ATOM      3  C   UNL     1       2.232   8.692  17.824  0.00  0.00    +0.000 A 
ATOM      4  S   UNL     1       1.821  10.376  17.904  0.00  0.00    +0.000 S 
ATOM      5  C   UNL     1       1.318  10.212  19.616  0.00  0.00    +0.000 A 
ATOM      6  N   UNL     1       0.823  11.150  20.331  0.00  0.00    +0.000 NA
ENDROOT
BRANCH   2   7
ATOM      7  C   UNL     1       2.213   6.641  19.141  0.00  0.00    +0.000 A 
ATOM      8  C   UNL     1       2.053   6.017  20.386  0.00  0.00    +0.000 A 
ATOM      9  C   UNL     1       2.339   4.668  20.536  0.00  0.00    +0.000 A 
ATOM     10  C   UNL     1       2.788   3.928  19.433  0.00  0.00    +0.000 A 
ATOM     11  C   UNL     1       2.944   4.536  18.178  0.00  0.00    +0.000 A 
ATOM     12  C   UNL     1       2.652   5.894  18.037  0.00  0.00    +0.000 A 
BRANCH  10  13
ATOM     13  N   UNL     1       3.123   2.510  19.596  0.00  0.00    +0.000 N 
ATOM     14  O   UNL     1       2.348   1.677  19.107  0.00  0.00    +0.000 OA
ATOM     15  O   UNL     1       4.160   2.230  20.215  0.00  0.00    +0.000 OA
ENDBRANCH  10  13
ENDBRANCH   2   7
BRANCH   1  16
ATOM     16  C   UNL     1       1.269   8.487  21.393  0.00  0.00    +0.000 C 
BRANCH  16  18
ATOM     17  C   UNL     1      -0.659   9.282  22.816  0.00  0.00    +0.000 C 
ATOM     18  C   UNL     1      -0.190   8.652  21.728  0.00  0.00    +0.000 C 
ENDBRANCH  16  18
ENDBRANCH   1  16
BRANCH   6  19
ATOM     19  C   UNL     1       0.695  12.520  19.808  0.00  0.00    +0.000 C 
BRANCH  19  20
ATOM     20  P   UNL     1      -1.053  12.637  19.212  0.00  0.00    +0.000 P 
ATOM     21  O   UNL     1      -1.926  11.458  19.492  0.00  0.00    +0.000 OA
BRANCH  20  22
ATOM     22  O   UNL     1      -1.609  14.028  19.786  0.00  0.00    +0.000 OA
ATOM     23  H   UNL     1      -2.547  14.181  19.525  0.00  0.00    +0.000 HD
ENDBRANCH  20  22
BRANCH  20  24
ATOM     24  O   UNL     1      -0.916  12.969  17.646  0.00  0.00    +0.000 OA
ATOM     25  H   UNL     1      -1.285  13.853  17.444  0.00  0.00    +0.000 HD
ENDBRANCH  20  24
ENDBRANCH  19  20
BRANCH  19  26
ATOM     26  P   UNL     1       0.935  13.798  21.097  0.00  0.00    +0.000 P 
ATOM     27  O   UNL     1       0.101  13.008  22.118  0.00  0.00    +0.000 OA
BRANCH  26  28
ATOM     28  O   UNL     1       2.495  13.351  21.327  0.00  0.00    +0.000 OA
ATOM     29  H   UNL     1       2.908  13.697  22.141  0.00  0.00    +0.000 HD
ENDBRANCH  26  28
BRANCH  26  30
ATOM     30  O   UNL     1       1.160  15.006  22.315  0.00  0.00    +0.000 OA
ATOM     31  H   UNL     1       0.335  14.949  22.841  0.00  0.00    +0.000 HD
ENDBRANCH  26  30
ENDBRANCH  19  26
ENDBRANCH   6  19
TORSDOF 11
ENDMDL
MODEL 9
REMARK VINA RESULT:      -6.4      1.561      3.435
REMARK  Name = 
REMARK  11 active torsions:
REMARK  status: ('A' for Active; 'I' for Inactive)
REMARK    1  A    between atoms: C_2  and  C_3
REMARK    2  A    between atoms: C_3  and  N_4
REMARK    3  A    between atoms: C_5  and  C_6
REMARK    4  A    between atoms: C_9  and  N_10
REMARK    5  A    between atoms: N_18  and  C_19
REMARK    6  A    between atoms: C_19  and  P_20
REMARK    7  A    between atoms: C_19  and  P_24
REMARK    8  A    between atoms: P_20  and  O_22
REMARK    9  A    between atoms: P_20  and  O_23
REMARK   10  A    between atoms: P_24  and  O_26
REMARK   11  A    between atoms: P_24  and  O_27
REMARK                            x       y       z     vdW  Elec       q    Type
REMARK                         _______ _______ _______ _____ _____    ______ ____
ROOT
ATOM      1  N   UNL     1       1.855   7.977  18.979  0.00  0.00    +0.000 N 
ATOM      2  C   UNL     1       1.923   7.008  19.982  0.00  0.00    +0.000 A 
ATOM      3  C   UNL     1       1.460   7.391  21.183  0.00  0.00    +0.000 A 
ATOM      4  S   UNL     1       0.913   9.037  21.154  0.00  0.00    +0.000 S 
ATOM      5  C   UNL     1       1.344   9.191  19.422  0.00  0.00    +0.000 A 
ATOM      6  N   UNL     1       1.232  10.260  18.727  0.00  0.00    +0.000 NA
ENDROOT
BRANCH   2   7
ATOM      7  C   UNL     1       2.500   5.683  19.788  0.00  0.00    +0.000 A 
ATOM      8  C   UNL     1       1.682   4.544  19.752  0.00  0.00    +0.000 A 
ATOM      9  C   UNL     1       2.246   3.280  19.656  0.00  0.00    +0.000 A 
ATOM     10  C   UNL     1       3.640   3.145  19.592  0.00  0.00    +0.000 A 
ATOM     11  C   UNL     1       4.471   4.276  19.615  0.00  0.00    +0.000 A 
ATOM     12  C   UNL     1       3.894   5.544  19.711  0.00  0.00    +0.000 A 
BRANCH  10  13
ATOM     13  N   UNL     1       4.240   1.810  19.523  0.00  0.00    +0.000 N 
ATOM     14  O   UNL     1       3.846   1.048  18.631  0.00  0.00    +0.000 OA
ATOM     15  O   UNL     1       5.104   1.522  20.364  0.00  0.00    +0.000 OA
ENDBRANCH  10  13
ENDBRANCH   2   7
BRANCH   1  16
ATOM     16  C   UNL     1       2.215   7.782  17.579  0.00  0.00    +0.000 C 
BRANCH  16  18
ATOM     17  C   UNL     1       4.469   7.059  16.701  0.00  0.00    +0.000 C 
ATOM     18  C   UNL     1       3.705   7.907  17.406  0.00  0.00    +0.000 C 
ENDBRANCH  16  18
ENDBRANCH   1  16
BRANCH   6  19
ATOM     19  C   UNL     1       0.640  11.481  19.298  0.00  0.00    +0.000 C 
BRANCH  19  20
ATOM     20  P   UNL     1       1.837  12.828  18.877  0.00  0.00    +0.000 P 
ATOM     21  O   UNL     1       2.748  13.269  19.976  0.00  0.00    +0.000 OA
BRANCH  20  22
ATOM     22  O   UNL     1       2.590  12.332  17.549  0.00  0.00    +0.000 OA
ATOM     23  H   UNL     1       2.144  12.659  16.734  0.00  0.00    +0.000 HD
ENDBRANCH  20  22
BRANCH  20  24
ATOM     24  O   UNL     1       0.917  14.010  18.301  0.00  0.00    +0.000 OA
ATOM     25  H   UNL     1      -0.021  13.731  18.254  0.00  0.00    +0.000 HD
ENDBRANCH  20  24
ENDBRANCH  19  20
BRANCH  19  26
ATOM     26  P   UNL     1      -0.972  11.908  18.543  0.00  0.00    +0.000 P 
ATOM     27  O   UNL     1      -1.577  10.546  18.922  0.00  0.00    +0.000 OA
BRANCH  26  28
ATOM     28  O   UNL     1      -1.335  12.934  19.770  0.00  0.00    +0.000 OA
ATOM     29  H   UNL     1      -2.179  13.416  19.670  0.00  0.00    +0.000 HD
ENDBRANCH  26  28
BRANCH  26  30
ATOM     30  O   UNL     1      -2.496  12.311  17.830  0.00  0.00    +0.000 OA
ATOM     31  H   UNL     1      -2.932  11.439  17.728  0.00  0.00    +0.000 HD
ENDBRANCH  26  30
ENDBRANCH  19  26
ENDBRANCH   6  19
TORSDOF 11
ENDMDL
