MODEL 1
REMARK VINA RESULT:      -8.1      0.000      0.000
REMARK  Name = 
REMARK  4 active torsions:
REMARK  status: ('A' for Active; 'I' for Inactive)
REMARK    1  A    between atoms: N_3  and  C_4
REMARK    2  A    between atoms: C_7  and  C_8
REMARK    3  A    between atoms: N_14  and  C_15
REMARK    4  A    between atoms: C_18  and  C_19
REMARK                            x       y       z     vdW  Elec       q    Type
REMARK                         _______ _______ _______ _____ _____    ______ ____
ROOT
ATOM      1  O   UNL     1       7.822   9.434  17.651  0.00  0.00    +0.000 OA
ATOM      2  C   UNL     1       8.597   8.968  18.475  0.00  0.00    +0.000 C 
ATOM      3  N   UNL     1       8.551   7.657  18.908  0.00  0.00    +0.000 N 
ATOM      4  N   UNL     1       9.586   9.697  19.108  0.00  0.00    +0.000 N 
ATOM      5  H   UNL     1       9.094   7.423  19.725  0.00  0.00    +0.000 HD
ATOM      6  H   UNL     1      10.081   9.279  19.884  0.00  0.00    +0.000 HD
ENDROOT
BRANCH   4   7
ATOM      7  C   UNL     1       9.770  11.096  18.957  0.00  0.00    +0.000 A 
ATOM      8  C   UNL     1      10.372  11.665  17.831  0.00  0.00    +0.000 A 
ATOM      9  C   UNL     1      10.446  13.052  17.677  0.00  0.00    +0.000 A 
ATOM     10  C   UNL     1       9.919  13.905  18.652  0.00  0.00    +0.000 A 
ATOM     11  C   UNL     1       9.363  13.337  19.809  0.00  0.00    +0.000 A 
ATOM     12  C   UNL     1       9.301  11.951  19.955  0.00  0.00    +0.000 A 
ATOM     13  F   UNL     1       8.733  11.439  21.060  0.00  0.00    +0.000 F 
BRANCH  10  14
ATOM     14  C   UNL     1       9.973  15.402  18.448  0.00  0.00    +0.000 C 
ATOM     15  C   UNL     1      10.606  15.757  17.080  0.00  0.00    +0.000 C 
ATOM     16  N   UNL     1      10.781  17.213  16.887  0.00  0.00    +0.000 NA
ATOM     17  C   UNL     1      11.526  17.743  18.044  0.00  0.00    +0.000 C 
ATOM     18  C   UNL     1      10.854  17.393  19.378  0.00  0.00    +0.000 C 
ATOM     19  O   UNL     1      10.719  15.979  19.534  0.00  0.00    +0.000 OA
ATOM     20  H   UNL     1       9.859  17.650  16.867  0.00  0.00    +0.000 HD
ENDBRANCH  10  14
ENDBRANCH   4   7
BRANCH   3  21
ATOM     21  C   UNL     1       7.600   6.701  18.468  0.00  0.00    +0.000 A 
ATOM     22  C   UNL     1       7.053   6.678  17.187  0.00  0.00    +0.000 A 
ATOM     23  C   UNL     1       6.086   5.730  16.850  0.00  0.00    +0.000 A 
ATOM     24  C   UNL     1       5.681   4.799  17.803  0.00  0.00    +0.000 A 
ATOM     25  N   UNL     1       6.228   4.781  19.054  0.00  0.00    +0.000 NA
ATOM     26  C   UNL     1       7.166   5.718  19.347  0.00  0.00    +0.000 A 
BRANCH  24  27
ATOM     27  C   UNL     1       4.612   3.775  17.443  0.00  0.00    +0.000 C 
ATOM     28  F   UNL     1       4.357   2.882  18.448  0.00  0.00    +0.000 F 
ATOM     29  F   UNL     1       3.407   4.343  17.154  0.00  0.00    +0.000 F 
ATOM     30  F   UNL     1       4.942   3.013  16.361  0.00  0.00    +0.000 F 
ENDBRANCH  24  27
ENDBRANCH   3  21
TORSDOF 4
ENDMDL
MODEL 2
REMARK VINA RESULT:      -8.0      9.206     10.654
REMARK  Name = 
REMARK  4 active torsions:
REMARK  status: ('A' for Active; 'I' for Inactive)
REMARK    1  A    between atoms: N_3  and  C_4
REMARK    2  A    between atoms: C_7  and  C_8
REMARK    3  A    between atoms: N_14  and  C_15
REMARK    4  A    between atoms: C_18  and  C_19
REMARK                            x       y       z     vdW  Elec       q    Type
REMARK                         _______ _______ _______ _____ _____    ______ ____
ROOT
ATOM      1  O   UNL     1      -0.237   7.928  20.557  0.00  0.00    +0.000 OA
ATOM      2  C   UNL     1       0.863   8.402  20.808  0.00  0.00    +0.000 C 
ATOM      3  N   UNL     1       2.047   7.707  20.649  0.00  0.00    +0.000 N 
ATOM      4  N   UNL     1       1.062   9.670  21.322  0.00  0.00    +0.000 N 
ATOM      5  H   UNL     1       2.873   8.104  21.067  0.00  0.00    +0.000 HD
ATOM      6  H   UNL     1       1.985   9.927  21.645  0.00  0.00    +0.000 HD
ENDROOT
BRANCH   4   7
ATOM      7  C   UNL     1       0.019  10.548  21.712  0.00  0.00    +0.000 A 
ATOM      8  C   UNL     1      -0.485  11.548  20.874  0.00  0.00    +0.000 A 
ATOM      9  C   UNL     1      -1.578  12.328  21.261  0.00  0.00    +0.000 A 
ATOM     10  C   UNL     1      -2.193  12.126  22.500  0.00  0.00    +0.000 A 
ATOM     11  C   UNL     1      -1.656  11.161  23.366  0.00  0.00    +0.000 A 
ATOM     12  C   UNL     1      -0.560  10.392  22.973  0.00  0.00    +0.000 A 
ATOM     13  F   UNL     1      -0.090   9.454  23.811  0.00  0.00    +0.000 F 
BRANCH  10  14
ATOM     14  C   UNL     1      -3.401  12.953  22.882  0.00  0.00    +0.000 C 
ATOM     15  C   UNL     1      -3.939  12.544  24.276  0.00  0.00    +0.000 C 
ATOM     16  N   UNL     1      -5.186  13.250  24.640  0.00  0.00    +0.000 NA
ATOM     17  C   UNL     1      -6.158  13.059  23.547  0.00  0.00    +0.000 C 
ATOM     18  C   UNL     1      -5.597  13.499  22.189  0.00  0.00    +0.000 C 
ATOM     19  O   UNL     1      -4.403  12.783  21.865  0.00  0.00    +0.000 OA
ATOM     20  H   UNL     1      -4.983  14.246  24.723  0.00  0.00    +0.000 HD
ENDBRANCH  10  14
ENDBRANCH   4   7
BRANCH   3  21
ATOM     21  C   UNL     1       2.132   6.367  20.192  0.00  0.00    +0.000 A 
ATOM     22  C   UNL     1       1.794   5.257  20.963  0.00  0.00    +0.000 A 
ATOM     23  C   UNL     1       1.953   3.968  20.452  0.00  0.00    +0.000 A 
ATOM     24  C   UNL     1       2.444   3.802  19.158  0.00  0.00    +0.000 A 
ATOM     25  N   UNL     1       2.751   4.876  18.373  0.00  0.00    +0.000 NA
ATOM     26  C   UNL     1       2.582   6.115  18.904  0.00  0.00    +0.000 A 
BRANCH  24  27
ATOM     27  C   UNL     1       2.636   2.396  18.605  0.00  0.00    +0.000 C 
ATOM     28  F   UNL     1       2.319   2.287  17.279  0.00  0.00    +0.000 F 
ATOM     29  F   UNL     1       3.923   1.957  18.703  0.00  0.00    +0.000 F 
ATOM     30  F   UNL     1       1.868   1.462  19.236  0.00  0.00    +0.000 F 
ENDBRANCH  24  27
ENDBRANCH   3  21
TORSDOF 4
ENDMDL
MODEL 3
REMARK VINA RESULT:      -7.9      9.200     10.543
REMARK  Name = 
REMARK  4 active torsions:
REMARK  status: ('A' for Active; 'I' for Inactive)
REMARK    1  A    between atoms: N_3  and  C_4
REMARK    2  A    between atoms: C_7  and  C_8
REMARK    3  A    between atoms: N_14  and  C_15
REMARK    4  A    between atoms: C_18  and  C_19
REMARK                            x       y       z     vdW  Elec       q    Type
REMARK                         _______ _______ _______ _____ _____    ______ ____
ROOT
ATOM      1  O   UNL     1      -0.214   8.183  20.370  0.00  0.00    +0.000 OA
ATOM      2  C   UNL     1       0.892   8.558  20.735  0.00  0.00    +0.000 C 
ATOM      3  N   UNL     1       2.041   7.806  20.578  0.00  0.00    +0.000 N 
ATOM      4  N   UNL     1       1.130   9.753  21.387  0.00  0.00    +0.000 N 
ATOM      5  H   UNL     1       2.860   8.107  21.083  0.00  0.00    +0.000 HD
ATOM      6  H   UNL     1       2.042   9.917  21.790  0.00  0.00    +0.000 HD
ENDROOT
BRANCH   4   7
ATOM      7  C   UNL     1       0.115  10.653  21.802  0.00  0.00    +0.000 A 
ATOM      8  C   UNL     1      -0.245  11.784  21.062  0.00  0.00    +0.000 A 
ATOM      9  C   UNL     1      -1.315  12.592  21.456  0.00  0.00    +0.000 A 
ATOM     10  C   UNL     1      -2.051  12.287  22.605  0.00  0.00    +0.000 A 
ATOM     11  C   UNL     1      -1.658  11.185  23.380  0.00  0.00    +0.000 A 
ATOM     12  C   UNL     1      -0.583  10.389  22.981  0.00  0.00    +0.000 A 
ATOM     13  F   UNL     1      -0.253   9.322  23.727  0.00  0.00    +0.000 F 
BRANCH  10  14
ATOM     14  C   UNL     1      -3.231  13.150  22.992  0.00  0.00    +0.000 C 
ATOM     15  C   UNL     1      -3.992  12.548  24.199  0.00  0.00    +0.000 C 
ATOM     16  N   UNL     1      -5.218  13.301  24.539  0.00  0.00    +0.000 NA
ATOM     17  C   UNL     1      -6.038  13.420  23.319  0.00  0.00    +0.000 C 
ATOM     18  C   UNL     1      -5.257  14.044  22.155  0.00  0.00    +0.000 C 
ATOM     19  O   UNL     1      -4.089  13.280  21.846  0.00  0.00    +0.000 OA
ATOM     20  H   UNL     1      -4.951  14.237  24.843  0.00  0.00    +0.000 HD
ENDBRANCH  10  14
ENDBRANCH   4   7
BRANCH   3  21
ATOM     21  C   UNL     1       2.079   6.515  19.992  0.00  0.00    +0.000 A 
ATOM     22  C   UNL     1       2.399   6.273  18.658  0.00  0.00    +0.000 A 
ATOM     23  C   UNL     1       2.367   4.974  18.149  0.00  0.00    +0.000 A 
ATOM     24  C   UNL     1       2.023   3.919  18.992  0.00  0.00    +0.000 A 
ATOM     25  N   UNL     1       1.738   4.129  20.311  0.00  0.00    +0.000 NA
ATOM     26  C   UNL     1       1.780   5.406  20.770  0.00  0.00    +0.000 A 
BRANCH  24  27
ATOM     27  C   UNL     1       1.969   2.503  18.435  0.00  0.00    +0.000 C 
ATOM     28  F   UNL     1       2.334   2.425  17.118  0.00  0.00    +0.000 F 
ATOM     29  F   UNL     1       2.800   1.641  19.088  0.00  0.00    +0.000 F 
ATOM     30  F   UNL     1       0.724   1.949  18.496  0.00  0.00    +0.000 F 
ENDBRANCH  24  27
ENDBRANCH   3  21
TORSDOF 4
ENDMDL
MODEL 4
REMARK VINA RESULT:      -7.9      0.859      1.013
REMARK  Name = 
REMARK  4 active torsions:
REMARK  status: ('A' for Active; 'I' for Inactive)
REMARK    1  A    between atoms: N_3  and  C_4
REMARK    2  A    between atoms: C_7  and  C_8
REMARK    3  A    between atoms: N_14  and  C_15
REMARK    4  A    between atoms: C_18  and  C_19
REMARK                            x       y       z     vdW  Elec       q    Type
REMARK                         _______ _______ _______ _____ _____    ______ ____
ROOT
ATOM      1  O   UNL     1       7.629   9.210  17.676  0.00  0.00    +0.000 OA
ATOM      2  C   UNL     1       8.399   8.655  18.450  0.00  0.00    +0.000 C 
ATOM      3  N   UNL     1       8.323   7.312  18.766  0.00  0.00    +0.000 N 
ATOM      4  N   UNL     1       9.409   9.302  19.136  0.00  0.00    +0.000 N 
ATOM      5  H   UNL     1       8.866   6.994  19.554  0.00  0.00    +0.000 HD
ATOM      6  H   UNL     1       9.899   8.806  19.868  0.00  0.00    +0.000 HD
ENDROOT
BRANCH   4   7
ATOM      7  C   UNL     1       9.625  10.704  19.107  0.00  0.00    +0.000 A 
ATOM      8  C   UNL     1      10.067  11.380  17.966  0.00  0.00    +0.000 A 
ATOM      9  C   UNL     1      10.175  12.773  17.951  0.00  0.00    +0.000 A 
ATOM     10  C   UNL     1       9.843  13.525  19.083  0.00  0.00    +0.000 A 
ATOM     11  C   UNL     1       9.452  12.845  20.247  0.00  0.00    +0.000 A 
ATOM     12  C   UNL     1       9.355  11.453  20.253  0.00  0.00    +0.000 A 
ATOM     13  F   UNL     1       8.946  10.835  21.373  0.00  0.00    +0.000 F 
BRANCH  10  14
ATOM     14  C   UNL     1       9.927  15.034  19.034  0.00  0.00    +0.000 C 
ATOM     15  C   UNL     1       8.918  15.616  18.013  0.00  0.00    +0.000 C 
ATOM     16  N   UNL     1       9.045  17.080  17.851  0.00  0.00    +0.000 NA
ATOM     17  C   UNL     1      10.453  17.388  17.538  0.00  0.00    +0.000 C 
ATOM     18  C   UNL     1      11.418  16.818  18.585  0.00  0.00    +0.000 C 
ATOM     19  O   UNL     1      11.277  15.400  18.700  0.00  0.00    +0.000 OA
ATOM     20  H   UNL     1       8.804  17.527  18.736  0.00  0.00    +0.000 HD
ENDBRANCH  10  14
ENDBRANCH   4   7
BRANCH   3  21
ATOM     21  C   UNL     1       7.347   6.422  18.251  0.00  0.00    +0.000 A 
ATOM     22  C   UNL     1       7.169   6.159  16.895  0.00  0.00    +0.000 A 
ATOM     23  C   UNL     1       6.151   5.304  16.469  0.00  0.00    +0.000 A 
ATOM     24  C   UNL     1       5.322   4.706  17.416  0.00  0.00    +0.000 A 
ATOM     25  N   UNL     1       5.499   4.923  18.752  0.00  0.00    +0.000 NA
ATOM     26  C   UNL     1       6.499   5.760  19.129  0.00  0.00    +0.000 A 
BRANCH  24  27
ATOM     27  C   UNL     1       4.199   3.787  16.953  0.00  0.00    +0.000 C 
ATOM     28  F   UNL     1       2.962   4.184  17.382  0.00  0.00    +0.000 F 
ATOM     29  F   UNL     1       4.099   3.711  15.595  0.00  0.00    +0.000 F 
ATOM     30  F   UNL     1       4.338   2.504  17.395  0.00  0.00    +0.000 F 
ENDBRANCH  24  27
ENDBRANCH   3  21
TORSDOF 4
ENDMDL
MODEL 5
REMARK VINA RESULT:      -7.9      7.595     10.571
REMARK  Name = 
REMARK  4 active torsions:
REMARK  status: ('A' for Active; 'I' for Inactive)
REMARK    1  A    between atoms: N_3  and  C_4
REMARK    2  A    between atoms: C_7  and  C_8
REMARK    3  A    between atoms: N_14  and  C_15
REMARK    4  A    between atoms: C_18  and  C_19
REMARK                            x       y       z     vdW  Elec       q    Type
REMARK                         _______ _______ _______ _____ _____    ______ ____
ROOT
ATOM      1  O   UNL     1       1.684   8.275  19.142  0.00  0.00    +0.000 OA
ATOM      2  C   UNL     1       1.869   7.570  20.126  0.00  0.00    +0.000 C 
ATOM      3  N   UNL     1       1.353   7.858  21.376  0.00  0.00    +0.000 N 
ATOM      4  N   UNL     1       2.645   6.427  20.127  0.00  0.00    +0.000 N 
ATOM      5  H   UNL     1       1.720   7.336  22.156  0.00  0.00    +0.000 HD
ATOM      6  H   UNL     1       2.872   5.991  21.011  0.00  0.00    +0.000 HD
ENDROOT
BRANCH   4   7
ATOM      7  C   UNL     1       3.405   5.975  19.018  0.00  0.00    +0.000 A 
ATOM      8  C   UNL     1       3.950   6.844  18.067  0.00  0.00    +0.000 A 
ATOM      9  C   UNL     1       4.772   6.366  17.043  0.00  0.00    +0.000 A 
ATOM     10  C   UNL     1       5.067   5.002  16.945  0.00  0.00    +0.000 A 
ATOM     11  C   UNL     1       4.477   4.122  17.865  0.00  0.00    +0.000 A 
ATOM     12  C   UNL     1       3.652   4.609  18.879  0.00  0.00    +0.000 A 
ATOM     13  F   UNL     1       3.129   3.743  19.764  0.00  0.00    +0.000 F 
BRANCH  10  14
ATOM     14  C   UNL     1       5.992   4.511  15.855  0.00  0.00    +0.000 C 
ATOM     15  C   UNL     1       7.077   5.567  15.524  0.00  0.00    +0.000 C 
ATOM     16  N   UNL     1       7.934   5.173  14.385  0.00  0.00    +0.000 NA
ATOM     17  C   UNL     1       7.060   4.841  13.245  0.00  0.00    +0.000 C 
ATOM     18  C   UNL     1       6.017   3.774  13.605  0.00  0.00    +0.000 C 
ATOM     19  O   UNL     1       5.199   4.198  14.697  0.00  0.00    +0.000 OA
ATOM     20  H   UNL     1       8.457   4.338  14.647  0.00  0.00    +0.000 HD
ENDBRANCH  10  14
ENDBRANCH   4   7
BRANCH   3  21
ATOM     21  C   UNL     1       0.567   9.000  21.674  0.00  0.00    +0.000 A 
ATOM     22  C   UNL     1      -0.036   9.805  20.710  0.00  0.00    +0.000 A 
ATOM     23  C   UNL     1      -0.755  10.940  21.088  0.00  0.00    +0.000 A 
ATOM     24  C   UNL     1      -0.874  11.254  22.441  0.00  0.00    +0.000 A 
ATOM     25  N   UNL     1      -0.319  10.461  23.404  0.00  0.00    +0.000 NA
ATOM     26  C   UNL     1       0.373   9.366  22.999  0.00  0.00    +0.000 A 
BRANCH  24  27
ATOM     27  C   UNL     1      -1.642  12.502  22.855  0.00  0.00    +0.000 C 
ATOM     28  F   UNL     1      -0.909  13.356  23.633  0.00  0.00    +0.000 F 
ATOM     29  F   UNL     1      -2.055  13.250  21.792  0.00  0.00    +0.000 F 
ATOM     30  F   UNL     1      -2.762  12.226  23.582  0.00  0.00    +0.000 F 
ENDBRANCH  24  27
ENDBRANCH   3  21
TORSDOF 4
ENDMDL
MODEL 6
REMARK VINA RESULT:      -7.9      1.202      1.743
REMARK  Name = 
REMARK  4 active torsions:
REMARK  status: ('A' for Active; 'I' for Inactive)
REMARK    1  A    between atoms: N_3  and  C_4
REMARK    2  A    between atoms: C_7  and  C_8
REMARK    3  A    between atoms: N_14  and  C_15
REMARK    4  A    between atoms: C_18  and  C_19
REMARK                            x       y       z     vdW  Elec       q    Type
REMARK                         _______ _______ _______ _____ _____    ______ ____
ROOT
ATOM      1  O   UNL     1       7.789   9.521  17.888  0.00  0.00    +0.000 OA
ATOM      2  C   UNL     1       8.589   9.016  18.665  0.00  0.00    +0.000 C 
ATOM      3  N   UNL     1       8.614   7.667  18.963  0.00  0.00    +0.000 N 
ATOM      4  N   UNL     1       9.538   9.730  19.373  0.00  0.00    +0.000 N 
ATOM      5  H   UNL     1       9.169   7.381  19.754  0.00  0.00    +0.000 HD
ATOM      6  H   UNL     1      10.055   9.262  20.105  0.00  0.00    +0.000 HD
ENDROOT
BRANCH   4   7
ATOM      7  C   UNL     1       9.645  11.144  19.365  0.00  0.00    +0.000 A 
ATOM      8  C   UNL     1       9.201  11.944  20.423  0.00  0.00    +0.000 A 
ATOM      9  C   UNL     1       9.413  13.325  20.418  0.00  0.00    +0.000 A 
ATOM     10  C   UNL     1      10.074  13.941  19.350  0.00  0.00    +0.000 A 
ATOM     11  C   UNL     1      10.471  13.148  18.262  0.00  0.00    +0.000 A 
ATOM     12  C   UNL     1      10.249  11.771  18.274  0.00  0.00    +0.000 A 
ATOM     13  F   UNL     1      10.671  11.035  17.232  0.00  0.00    +0.000 F 
BRANCH  10  14
ATOM     14  C   UNL     1      10.329  15.431  19.384  0.00  0.00    +0.000 C 
ATOM     15  C   UNL     1       9.002  16.227  19.315  0.00  0.00    +0.000 C 
ATOM     16  N   UNL     1       9.213  17.688  19.231  0.00  0.00    +0.000 NA
ATOM     17  C   UNL     1      10.128  17.958  18.107  0.00  0.00    +0.000 C 
ATOM     18  C   UNL     1      11.440  17.172  18.225  0.00  0.00    +0.000 C 
ATOM     19  O   UNL     1      11.196  15.764  18.286  0.00  0.00    +0.000 OA
ATOM     20  H   UNL     1       9.658  18.002  20.094  0.00  0.00    +0.000 HD
ENDBRANCH  10  14
ENDBRANCH   4   7
BRANCH   3  21
ATOM     21  C   UNL     1       7.716   6.711  18.423  0.00  0.00    +0.000 A 
ATOM     22  C   UNL     1       7.309   6.689  17.091  0.00  0.00    +0.000 A 
ATOM     23  C   UNL     1       6.383   5.741  16.651  0.00  0.00    +0.000 A 
ATOM     24  C   UNL     1       5.880   4.808  17.556  0.00  0.00    +0.000 A 
ATOM     25  N   UNL     1       6.290   4.791  18.858  0.00  0.00    +0.000 NA
ATOM     26  C   UNL     1       7.191   5.728  19.249  0.00  0.00    +0.000 A 
BRANCH  24  27
ATOM     27  C   UNL     1       4.856   3.785  17.083  0.00  0.00    +0.000 C 
ATOM     28  F   UNL     1       3.675   4.346  16.682  0.00  0.00    +0.000 F 
ATOM     29  F   UNL     1       5.288   3.054  16.016  0.00  0.00    +0.000 F 
ATOM     30  F   UNL     1       4.516   2.882  18.047  0.00  0.00    +0.000 F 
ENDBRANCH  24  27
ENDBRANCH   3  21
TORSDOF 4
ENDMDL
MODEL 7
REMARK VINA RESULT:      -7.9      1.073      1.254
REMARK  Name = 
REMARK  4 active torsions:
REMARK  status: ('A' for Active; 'I' for Inactive)
REMARK    1  A    between atoms: N_3  and  C_4
REMARK    2  A    between atoms: C_7  and  C_8
REMARK    3  A    between atoms: N_14  and  C_15
REMARK    4  A    between atoms: C_18  and  C_19
REMARK                            x       y       z     vdW  Elec       q    Type
REMARK                         _______ _______ _______ _____ _____    ______ ____
ROOT
ATOM      1  O   UNL     1       7.727   9.402  17.786  0.00  0.00    +0.000 OA
ATOM      2  C   UNL     1       8.517   8.851  18.542  0.00  0.00    +0.000 C 
ATOM      3  N   UNL     1       8.458   7.507  18.858  0.00  0.00    +0.000 N 
ATOM      4  N   UNL     1       9.536   9.504  19.208  0.00  0.00    +0.000 N 
ATOM      5  H   UNL     1       9.019   7.192  19.634  0.00  0.00    +0.000 HD
ATOM      6  H   UNL     1      10.045   9.010  19.929  0.00  0.00    +0.000 HD
ENDROOT
BRANCH   4   7
ATOM      7  C   UNL     1       9.741  10.908  19.177  0.00  0.00    +0.000 A 
ATOM      8  C   UNL     1      10.239  11.578  18.056  0.00  0.00    +0.000 A 
ATOM      9  C   UNL     1      10.335  12.971  18.033  0.00  0.00    +0.000 A 
ATOM     10  C   UNL     1       9.936  13.730  19.138  0.00  0.00    +0.000 A 
ATOM     11  C   UNL     1       9.488  13.058  20.286  0.00  0.00    +0.000 A 
ATOM     12  C   UNL     1       9.403  11.665  20.300  0.00  0.00    +0.000 A 
ATOM     13  F   UNL     1       8.938  11.054  21.402  0.00  0.00    +0.000 F 
BRANCH  10  14
ATOM     14  C   UNL     1      10.009  15.239  19.078  0.00  0.00    +0.000 C 
ATOM     15  C   UNL     1       8.864  15.887  19.897  0.00  0.00    +0.000 C 
ATOM     16  N   UNL     1       8.832  17.360  19.773  0.00  0.00    +0.000 NA
ATOM     17  C   UNL     1       8.805  17.701  18.339  0.00  0.00    +0.000 C 
ATOM     18  C   UNL     1       9.968  17.063  17.569  0.00  0.00    +0.000 C 
ATOM     19  O   UNL     1       9.955  15.639  17.698  0.00  0.00    +0.000 OA
ATOM     20  H   UNL     1       9.687  17.739  20.180  0.00  0.00    +0.000 HD
ENDBRANCH  10  14
ENDBRANCH   4   7
BRANCH   3  21
ATOM     21  C   UNL     1       7.477   6.610  18.361  0.00  0.00    +0.000 A 
ATOM     22  C   UNL     1       6.976   6.644  17.062  0.00  0.00    +0.000 A 
ATOM     23  C   UNL     1       5.976   5.753  16.668  0.00  0.00    +0.000 A 
ATOM     24  C   UNL     1       5.492   4.822  17.585  0.00  0.00    +0.000 A 
ATOM     25  N   UNL     1       5.992   4.749  18.853  0.00  0.00    +0.000 NA
ATOM     26  C   UNL     1       6.964   5.631  19.200  0.00  0.00    +0.000 A 
BRANCH  24  27
ATOM     27  C   UNL     1       4.388   3.862  17.163  0.00  0.00    +0.000 C 
ATOM     28  F   UNL     1       4.380   2.696  17.880  0.00  0.00    +0.000 F 
ATOM     29  F   UNL     1       3.139   4.386  17.317  0.00  0.00    +0.000 F 
ATOM     30  F   UNL     1       4.480   3.479  15.857  0.00  0.00    +0.000 F 
ENDBRANCH  24  27
ENDBRANCH   3  21
TORSDOF 4
ENDMDL
MODEL 8
REMARK VINA RESULT:      -7.8      9.291     12.540
REMARK  Name = 
REMARK  4 active torsions:
REMARK  status: ('A' for Active; 'I' for Inactive)
REMARK    1  A    between atoms: N_3  and  C_4
REMARK    2  A    between atoms: C_7  and  C_8
REMARK    3  A    between atoms: N_14  and  C_15
REMARK    4  A    between atoms: C_18  and  C_19
REMARK                            x       y       z     vdW  Elec       q    Type
REMARK                         _______ _______ _______ _____ _____    ______ ____
ROOT
ATOM      1  O   UNL     1      -0.727   9.269  21.235  0.00  0.00    +0.000 OA
ATOM      2  C   UNL     1      -0.097  10.216  20.782  0.00  0.00    +0.000 C 
ATOM      3  N   UNL     1      -0.489  11.532  20.933  0.00  0.00    +0.000 N 
ATOM      4  N   UNL     1       1.056  10.092  20.031  0.00  0.00    +0.000 N 
ATOM      5  H   UNL     1      -0.021  12.219  20.362  0.00  0.00    +0.000 HD
ATOM      6  H   UNL     1       1.428  10.910  19.567  0.00  0.00    +0.000 HD
ENDROOT
BRANCH   4   7
ATOM      7  C   UNL     1       1.606   8.855  19.607  0.00  0.00    +0.000 A 
ATOM      8  C   UNL     1       1.773   7.765  20.466  0.00  0.00    +0.000 A 
ATOM      9  C   UNL     1       2.228   6.534  19.987  0.00  0.00    +0.000 A 
ATOM     10  C   UNL     1       2.529   6.365  18.631  0.00  0.00    +0.000 A 
ATOM     11  C   UNL     1       2.414   7.472  17.777  0.00  0.00    +0.000 A 
ATOM     12  C   UNL     1       1.966   8.699  18.267  0.00  0.00    +0.000 A 
ATOM     13  F   UNL     1       1.836   9.731  17.417  0.00  0.00    +0.000 F 
BRANCH  10  14
ATOM     14  C   UNL     1       2.980   5.013  18.125  0.00  0.00    +0.000 C 
ATOM     15  C   UNL     1       1.769   4.137  17.716  0.00  0.00    +0.000 C 
ATOM     16  N   UNL     1       2.159   2.766  17.322  0.00  0.00    +0.000 NA
ATOM     17  C   UNL     1       2.972   2.189  18.408  0.00  0.00    +0.000 C 
ATOM     18  C   UNL     1       4.175   3.072  18.765  0.00  0.00    +0.000 C 
ATOM     19  O   UNL     1       3.757   4.381  19.157  0.00  0.00    +0.000 OA
ATOM     20  H   UNL     1       2.734   2.822  16.481  0.00  0.00    +0.000 HD
ENDBRANCH  10  14
ENDBRANCH   4   7
BRANCH   3  21
ATOM     21  C   UNL     1      -1.664  11.946  21.610  0.00  0.00    +0.000 A 
ATOM     22  C   UNL     1      -1.860  11.815  22.983  0.00  0.00    +0.000 A 
ATOM     23  C   UNL     1      -3.068  12.204  23.564  0.00  0.00    +0.000 A 
ATOM     24  C   UNL     1      -4.072  12.737  22.759  0.00  0.00    +0.000 A 
ATOM     25  N   UNL     1      -3.890  12.904  21.416  0.00  0.00    +0.000 NA
ATOM     26  C   UNL     1      -2.703  12.515  20.886  0.00  0.00    +0.000 A 
BRANCH  24  27
ATOM     27  C   UNL     1      -5.398  13.145  23.388  0.00  0.00    +0.000 C 
ATOM     28  F   UNL     1      -5.488  14.487  23.637  0.00  0.00    +0.000 F 
ATOM     29  F   UNL     1      -6.473  12.853  22.602  0.00  0.00    +0.000 F 
ATOM     30  F   UNL     1      -5.631  12.540  24.588  0.00  0.00    +0.000 F 
ENDBRANCH  24  27
ENDBRANCH   3  21
TORSDOF 4
ENDMDL
MODEL 9
REMARK VINA RESULT:      -7.8      1.377      1.673
REMARK  Name = 
REMARK  4 active torsions:
REMARK  status: ('A' for Active; 'I' for Inactive)
REMARK    1  A    between atoms: N_3  and  C_4
REMARK    2  A    between atoms: C_7  and  C_8
REMARK    3  A    between atoms: N_14  and  C_15
REMARK    4  A    between atoms: C_18  and  C_19
REMARK                            x       y       z     vdW  Elec       q    Type
REMARK                         _______ _______ _______ _____ _____    ______ ____
ROOT
ATOM      1  O   UNL     1       7.979   9.798  17.688  0.00  0.00    +0.000 OA
ATOM      2  C   UNL     1       8.628   9.299  18.598  0.00  0.00    +0.000 C 
ATOM      3  N   UNL     1       8.600   7.952  18.904  0.00  0.00    +0.000 N 
ATOM      4  N   UNL     1       9.432  10.019  19.461  0.00  0.00    +0.000 N 
ATOM      5  H   UNL     1       9.005   7.672  19.783  0.00  0.00    +0.000 HD
ATOM      6  H   UNL     1       9.810   9.557  20.277  0.00  0.00    +0.000 HD
ENDROOT
BRANCH   4   7
ATOM      7  C   UNL     1       9.537  11.434  19.465  0.00  0.00    +0.000 A 
ATOM      8  C   UNL     1       9.997  12.164  18.364  0.00  0.00    +0.000 A 
ATOM      9  C   UNL     1       9.993  13.561  18.375  0.00  0.00    +0.000 A 
ATOM     10  C   UNL     1       9.530  14.263  19.492  0.00  0.00    +0.000 A 
ATOM     11  C   UNL     1       9.119  13.533  20.619  0.00  0.00    +0.000 A 
ATOM     12  C   UNL     1       9.133  12.139  20.600  0.00  0.00    +0.000 A 
ATOM     13  F   UNL     1       8.703  11.470  21.683  0.00  0.00    +0.000 F 
BRANCH  10  14
ATOM     14  C   UNL     1       9.495  15.775  19.467  0.00  0.00    +0.000 C 
ATOM     15  C   UNL     1       8.257  16.293  18.694  0.00  0.00    +0.000 C 
ATOM     16  N   UNL     1       8.244  17.764  18.549  0.00  0.00    +0.000 NA
ATOM     17  C   UNL     1       9.531  18.180  17.960  0.00  0.00    +0.000 C 
ATOM     18  C   UNL     1      10.731  17.669  18.768  0.00  0.00    +0.000 C 
ATOM     19  O   UNL     1      10.717  16.244  18.871  0.00  0.00    +0.000 OA
ATOM     20  H   UNL     1       8.163  18.181  19.476  0.00  0.00    +0.000 HD
ENDBRANCH  10  14
ENDBRANCH   4   7
BRANCH   3  21
ATOM     21  C   UNL     1       7.816   6.991  18.217  0.00  0.00    +0.000 A 
ATOM     22  C   UNL     1       7.789   5.635  18.534  0.00  0.00    +0.000 A 
ATOM     23  C   UNL     1       7.024   4.747  17.775  0.00  0.00    +0.000 A 
ATOM     24  C   UNL     1       6.277   5.233  16.704  0.00  0.00    +0.000 A 
ATOM     25  N   UNL     1       6.262   6.563  16.395  0.00  0.00    +0.000 NA
ATOM     26  C   UNL     1       7.018   7.396  17.155  0.00  0.00    +0.000 A 
BRANCH  24  27
ATOM     27  C   UNL     1       5.457   4.264  15.863  0.00  0.00    +0.000 C 
ATOM     28  F   UNL     1       4.267   3.918  16.443  0.00  0.00    +0.000 F 
ATOM     29  F   UNL     1       5.126   4.768  14.640  0.00  0.00    +0.000 F 
ATOM     30  F   UNL     1       6.098   3.084  15.626  0.00  0.00    +0.000 F 
ENDBRANCH  24  27
ENDBRANCH   3  21
TORSDOF 4
ENDMDL
