MODEL 1
REMARK VINA RESULT:      -7.1      0.000      0.000
REMARK  Name = 
REMARK  5 active torsions:
REMARK  status: ('A' for Active; 'I' for Inactive)
REMARK    1  A    between atoms: C_1  and  N_2
REMARK    2  A    between atoms: C_6  and  C_7
REMARK    3  A    between atoms: C_15  and  C_16
REMARK    4  A    between atoms: C_23  and  C_24
REMARK    5  A    between atoms: C_30  and  C_31
REMARK                            x       y       z     vdW  Elec       q    Type
REMARK                         _______ _______ _______ _____ _____    ______ ____
ROOT
ATOM      1  C   UNL     1      -1.583  11.180  22.968  0.00  0.00    +0.000 C 
ATOM      2  N   UNL     1      -2.479  12.103  22.290  0.00  0.00    +0.000 N 
ATOM      3  C   UNL     1      -2.266  12.561  20.985  0.00  0.00    +0.000 A 
ATOM      4  N   UNL     1      -1.200  12.068  20.239  0.00  0.00    +0.000 N 
ATOM      5  N   UNL     1      -0.755  10.768  20.262  0.00  0.00    +0.000 NA
ATOM      6  C   UNL     1       0.297  10.693  19.507  0.00  0.00    +0.000 C 
ATOM      7  C   UNL     1       0.671  11.963  18.802  0.00  0.00    +0.000 C 
ATOM      8  C   UNL     1      -0.482  12.873  19.243  0.00  0.00    +0.000 C 
ATOM      9  N   UNL     1      -3.046  13.475  20.465  0.00  0.00    +0.000 NA
ATOM     10  C   UNL     1      -4.092  13.975  21.198  0.00  0.00    +0.000 A 
ATOM     11  C   UNL     1      -4.386  13.586  22.448  0.00  0.00    +0.000 A 
ATOM     12  C   UNL     1      -3.539  12.558  23.059  0.00  0.00    +0.000 A 
ATOM     13  O   UNL     1      -3.778  12.155  24.200  0.00  0.00    +0.000 OA
ENDROOT
BRANCH   6  14
ATOM     14  C   UNL     1       1.101   9.452  19.392  0.00  0.00    +0.000 A 
ATOM     15  C   UNL     1       1.697   9.145  18.160  0.00  0.00    +0.000 A 
ATOM     16  C   UNL     1       2.433   7.967  18.004  0.00  0.00    +0.000 A 
ATOM     17  C   UNL     1       2.571   7.093  19.078  0.00  0.00    +0.000 A 
ATOM     18 CL   UNL     1       3.476   5.644  18.891  0.00  0.00    +0.000 Cl
ATOM     19  C   UNL     1       1.978   7.387  20.307  0.00  0.00    +0.000 A 
ATOM     20  C   UNL     1       1.241   8.566  20.466  0.00  0.00    +0.000 A 
ENDBRANCH   6  14
BRANCH   8  21
ATOM     21  C   UNL     1       0.027  14.184  19.825  0.00  0.00    +0.000 A 
ATOM     22  C   UNL     1       0.883  14.168  20.937  0.00  0.00    +0.000 A 
ATOM     23  C   UNL     1       1.374  15.359  21.475  0.00  0.00    +0.000 A 
ATOM     24  C   UNL     1       1.017  16.580  20.910  0.00  0.00    +0.000 A 
ATOM     25  C   UNL     1       0.170  16.615  19.803  0.00  0.00    +0.000 A 
ATOM     26  C   UNL     1      -0.320  15.426  19.264  0.00  0.00    +0.000 A 
ENDBRANCH   8  21
BRANCH  10  27
ATOM     27  C   UNL     1      -4.916  15.001  20.523  0.00  0.00    +0.000 A 
ATOM     28  C   UNL     1      -4.571  16.359  20.606  0.00  0.00    +0.000 A 
ATOM     29  C   UNL     1      -5.353  17.327  19.968  0.00  0.00    +0.000 A 
ATOM     30  C   UNL     1      -6.481  16.949  19.241  0.00  0.00    +0.000 A 
ATOM     31  C   UNL     1      -6.832  15.604  19.153  0.00  0.00    +0.000 A 
ATOM     32  C   UNL     1      -6.054  14.633  19.790  0.00  0.00    +0.000 A 
ENDBRANCH  10  27
BRANCH  11  33
ATOM     33  C   UNL     1      -5.536  14.158  23.262  0.00  0.00    +0.000 C 
ATOM     34  N   UNL     1      -6.489  14.634  23.936  0.00  0.00    +0.000 NA
ENDBRANCH  11  33
TORSDOF 4
ENDMDL
MODEL 2
REMARK VINA RESULT:      -7.1      0.092      1.174
REMARK  Name = 
REMARK  5 active torsions:
REMARK  status: ('A' for Active; 'I' for Inactive)
REMARK    1  A    between atoms: C_1  and  N_2
REMARK    2  A    between atoms: C_6  and  C_7
REMARK    3  A    between atoms: C_15  and  C_16
REMARK    4  A    between atoms: C_23  and  C_24
REMARK    5  A    between atoms: C_30  and  C_31
REMARK                            x       y       z     vdW  Elec       q    Type
REMARK                         _______ _______ _______ _____ _____    ______ ____
ROOT
ATOM      1  C   UNL     1      -1.539  11.162  23.008  0.00  0.00    +0.000 C 
ATOM      2  N   UNL     1      -2.444  12.070  22.322  0.00  0.00    +0.000 N 
ATOM      3  C   UNL     1      -2.243  12.510  21.009  0.00  0.00    +0.000 A 
ATOM      4  N   UNL     1      -1.180  12.010  20.263  0.00  0.00    +0.000 N 
ATOM      5  N   UNL     1      -0.728  10.713  20.302  0.00  0.00    +0.000 NA
ATOM      6  C   UNL     1       0.318  10.630  19.541  0.00  0.00    +0.000 C 
ATOM      7  C   UNL     1       0.682  11.892  18.815  0.00  0.00    +0.000 C 
ATOM      8  C   UNL     1      -0.472  12.803  19.250  0.00  0.00    +0.000 C 
ATOM      9  N   UNL     1      -3.030  13.413  20.481  0.00  0.00    +0.000 NA
ATOM     10  C   UNL     1      -4.073  13.919  21.215  0.00  0.00    +0.000 A 
ATOM     11  C   UNL     1      -4.357  13.548  22.472  0.00  0.00    +0.000 A 
ATOM     12  C   UNL     1      -3.501  12.533  23.092  0.00  0.00    +0.000 A 
ATOM     13  O   UNL     1      -3.729  12.147  24.241  0.00  0.00    +0.000 OA
ENDROOT
BRANCH   6  14
ATOM     14  C   UNL     1       1.127   9.392  19.440  0.00  0.00    +0.000 A 
ATOM     15  C   UNL     1       1.802   9.123  18.240  0.00  0.00    +0.000 A 
ATOM     16  C   UNL     1       2.546   7.948  18.095  0.00  0.00    +0.000 A 
ATOM     17  C   UNL     1       2.612   7.040  19.147  0.00  0.00    +0.000 A 
ATOM     18 CL   UNL     1       3.526   5.594  18.973  0.00  0.00    +0.000 Cl
ATOM     19  C   UNL     1       1.940   7.296  20.342  0.00  0.00    +0.000 A 
ATOM     20  C   UNL     1       1.195   8.471  20.491  0.00  0.00    +0.000 A 
ENDBRANCH   6  14
BRANCH   8  21
ATOM     21  C   UNL     1       0.035  14.125  19.809  0.00  0.00    +0.000 A 
ATOM     22  C   UNL     1      -0.287  15.326  19.159  0.00  0.00    +0.000 A 
ATOM     23  C   UNL     1       0.155  16.551  19.666  0.00  0.00    +0.000 A 
ATOM     24  C   UNL     1       0.922  16.590  20.827  0.00  0.00    +0.000 A 
ATOM     25  C   UNL     1       1.248  15.406  21.487  0.00  0.00    +0.000 A 
ATOM     26  C   UNL     1       0.807  14.183  20.983  0.00  0.00    +0.000 A 
ENDBRANCH   8  21
BRANCH  10  27
ATOM     27  C   UNL     1      -4.907  14.932  20.530  0.00  0.00    +0.000 A 
ATOM     28  C   UNL     1      -6.032  14.542  19.786  0.00  0.00    +0.000 A 
ATOM     29  C   UNL     1      -6.817  15.501  19.138  0.00  0.00    +0.000 A 
ATOM     30  C   UNL     1      -6.489  16.852  19.230  0.00  0.00    +0.000 A 
ATOM     31  C   UNL     1      -5.374  17.249  19.966  0.00  0.00    +0.000 A 
ATOM     32  C   UNL     1      -4.586  16.294  20.613  0.00  0.00    +0.000 A 
ENDBRANCH  10  27
BRANCH  11  33
ATOM     33  C   UNL     1      -5.503  14.128  23.286  0.00  0.00    +0.000 C 
ATOM     34  N   UNL     1      -6.453  14.610  23.959  0.00  0.00    +0.000 NA
ENDBRANCH  11  33
TORSDOF 4
ENDMDL
MODEL 3
REMARK VINA RESULT:      -7.0      0.160      1.182
REMARK  Name = 
REMARK  5 active torsions:
REMARK  status: ('A' for Active; 'I' for Inactive)
REMARK    1  A    between atoms: C_1  and  N_2
REMARK    2  A    between atoms: C_6  and  C_7
REMARK    3  A    between atoms: C_15  and  C_16
REMARK    4  A    between atoms: C_23  and  C_24
REMARK    5  A    between atoms: C_30  and  C_31
REMARK                            x       y       z     vdW  Elec       q    Type
REMARK                         _______ _______ _______ _____ _____    ______ ____
ROOT
ATOM      1  C   UNL     1      -1.542  11.149  22.974  0.00  0.00    +0.000 C 
ATOM      2  N   UNL     1      -2.425  12.079  22.288  0.00  0.00    +0.000 N 
ATOM      3  C   UNL     1      -2.215  12.514  20.975  0.00  0.00    +0.000 A 
ATOM      4  N   UNL     1      -1.166  11.988  20.228  0.00  0.00    +0.000 N 
ATOM      5  N   UNL     1      -0.746  10.680  20.267  0.00  0.00    +0.000 NA
ATOM      6  C   UNL     1       0.297  10.571  19.504  0.00  0.00    +0.000 C 
ATOM      7  C   UNL     1       0.690  11.823  18.777  0.00  0.00    +0.000 C 
ATOM      8  C   UNL     1      -0.440  12.763  19.213  0.00  0.00    +0.000 C 
ATOM      9  N   UNL     1      -2.981  13.435  20.448  0.00  0.00    +0.000 NA
ATOM     10  C   UNL     1      -4.010  13.966  21.182  0.00  0.00    +0.000 A 
ATOM     11  C   UNL     1      -4.301  13.603  22.441  0.00  0.00    +0.000 A 
ATOM     12  C   UNL     1      -3.469  12.568  23.059  0.00  0.00    +0.000 A 
ATOM     13  O   UNL     1      -3.706  12.187  24.208  0.00  0.00    +0.000 OA
ENDROOT
BRANCH   6  14
ATOM     14  C   UNL     1       1.076   9.313  19.402  0.00  0.00    +0.000 A 
ATOM     15  C   UNL     1       1.124   8.457  20.512  0.00  0.00    +0.000 A 
ATOM     16  C   UNL     1       1.876   7.280  20.465  0.00  0.00    +0.000 A 
ATOM     17  C   UNL     1       2.583   6.959  19.310  0.00  0.00    +0.000 A 
ATOM     18 CL   UNL     1       3.509   5.512  19.247  0.00  0.00    +0.000 Cl
ATOM     19  C   UNL     1       2.546   7.807  18.202  0.00  0.00    +0.000 A 
ATOM     20  C   UNL     1       1.794   8.986  18.246  0.00  0.00    +0.000 A 
ENDBRANCH   6  14
BRANCH   8  21
ATOM     21  C   UNL     1       0.100  14.072  19.771  0.00  0.00    +0.000 A 
ATOM     22  C   UNL     1      -0.273  15.288  19.180  0.00  0.00    +0.000 A 
ATOM     23  C   UNL     1       0.198  16.501  19.687  0.00  0.00    +0.000 A 
ATOM     24  C   UNL     1       1.046  16.514  20.791  0.00  0.00    +0.000 A 
ATOM     25  C   UNL     1       1.424  15.314  21.393  0.00  0.00    +0.000 A 
ATOM     26  C   UNL     1       0.953  14.103  20.888  0.00  0.00    +0.000 A 
ENDBRANCH   8  21
BRANCH  10  27
ATOM     27  C   UNL     1      -4.820  14.999  20.498  0.00  0.00    +0.000 A 
ATOM     28  C   UNL     1      -4.379  16.331  20.447  0.00  0.00    +0.000 A 
ATOM     29  C   UNL     1      -5.148  17.304  19.802  0.00  0.00    +0.000 A 
ATOM     30  C   UNL     1      -6.356  16.957  19.200  0.00  0.00    +0.000 A 
ATOM     31  C   UNL     1      -6.802  15.638  19.245  0.00  0.00    +0.000 A 
ATOM     32  C   UNL     1      -6.038  14.662  19.891  0.00  0.00    +0.000 A 
ENDBRANCH  10  27
BRANCH  11  33
ATOM     33  C   UNL     1      -5.432  14.210  23.255  0.00  0.00    +0.000 C 
ATOM     34  N   UNL     1      -6.369  14.713  23.932  0.00  0.00    +0.000 NA
ENDBRANCH  11  33
TORSDOF 4
ENDMDL
MODEL 4
REMARK VINA RESULT:      -7.0      0.178      1.184
REMARK  Name = 
REMARK  5 active torsions:
REMARK  status: ('A' for Active; 'I' for Inactive)
REMARK    1  A    between atoms: C_1  and  N_2
REMARK    2  A    between atoms: C_6  and  C_7
REMARK    3  A    between atoms: C_15  and  C_16
REMARK    4  A    between atoms: C_23  and  C_24
REMARK    5  A    between atoms: C_30  and  C_31
REMARK                            x       y       z     vdW  Elec       q    Type
REMARK                         _______ _______ _______ _____ _____    ______ ____
ROOT
ATOM      1  C   UNL     1      -1.537  11.217  22.949  0.00  0.00    +0.000 C 
ATOM      2  N   UNL     1      -2.448  12.117  22.259  0.00  0.00    +0.000 N 
ATOM      3  C   UNL     1      -2.269  12.523  20.932  0.00  0.00    +0.000 A 
ATOM      4  N   UNL     1      -1.225  11.997  20.177  0.00  0.00    +0.000 N 
ATOM      5  N   UNL     1      -0.784  10.696  20.239  0.00  0.00    +0.000 NA
ATOM      6  C   UNL     1       0.247  10.587  19.460  0.00  0.00    +0.000 C 
ATOM      7  C   UNL     1       0.606  11.827  18.696  0.00  0.00    +0.000 C 
ATOM      8  C   UNL     1      -0.531  12.759  19.132  0.00  0.00    +0.000 C 
ATOM      9  N   UNL     1      -3.059  13.420  20.398  0.00  0.00    +0.000 NA
ATOM     10  C   UNL     1      -4.083  13.952  21.139  0.00  0.00    +0.000 A 
ATOM     11  C   UNL     1      -4.345  13.614  22.411  0.00  0.00    +0.000 A 
ATOM     12  C   UNL     1      -3.485  12.607  23.038  0.00  0.00    +0.000 A 
ATOM     13  O   UNL     1      -3.694  12.250  24.200  0.00  0.00    +0.000 OA
ENDROOT
BRANCH   6  14
ATOM     14  C   UNL     1       1.044   9.339  19.372  0.00  0.00    +0.000 A 
ATOM     15  C   UNL     1       1.084   8.483  20.483  0.00  0.00    +0.000 A 
ATOM     16  C   UNL     1       1.852   7.316  20.450  0.00  0.00    +0.000 A 
ATOM     17  C   UNL     1       2.584   7.005  19.308  0.00  0.00    +0.000 A 
ATOM     18 CL   UNL     1       3.529   5.570  19.263  0.00  0.00    +0.000 Cl
ATOM     19  C   UNL     1       2.555   7.852  18.200  0.00  0.00    +0.000 A 
ATOM     20  C   UNL     1       1.786   9.021  18.230  0.00  0.00    +0.000 A 
ENDBRANCH   6  14
BRANCH   8  21
ATOM     21  C   UNL     1      -0.002  14.089  19.649  0.00  0.00    +0.000 A 
ATOM     22  C   UNL     1       0.922  14.110  20.704  0.00  0.00    +0.000 A 
ATOM     23  C   UNL     1       1.432  15.319  21.181  0.00  0.00    +0.000 A 
ATOM     24  C   UNL     1       1.026  16.522  20.610  0.00  0.00    +0.000 A 
ATOM     25  C   UNL     1       0.112  16.520  19.557  0.00  0.00    +0.000 A 
ATOM     26  C   UNL     1      -0.398  15.312  19.079  0.00  0.00    +0.000 A 
ENDBRANCH   8  21
BRANCH  10  27
ATOM     27  C   UNL     1      -4.922  14.955  20.447  0.00  0.00    +0.000 A 
ATOM     28  C   UNL     1      -6.091  14.564  19.776  0.00  0.00    +0.000 A 
ATOM     29  C   UNL     1      -6.881  15.514  19.121  0.00  0.00    +0.000 A 
ATOM     30  C   UNL     1      -6.514  16.858  19.133  0.00  0.00    +0.000 A 
ATOM     31  C   UNL     1      -5.355  17.257  19.796  0.00  0.00    +0.000 A 
ATOM     32  C   UNL     1      -4.561  16.311  20.451  0.00  0.00    +0.000 A 
ENDBRANCH  10  27
BRANCH  11  33
ATOM     33  C   UNL     1      -5.470  14.223  23.232  0.00  0.00    +0.000 C 
ATOM     34  N   UNL     1      -6.403  14.728  23.912  0.00  0.00    +0.000 NA
ENDBRANCH  11  33
TORSDOF 4
ENDMDL
MODEL 5
REMARK VINA RESULT:      -6.4      3.210      5.646
REMARK  Name = 
REMARK  5 active torsions:
REMARK  status: ('A' for Active; 'I' for Inactive)
REMARK    1  A    between atoms: C_1  and  N_2
REMARK    2  A    between atoms: C_6  and  C_7
REMARK    3  A    between atoms: C_15  and  C_16
REMARK    4  A    between atoms: C_23  and  C_24
REMARK    5  A    between atoms: C_30  and  C_31
REMARK                            x       y       z     vdW  Elec       q    Type
REMARK                         _______ _______ _______ _____ _____    ______ ____
ROOT
ATOM      1  C   UNL     1       2.114  12.301  18.110  0.00  0.00    +0.000 C 
ATOM      2  N   UNL     1       1.943  13.186  19.252  0.00  0.00    +0.000 N 
ATOM      3  C   UNL     1       1.408  12.768  20.476  0.00  0.00    +0.000 A 
ATOM      4  N   UNL     1       1.091  11.428  20.675  0.00  0.00    +0.000 N 
ATOM      5  N   UNL     1       1.817  10.364  20.194  0.00  0.00    +0.000 NA
ATOM      6  C   UNL     1       1.186   9.276  20.506  0.00  0.00    +0.000 C 
ATOM      7  C   UNL     1      -0.058   9.469  21.321  0.00  0.00    +0.000 C 
ATOM      8  C   UNL     1      -0.020  10.988  21.528  0.00  0.00    +0.000 C 
ATOM      9  N   UNL     1       1.176  13.632  21.430  0.00  0.00    +0.000 NA
ATOM     10  C   UNL     1       1.475  14.957  21.237  0.00  0.00    +0.000 A 
ATOM     11  C   UNL     1       2.004  15.450  20.107  0.00  0.00    +0.000 A 
ATOM     12  C   UNL     1       2.285  14.510  19.020  0.00  0.00    +0.000 A 
ATOM     13  O   UNL     1       2.787  14.911  17.967  0.00  0.00    +0.000 OA
ENDROOT
BRANCH   6  14
ATOM     14  C   UNL     1       1.635   7.940  20.042  0.00  0.00    +0.000 A 
ATOM     15  C   UNL     1       2.208   7.825  18.767  0.00  0.00    +0.000 A 
ATOM     16  C   UNL     1       2.611   6.578  18.282  0.00  0.00    +0.000 A 
ATOM     17  C   UNL     1       2.436   5.444  19.069  0.00  0.00    +0.000 A 
ATOM     18 CL   UNL     1       2.931   3.907  18.477  0.00  0.00    +0.000 Cl
ATOM     19  C   UNL     1       1.862   5.546  20.337  0.00  0.00    +0.000 A 
ATOM     20  C   UNL     1       1.458   6.794  20.825  0.00  0.00    +0.000 A 
ENDBRANCH   6  14
BRANCH   8  21
ATOM     21  C   UNL     1      -1.336  11.643  21.136  0.00  0.00    +0.000 A 
ATOM     22  C   UNL     1      -2.108  12.295  22.110  0.00  0.00    +0.000 A 
ATOM     23  C   UNL     1      -3.311  12.916  21.768  0.00  0.00    +0.000 A 
ATOM     24  C   UNL     1      -3.757  12.895  20.449  0.00  0.00    +0.000 A 
ATOM     25  C   UNL     1      -3.001  12.256  19.468  0.00  0.00    +0.000 A 
ATOM     26  C   UNL     1      -1.799  11.635  19.809  0.00  0.00    +0.000 A 
ENDBRANCH   8  21
BRANCH  10  27
ATOM     27  C   UNL     1       1.178  15.854  22.376  0.00  0.00    +0.000 A 
ATOM     28  C   UNL     1      -0.146  16.051  22.801  0.00  0.00    +0.000 A 
ATOM     29  C   UNL     1      -0.423  16.901  23.875  0.00  0.00    +0.000 A 
ATOM     30  C   UNL     1       0.614  17.556  24.536  0.00  0.00    +0.000 A 
ATOM     31  C   UNL     1       1.931  17.368  24.121  0.00  0.00    +0.000 A 
ATOM     32  C   UNL     1       2.214  16.521  23.047  0.00  0.00    +0.000 A 
ENDBRANCH  10  27
BRANCH  11  33
ATOM     33  C   UNL     1       2.315  16.923  19.894  0.00  0.00    +0.000 C 
ATOM     34  N   UNL     1       2.571  18.145  19.717  0.00  0.00    +0.000 NA
ENDBRANCH  11  33
TORSDOF 4
ENDMDL
MODEL 6
REMARK VINA RESULT:      -6.4      3.174      5.580
REMARK  Name = 
REMARK  5 active torsions:
REMARK  status: ('A' for Active; 'I' for Inactive)
REMARK    1  A    between atoms: C_1  and  N_2
REMARK    2  A    between atoms: C_6  and  C_7
REMARK    3  A    between atoms: C_15  and  C_16
REMARK    4  A    between atoms: C_23  and  C_24
REMARK    5  A    between atoms: C_30  and  C_31
REMARK                            x       y       z     vdW  Elec       q    Type
REMARK                         _______ _______ _______ _____ _____    ______ ____
ROOT
ATOM      1  C   UNL     1       2.098  12.436  18.181  0.00  0.00    +0.000 C 
ATOM      2  N   UNL     1       1.899  13.305  19.330  0.00  0.00    +0.000 N 
ATOM      3  C   UNL     1       1.349  12.867  20.540  0.00  0.00    +0.000 A 
ATOM      4  N   UNL     1       1.041  11.522  20.717  0.00  0.00    +0.000 N 
ATOM      5  N   UNL     1       1.784  10.471  20.236  0.00  0.00    +0.000 NA
ATOM      6  C   UNL     1       1.157   9.373  20.523  0.00  0.00    +0.000 C 
ATOM      7  C   UNL     1      -0.102   9.545  21.321  0.00  0.00    +0.000 C 
ATOM      8  C   UNL     1      -0.080  11.062  21.547  0.00  0.00    +0.000 C 
ATOM      9  N   UNL     1       1.093  13.717  21.501  0.00  0.00    +0.000 NA
ATOM     10  C   UNL     1       1.383  15.047  21.329  0.00  0.00    +0.000 A 
ATOM     11  C   UNL     1       1.926  15.559  20.215  0.00  0.00    +0.000 A 
ATOM     12  C   UNL     1       2.234  14.634  19.121  0.00  0.00    +0.000 A 
ATOM     13  O   UNL     1       2.749  15.053  18.081  0.00  0.00    +0.000 OA
ENDROOT
BRANCH   6  14
ATOM     14  C   UNL     1       1.626   8.047  20.051  0.00  0.00    +0.000 A 
ATOM     15  C   UNL     1       2.188   7.947  18.769  0.00  0.00    +0.000 A 
ATOM     16  C   UNL     1       2.608   6.708  18.276  0.00  0.00    +0.000 A 
ATOM     17  C   UNL     1       2.463   5.569  19.062  0.00  0.00    +0.000 A 
ATOM     18 CL   UNL     1       2.979   4.044  18.459  0.00  0.00    +0.000 Cl
ATOM     19  C   UNL     1       1.900   5.657  20.335  0.00  0.00    +0.000 A 
ATOM     20  C   UNL     1       1.479   6.896  20.832  0.00  0.00    +0.000 A 
ENDBRANCH   6  14
BRANCH   8  21
ATOM     21  C   UNL     1      -1.396  11.710  21.141  0.00  0.00    +0.000 A 
ATOM     22  C   UNL     1      -1.817  11.656  19.804  0.00  0.00    +0.000 A 
ATOM     23  C   UNL     1      -3.030  12.230  19.415  0.00  0.00    +0.000 A 
ATOM     24  C   UNL     1      -3.836  12.863  20.357  0.00  0.00    +0.000 A 
ATOM     25  C   UNL     1      -3.435  12.922  21.691  0.00  0.00    +0.000 A 
ATOM     26  C   UNL     1      -2.225  12.349  22.081  0.00  0.00    +0.000 A 
ENDBRANCH   8  21
BRANCH  10  27
ATOM     27  C   UNL     1       1.059  15.927  22.474  0.00  0.00    +0.000 A 
ATOM     28  C   UNL     1       2.078  16.611  23.156  0.00  0.00    +0.000 A 
ATOM     29  C   UNL     1       1.769  17.440  24.238  0.00  0.00    +0.000 A 
ATOM     30  C   UNL     1       0.445  17.598  24.645  0.00  0.00    +0.000 A 
ATOM     31  C   UNL     1      -0.573  16.923  23.975  0.00  0.00    +0.000 A 
ATOM     32  C   UNL     1      -0.269  16.092  22.893  0.00  0.00    +0.000 A 
ENDBRANCH  10  27
BRANCH  11  33
ATOM     33  C   UNL     1       2.227  17.037  20.024  0.00  0.00    +0.000 C 
ATOM     34  N   UNL     1       2.478  18.262  19.865  0.00  0.00    +0.000 NA
ENDBRANCH  11  33
TORSDOF 4
ENDMDL
MODEL 7
REMARK VINA RESULT:      -6.3      3.089      5.667
REMARK  Name = 
REMARK  5 active torsions:
REMARK  status: ('A' for Active; 'I' for Inactive)
REMARK    1  A    between atoms: C_1  and  N_2
REMARK    2  A    between atoms: C_6  and  C_7
REMARK    3  A    between atoms: C_15  and  C_16
REMARK    4  A    between atoms: C_23  and  C_24
REMARK    5  A    between atoms: C_30  and  C_31
REMARK                            x       y       z     vdW  Elec       q    Type
REMARK                         _______ _______ _______ _____ _____    ______ ____
ROOT
ATOM      1  C   UNL     1       1.914  12.702  18.226  0.00  0.00    +0.000 C 
ATOM      2  N   UNL     1       1.759  13.543  19.402  0.00  0.00    +0.000 N 
ATOM      3  C   UNL     1       1.262  13.073  20.623  0.00  0.00    +0.000 A 
ATOM      4  N   UNL     1       0.970  11.723  20.782  0.00  0.00    +0.000 N 
ATOM      5  N   UNL     1       1.698  10.688  20.245  0.00  0.00    +0.000 NA
ATOM      6  C   UNL     1       1.090   9.580  20.533  0.00  0.00    +0.000 C 
ATOM      7  C   UNL     1      -0.135   9.725  21.386  0.00  0.00    +0.000 C 
ATOM      8  C   UNL     1      -0.113  11.236  21.646  0.00  0.00    +0.000 C 
ATOM      9  N   UNL     1       1.042  13.900  21.614  0.00  0.00    +0.000 NA
ATOM     10  C   UNL     1       1.317  15.235  21.460  0.00  0.00    +0.000 A 
ATOM     11  C   UNL     1       1.810  15.776  20.336  0.00  0.00    +0.000 A 
ATOM     12  C   UNL     1       2.077  14.879  19.209  0.00  0.00    +0.000 A 
ATOM     13  O   UNL     1       2.546  15.325  18.159  0.00  0.00    +0.000 OA
ENDROOT
BRANCH   6  14
ATOM     14  C   UNL     1       1.546   8.268  20.011  0.00  0.00    +0.000 A 
ATOM     15  C   UNL     1       1.448   7.140  20.839  0.00  0.00    +0.000 A 
ATOM     16  C   UNL     1       1.900   5.895  20.394  0.00  0.00    +0.000 A 
ATOM     17  C   UNL     1       2.453   5.776  19.123  0.00  0.00    +0.000 A 
ATOM     18 CL   UNL     1       3.009   4.245  18.571  0.00  0.00    +0.000 Cl
ATOM     19  C   UNL     1       2.559   6.893  18.293  0.00  0.00    +0.000 A 
ATOM     20  C   UNL     1       2.108   8.141  18.736  0.00  0.00    +0.000 A 
ENDBRANCH   6  14
BRANCH   8  21
ATOM     21  C   UNL     1      -1.448  11.885  21.311  0.00  0.00    +0.000 A 
ATOM     22  C   UNL     1      -1.922  11.864  19.991  0.00  0.00    +0.000 A 
ATOM     23  C   UNL     1      -3.153  12.438  19.667  0.00  0.00    +0.000 A 
ATOM     24  C   UNL     1      -3.925  13.040  20.656  0.00  0.00    +0.000 A 
ATOM     25  C   UNL     1      -3.472  13.066  21.975  0.00  0.00    +0.000 A 
ATOM     26  C   UNL     1      -2.243  12.492  22.300  0.00  0.00    +0.000 A 
ENDBRANCH   8  21
BRANCH  10  27
ATOM     27  C   UNL     1       1.036  16.087  22.638  0.00  0.00    +0.000 A 
ATOM     28  C   UNL     1      -0.281  16.266  23.089  0.00  0.00    +0.000 A 
ATOM     29  C   UNL     1      -0.543  17.073  24.200  0.00  0.00    +0.000 A 
ATOM     30  C   UNL     1       0.504  17.702  24.871  0.00  0.00    +0.000 A 
ATOM     31  C   UNL     1       1.815  17.531  24.431  0.00  0.00    +0.000 A 
ATOM     32  C   UNL     1       2.082  16.727  23.319  0.00  0.00    +0.000 A 
ENDBRANCH  10  27
BRANCH  11  33
ATOM     33  C   UNL     1       2.095  17.260  20.168  0.00  0.00    +0.000 C 
ATOM     34  N   UNL     1       2.329  18.491  20.029  0.00  0.00    +0.000 NA
ENDBRANCH  11  33
TORSDOF 4
ENDMDL
MODEL 8
REMARK VINA RESULT:      -6.3      1.807      2.893
REMARK  Name = 
REMARK  5 active torsions:
REMARK  status: ('A' for Active; 'I' for Inactive)
REMARK    1  A    between atoms: C_1  and  N_2
REMARK    2  A    between atoms: C_6  and  C_7
REMARK    3  A    between atoms: C_15  and  C_16
REMARK    4  A    between atoms: C_23  and  C_24
REMARK    5  A    between atoms: C_30  and  C_31
REMARK                            x       y       z     vdW  Elec       q    Type
REMARK                         _______ _______ _______ _____ _____    ______ ____
ROOT
ATOM      1  C   UNL     1       0.783   9.561  22.374  0.00  0.00    +0.000 C 
ATOM      2  N   UNL     1      -0.314  10.422  21.961  0.00  0.00    +0.000 N 
ATOM      3  C   UNL     1      -0.483  10.876  20.648  0.00  0.00    +0.000 A 
ATOM      4  N   UNL     1       0.374  10.437  19.644  0.00  0.00    +0.000 N 
ATOM      5  N   UNL     1       0.887   9.166  19.543  0.00  0.00    +0.000 NA
ATOM      6  C   UNL     1       1.703   9.143  18.536  0.00  0.00    +0.000 C 
ATOM      7  C   UNL     1       1.800  10.424  17.762  0.00  0.00    +0.000 C 
ATOM      8  C   UNL     1       0.753  11.271  18.496  0.00  0.00    +0.000 C 
ATOM      9  N   UNL     1      -1.426  11.736  20.358  0.00  0.00    +0.000 NA
ATOM     10  C   UNL     1      -2.267  12.183  21.345  0.00  0.00    +0.000 A 
ATOM     11  C   UNL     1      -2.196  11.793  22.626  0.00  0.00    +0.000 A 
ATOM     12  C   UNL     1      -1.157  10.824  22.986  0.00  0.00    +0.000 A 
ATOM     13  O   UNL     1      -1.060  10.422  24.148  0.00  0.00    +0.000 OA
ENDROOT
BRANCH   6  14
ATOM     14  C   UNL     1       2.521   7.950  18.207  0.00  0.00    +0.000 A 
ATOM     15  C   UNL     1       2.211   6.728  18.823  0.00  0.00    +0.000 A 
ATOM     16  C   UNL     1       2.982   5.591  18.564  0.00  0.00    +0.000 A 
ATOM     17  C   UNL     1       4.064   5.675  17.693  0.00  0.00    +0.000 A 
ATOM     18 CL   UNL     1       5.013   4.278  17.372  0.00  0.00    +0.000 Cl
ATOM     19  C   UNL     1       4.383   6.887  17.080  0.00  0.00    +0.000 A 
ATOM     20  C   UNL     1       3.613   8.027  17.336  0.00  0.00    +0.000 A 
ENDBRANCH   6  14
BRANCH   8  21
ATOM     21  C   UNL     1       1.319  12.616  18.928  0.00  0.00    +0.000 A 
ATOM     22  C   UNL     1       0.765  13.801  18.420  0.00  0.00    +0.000 A 
ATOM     23  C   UNL     1       1.259  15.046  18.816  0.00  0.00    +0.000 A 
ATOM     24  C   UNL     1       2.311  15.122  19.724  0.00  0.00    +0.000 A 
ATOM     25  C   UNL     1       2.871  13.955  20.242  0.00  0.00    +0.000 A 
ATOM     26  C   UNL     1       2.378  12.711  19.847  0.00  0.00    +0.000 A 
ENDBRANCH   8  21
BRANCH  10  27
ATOM     27  C   UNL     1      -3.302  13.151  20.916  0.00  0.00    +0.000 A 
ATOM     28  C   UNL     1      -4.509  12.702  20.359  0.00  0.00    +0.000 A 
ATOM     29  C   UNL     1      -5.483  13.619  19.953  0.00  0.00    +0.000 A 
ATOM     30  C   UNL     1      -5.264  14.987  20.104  0.00  0.00    +0.000 A 
ATOM     31  C   UNL     1      -4.068  15.442  20.656  0.00  0.00    +0.000 A 
ATOM     32  C   UNL     1      -3.091  14.530  21.061  0.00  0.00    +0.000 A 
ENDBRANCH  10  27
BRANCH  11  33
ATOM     33  C   UNL     1      -3.120  12.307  23.718  0.00  0.00    +0.000 C 
ATOM     34  N   UNL     1      -3.886  12.732  24.625  0.00  0.00    +0.000 NA
ENDBRANCH  11  33
TORSDOF 4
ENDMDL
MODEL 9
REMARK VINA RESULT:      -6.3      1.202      1.504
REMARK  Name = 
REMARK  5 active torsions:
REMARK  status: ('A' for Active; 'I' for Inactive)
REMARK    1  A    between atoms: C_1  and  N_2
REMARK    2  A    between atoms: C_6  and  C_7
REMARK    3  A    between atoms: C_15  and  C_16
REMARK    4  A    between atoms: C_23  and  C_24
REMARK    5  A    between atoms: C_30  and  C_31
REMARK                            x       y       z     vdW  Elec       q    Type
REMARK                         _______ _______ _______ _____ _____    ______ ____
ROOT
ATOM      1  C   UNL     1      -1.104  12.680  23.112  0.00  0.00    +0.000 C 
ATOM      2  N   UNL     1      -2.056  13.532  22.416  0.00  0.00    +0.000 N 
ATOM      3  C   UNL     1      -2.048  13.722  21.030  0.00  0.00    +0.000 A 
ATOM      4  N   UNL     1      -1.152  13.013  20.236  0.00  0.00    +0.000 N 
ATOM      5  N   UNL     1      -0.775  11.707  20.442  0.00  0.00    +0.000 NA
ATOM      6  C   UNL     1       0.126  11.406  19.560  0.00  0.00    +0.000 C 
ATOM      7  C   UNL     1       0.437  12.489  18.569  0.00  0.00    +0.000 C 
ATOM      8  C   UNL     1      -0.576  13.557  19.000  0.00  0.00    +0.000 C 
ATOM      9  N   UNL     1      -2.858  14.585  20.471  0.00  0.00    +0.000 NA
ATOM     10  C   UNL     1      -3.735  15.296  21.249  0.00  0.00    +0.000 A 
ATOM     11  C   UNL     1      -3.830  15.172  22.582  0.00  0.00    +0.000 A 
ATOM     12  C   UNL     1      -2.943  14.209  23.239  0.00  0.00    +0.000 A 
ATOM     13  O   UNL     1      -3.002  14.045  24.460  0.00  0.00    +0.000 OA
ENDROOT
BRANCH   6  14
ATOM     14  C   UNL     1       0.835  10.104  19.565  0.00  0.00    +0.000 A 
ATOM     15  C   UNL     1       1.472   9.677  18.390  0.00  0.00    +0.000 A 
ATOM     16  C   UNL     1       2.120   8.439  18.346  0.00  0.00    +0.000 A 
ATOM     17  C   UNL     1       2.128   7.626  19.475  0.00  0.00    +0.000 A 
ATOM     18 CL   UNL     1       2.925   6.103  19.426  0.00  0.00    +0.000 Cl
ATOM     19  C   UNL     1       1.493   8.039  20.647  0.00  0.00    +0.000 A 
ATOM     20  C   UNL     1       0.844   9.277  20.694  0.00  0.00    +0.000 A 
ENDBRANCH   6  14
BRANCH   8  21
ATOM     21  C   UNL     1       0.091  14.907  19.225  0.00  0.00    +0.000 A 
ATOM     22  C   UNL     1       1.230  14.994  20.039  0.00  0.00    +0.000 A 
ATOM     23  C   UNL     1       1.867  16.220  20.244  0.00  0.00    +0.000 A 
ATOM     24  C   UNL     1       1.374  17.373  19.638  0.00  0.00    +0.000 A 
ATOM     25  C   UNL     1       0.245  17.303  18.823  0.00  0.00    +0.000 A 
ATOM     26  C   UNL     1      -0.391  16.079  18.617  0.00  0.00    +0.000 A 
ENDBRANCH   8  21
BRANCH  10  27
ATOM     27  C   UNL     1      -4.611  16.245  20.525  0.00  0.00    +0.000 A 
ATOM     28  C   UNL     1      -5.891  15.851  20.104  0.00  0.00    +0.000 A 
ATOM     29  C   UNL     1      -6.715  16.749  19.418  0.00  0.00    +0.000 A 
ATOM     30  C   UNL     1      -6.272  18.043  19.151  0.00  0.00    +0.000 A 
ATOM     31  C   UNL     1      -5.003  18.443  19.565  0.00  0.00    +0.000 A 
ATOM     32  C   UNL     1      -4.175  17.549  20.249  0.00  0.00    +0.000 A 
ENDBRANCH  10  27
BRANCH  11  33
ATOM     33  C   UNL     1      -4.792  15.978  23.439  0.00  0.00    +0.000 C 
ATOM     34  N   UNL     1      -5.589  16.648  24.150  0.00  0.00    +0.000 NA
ENDBRANCH  11  33
TORSDOF 4
ENDMDL
