MODEL 1
REMARK VINA RESULT:      -9.3      0.000      0.000
REMARK  Name = 
REMARK  4 active torsions:
REMARK  status: ('A' for Active; 'I' for Inactive)
REMARK    1  A    between atoms: C_2  and  C_16
REMARK    2  A    between atoms: N_3  and  C_4
REMARK    3  A    between atoms: C_9  and  C_10
REMARK    4  A    between atoms: C_19  and  C_20
REMARK                            x       y       z     vdW  Elec       q    Type
REMARK                         _______ _______ _______ _____ _____    ______ ____
ROOT
ATOM      1  O   UNL     1       2.249   8.729  17.311  0.00  0.00    +0.000 OA
ATOM      2  C   UNL     1       2.217   8.202  18.419  0.00  0.00    +0.000 C 
ATOM      3  N   UNL     1       2.811   6.989  18.739  0.00  0.00    +0.000 N 
ATOM      4  H   UNL     1       2.424   6.516  19.546  0.00  0.00    +0.000 HD
ENDROOT
BRANCH   3   5
ATOM      5  C   UNL     1       3.626   6.260  17.850  0.00  0.00    +0.000 A 
ATOM      6  C   UNL     1       4.449   6.926  16.927  0.00  0.00    +0.000 A 
ATOM      7  C   UNL     1       5.307   6.202  16.080  0.00  0.00    +0.000 A 
ATOM      8  C   UNL     1       5.336   4.816  16.152  0.00  0.00    +0.000 A 
ATOM      9  C   UNL     1       4.512   4.138  17.056  0.00  0.00    +0.000 A 
ATOM     10  C   UNL     1       3.656   4.851  17.908  0.00  0.00    +0.000 A 
BRANCH  10  11
ATOM     11  C   UNL     1       2.717   4.103  18.752  0.00  0.00    +0.000 C 
ATOM     12  C   UNL     1       2.967   3.856  20.047  0.00  0.00    +0.000 C 
ATOM     13  C   UNL     1       1.989   3.157  20.941  0.00  0.00    +0.000 C 
ATOM     14  N   UNL     1       0.633   3.085  20.386  0.00  0.00    +0.000 NA
ATOM     15  C   UNL     1       0.671   2.645  18.985  0.00  0.00    +0.000 C 
ATOM     16  C   UNL     1       1.435   3.636  18.092  0.00  0.00    +0.000 C 
ATOM     17  H   UNL     1       0.225   4.019  20.422  0.00  0.00    +0.000 HD
ENDBRANCH  10  11
ENDBRANCH   3   5
BRANCH   2  18
ATOM     18  C   UNL     1       1.455   8.796  19.526  0.00  0.00    +0.000 A 
ATOM     19  C   UNL     1       1.428   8.266  20.803  0.00  0.00    +0.000 A 
ATOM     20  S   UNL     1       0.380   9.171  21.806  0.00  0.00    +0.000 S 
ATOM     21  C   UNL     1       0.039  10.228  20.495  0.00  0.00    +0.000 A 
ATOM     22  N   UNL     1       0.676   9.939  19.369  0.00  0.00    +0.000 NA
BRANCH  21  23
ATOM     23  C   UNL     1      -0.790  11.437  20.648  0.00  0.00    +0.000 A 
ATOM     24  C   UNL     1      -1.759  11.804  19.676  0.00  0.00    +0.000 A 
ATOM     25  C   UNL     1      -2.889  12.534  20.044  0.00  0.00    +0.000 A 
ATOM     26  C   UNL     1      -2.989  12.880  21.370  0.00  0.00    +0.000 A 
ATOM     27  C   UNL     1      -1.924  12.786  22.258  0.00  0.00    +0.000 A 
ATOM     28  C   UNL     1      -0.812  12.052  21.915  0.00  0.00    +0.000 A 
ATOM     29  C   UNL     1      -2.415  13.204  23.595  0.00  0.00    +0.000 C 
ATOM     30  C   UNL     1      -3.799  12.605  23.383  0.00  0.00    +0.000 C 
ATOM     31  O   UNL     1      -4.191  13.038  22.042  0.00  0.00    +0.000 OA
ENDBRANCH  21  23
ENDBRANCH   2  18
TORSDOF 4
ENDMDL
MODEL 2
REMARK VINA RESULT:      -8.9      1.501      2.062
REMARK  Name = 
REMARK  4 active torsions:
REMARK  status: ('A' for Active; 'I' for Inactive)
REMARK    1  A    between atoms: C_2  and  C_16
REMARK    2  A    between atoms: N_3  and  C_4
REMARK    3  A    between atoms: C_9  and  C_10
REMARK    4  A    between atoms: C_19  and  C_20
REMARK                            x       y       z     vdW  Elec       q    Type
REMARK                         _______ _______ _______ _____ _____    ______ ____
ROOT
ATOM      1  O   UNL     1       2.190   8.719  17.429  0.00  0.00    +0.000 OA
ATOM      2  C   UNL     1       2.211   8.185  18.533  0.00  0.00    +0.000 C 
ATOM      3  N   UNL     1       2.824   6.972  18.817  0.00  0.00    +0.000 N 
ATOM      4  H   UNL     1       2.477   6.491  19.638  0.00  0.00    +0.000 HD
ENDROOT
BRANCH   3   5
ATOM      5  C   UNL     1       3.601   6.253  17.886  0.00  0.00    +0.000 A 
ATOM      6  C   UNL     1       4.405   6.930  16.954  0.00  0.00    +0.000 A 
ATOM      7  C   UNL     1       5.226   6.214  16.063  0.00  0.00    +0.000 A 
ATOM      8  C   UNL     1       5.236   4.826  16.102  0.00  0.00    +0.000 A 
ATOM      9  C   UNL     1       4.430   4.139  17.015  0.00  0.00    +0.000 A 
ATOM     10  C   UNL     1       3.612   4.843  17.910  0.00  0.00    +0.000 A 
BRANCH  10  11
ATOM     11  C   UNL     1       2.688   4.088  18.764  0.00  0.00    +0.000 C 
ATOM     12  C   UNL     1       2.941   3.868  20.064  0.00  0.00    +0.000 C 
ATOM     13  C   UNL     1       1.976   3.163  20.968  0.00  0.00    +0.000 C 
ATOM     14  N   UNL     1       0.624   3.052  20.412  0.00  0.00    +0.000 NA
ATOM     15  C   UNL     1       0.675   2.589  19.018  0.00  0.00    +0.000 C 
ATOM     16  C   UNL     1       1.418   3.581  18.110  0.00  0.00    +0.000 C 
ATOM     17  H   UNL     1       0.195   3.976  20.431  0.00  0.00    +0.000 HD
ENDBRANCH  10  11
ENDBRANCH   3   5
BRANCH   2  18
ATOM     18  C   UNL     1       1.498   8.767  19.678  0.00  0.00    +0.000 A 
ATOM     19  C   UNL     1       1.383   8.138  20.905  0.00  0.00    +0.000 A 
ATOM     20  S   UNL     1       0.424   9.070  21.969  0.00  0.00    +0.000 S 
ATOM     21  C   UNL     1       0.234  10.266  20.750  0.00  0.00    +0.000 A 
ATOM     22  N   UNL     1       0.858  10.001  19.612  0.00  0.00    +0.000 NA
BRANCH  21  23
ATOM     23  C   UNL     1      -0.455  11.545  20.997  0.00  0.00    +0.000 A 
ATOM     24  C   UNL     1      -0.750  11.991  22.313  0.00  0.00    +0.000 A 
ATOM     25  C   UNL     1      -0.841  13.353  22.597  0.00  0.00    +0.000 A 
ATOM     26  C   UNL     1      -0.649  14.211  21.540  0.00  0.00    +0.000 A 
ATOM     27  C   UNL     1      -0.654  13.791  20.215  0.00  0.00    +0.000 A 
ATOM     28  C   UNL     1      -0.544  12.452  19.923  0.00  0.00    +0.000 A 
ATOM     29  C   UNL     1      -0.377  14.978  19.367  0.00  0.00    +0.000 C 
ATOM     30  C   UNL     1       0.576  15.602  20.378  0.00  0.00    +0.000 C 
ATOM     31  O   UNL     1      -0.114  15.484  21.662  0.00  0.00    +0.000 OA
ENDBRANCH  21  23
ENDBRANCH   2  18
TORSDOF 4
ENDMDL
MODEL 3
REMARK VINA RESULT:      -8.7      1.509      2.229
REMARK  Name = 
REMARK  4 active torsions:
REMARK  status: ('A' for Active; 'I' for Inactive)
REMARK    1  A    between atoms: C_2  and  C_16
REMARK    2  A    between atoms: N_3  and  C_4
REMARK    3  A    between atoms: C_9  and  C_10
REMARK    4  A    between atoms: C_19  and  C_20
REMARK                            x       y       z     vdW  Elec       q    Type
REMARK                         _______ _______ _______ _____ _____    ______ ____
ROOT
ATOM      1  O   UNL     1       2.126   8.632  17.330  0.00  0.00    +0.000 OA
ATOM      2  C   UNL     1       2.274   8.110  18.430  0.00  0.00    +0.000 C 
ATOM      3  N   UNL     1       2.996   6.948  18.667  0.00  0.00    +0.000 N 
ATOM      4  H   UNL     1       2.752   6.451  19.515  0.00  0.00    +0.000 HD
ENDROOT
BRANCH   3   5
ATOM      5  C   UNL     1       3.747   6.280  17.679  0.00  0.00    +0.000 A 
ATOM      6  C   UNL     1       4.521   7.006  16.759  0.00  0.00    +0.000 A 
ATOM      7  C   UNL     1       5.317   6.339  15.810  0.00  0.00    +0.000 A 
ATOM      8  C   UNL     1       5.333   4.951  15.779  0.00  0.00    +0.000 A 
ATOM      9  C   UNL     1       4.556   4.215  16.680  0.00  0.00    +0.000 A 
ATOM     10  C   UNL     1       3.763   4.871  17.632  0.00  0.00    +0.000 A 
BRANCH  10  11
ATOM     11  C   UNL     1       2.866   4.070  18.474  0.00  0.00    +0.000 C 
ATOM     12  C   UNL     1       1.657   3.674  18.048  0.00  0.00    +0.000 C 
ATOM     13  C   UNL     1       0.758   2.796  18.865  0.00  0.00    +0.000 C 
ATOM     14  N   UNL     1       1.440   2.136  19.983  0.00  0.00    +0.000 NA
ATOM     15  C   UNL     1       2.266   3.099  20.724  0.00  0.00    +0.000 C 
ATOM     16  C   UNL     1       3.381   3.693  19.849  0.00  0.00    +0.000 C 
ATOM     17  H   UNL     1       2.048   1.413  19.603  0.00  0.00    +0.000 HD
ENDBRANCH  10  11
ENDBRANCH   3   5
BRANCH   2  18
ATOM     18  C   UNL     1       1.614   8.649  19.627  0.00  0.00    +0.000 A 
ATOM     19  C   UNL     1       1.522   7.959  20.823  0.00  0.00    +0.000 A 
ATOM     20  S   UNL     1       0.623   8.856  21.966  0.00  0.00    +0.000 S 
ATOM     21  C   UNL     1       0.424  10.119  20.817  0.00  0.00    +0.000 A 
ATOM     22  N   UNL     1       1.004   9.900  19.646  0.00  0.00    +0.000 NA
BRANCH  21  23
ATOM     23  C   UNL     1      -0.223  11.400  21.153  0.00  0.00    +0.000 A 
ATOM     24  C   UNL     1      -0.981  11.563  22.343  0.00  0.00    +0.000 A 
ATOM     25  C   UNL     1      -1.087  12.814  22.950  0.00  0.00    +0.000 A 
ATOM     26  C   UNL     1      -0.442  13.853  22.324  0.00  0.00    +0.000 A 
ATOM     27  C   UNL     1       0.045  13.768  21.026  0.00  0.00    +0.000 A 
ATOM     28  C   UNL     1       0.175  12.538  20.424  0.00  0.00    +0.000 A 
ATOM     29  C   UNL     1       0.708  15.059  20.709  0.00  0.00    +0.000 C 
ATOM     30  C   UNL     1       1.226  15.254  22.127  0.00  0.00    +0.000 C 
ATOM     31  O   UNL     1       0.083  14.952  22.987  0.00  0.00    +0.000 OA
ENDBRANCH  21  23
ENDBRANCH   2  18
TORSDOF 4
ENDMDL
MODEL 4
REMARK VINA RESULT:      -8.7      1.094      1.552
REMARK  Name = 
REMARK  4 active torsions:
REMARK  status: ('A' for Active; 'I' for Inactive)
REMARK    1  A    between atoms: C_2  and  C_16
REMARK    2  A    between atoms: N_3  and  C_4
REMARK    3  A    between atoms: C_9  and  C_10
REMARK    4  A    between atoms: C_19  and  C_20
REMARK                            x       y       z     vdW  Elec       q    Type
REMARK                         _______ _______ _______ _____ _____    ______ ____
ROOT
ATOM      1  O   UNL     1       2.664   9.010  17.062  0.00  0.00    +0.000 OA
ATOM      2  C   UNL     1       2.262   8.464  18.084  0.00  0.00    +0.000 C 
ATOM      3  N   UNL     1       2.622   7.188  18.496  0.00  0.00    +0.000 N 
ATOM      4  H   UNL     1       1.975   6.739  19.133  0.00  0.00    +0.000 HD
ENDROOT
BRANCH   3   5
ATOM      5  C   UNL     1       3.588   6.399  17.840  0.00  0.00    +0.000 A 
ATOM      6  C   UNL     1       4.530   6.990  16.983  0.00  0.00    +0.000 A 
ATOM      7  C   UNL     1       5.532   6.213  16.374  0.00  0.00    +0.000 A 
ATOM      8  C   UNL     1       5.586   4.847  16.618  0.00  0.00    +0.000 A 
ATOM      9  C   UNL     1       4.646   4.242  17.458  0.00  0.00    +0.000 A 
ATOM     10  C   UNL     1       3.646   5.009  18.074  0.00  0.00    +0.000 A 
BRANCH  10  11
ATOM     11  C   UNL     1       2.604   4.322  18.845  0.00  0.00    +0.000 C 
ATOM     12  C   UNL     1       1.626   3.620  18.250  0.00  0.00    +0.000 C 
ATOM     13  C   UNL     1       0.597   2.852  19.021  0.00  0.00    +0.000 C 
ATOM     14  N   UNL     1       0.949   2.649  20.431  0.00  0.00    +0.000 NA
ATOM     15  C   UNL     1       1.417   3.905  21.032  0.00  0.00    +0.000 C 
ATOM     16  C   UNL     1       2.695   4.426  20.354  0.00  0.00    +0.000 C 
ATOM     17  H   UNL     1       1.706   1.967  20.474  0.00  0.00    +0.000 HD
ENDBRANCH  10  11
ENDBRANCH   3   5
BRANCH   2  18
ATOM     18  C   UNL     1       1.271   9.108  18.956  0.00  0.00    +0.000 A 
ATOM     19  C   UNL     1       1.224   8.919  20.326  0.00  0.00    +0.000 A 
ATOM     20  S   UNL     1      -0.102   9.760  21.002  0.00  0.00    +0.000 S 
ATOM     21  C   UNL     1      -0.526  10.345  19.443  0.00  0.00    +0.000 A 
ATOM     22  N   UNL     1       0.279   9.952  18.466  0.00  0.00    +0.000 NA
BRANCH  21  23
ATOM     23  C   UNL     1      -1.615  11.315  19.230  0.00  0.00    +0.000 A 
ATOM     24  C   UNL     1      -2.635  11.090  18.268  0.00  0.00    +0.000 A 
ATOM     25  C   UNL     1      -3.907  11.634  18.445  0.00  0.00    +0.000 A 
ATOM     26  C   UNL     1      -4.095  12.396  19.573  0.00  0.00    +0.000 A 
ATOM     27  C   UNL     1      -3.044  12.860  20.354  0.00  0.00    +0.000 A 
ATOM     28  C   UNL     1      -1.789  12.318  20.204  0.00  0.00    +0.000 A 
ATOM     29  C   UNL     1      -3.630  13.606  21.497  0.00  0.00    +0.000 C 
ATOM     30  C   UNL     1      -4.834  12.681  21.611  0.00  0.00    +0.000 C 
ATOM     31  O   UNL     1      -5.306  12.512  20.238  0.00  0.00    +0.000 OA
ENDBRANCH  21  23
ENDBRANCH   2  18
TORSDOF 4
ENDMDL
MODEL 5
REMARK VINA RESULT:      -8.4      2.042      3.543
REMARK  Name = 
REMARK  4 active torsions:
REMARK  status: ('A' for Active; 'I' for Inactive)
REMARK    1  A    between atoms: C_2  and  C_16
REMARK    2  A    between atoms: N_3  and  C_4
REMARK    3  A    between atoms: C_9  and  C_10
REMARK    4  A    between atoms: C_19  and  C_20
REMARK                            x       y       z     vdW  Elec       q    Type
REMARK                         _______ _______ _______ _____ _____    ______ ____
ROOT
ATOM      1  O   UNL     1       2.081   6.130  20.706  0.00  0.00    +0.000 OA
ATOM      2  C   UNL     1       2.021   6.654  19.599  0.00  0.00    +0.000 C 
ATOM      3  N   UNL     1       2.261   6.002  18.397  0.00  0.00    +0.000 N 
ATOM      4  H   UNL     1       2.521   6.601  17.622  0.00  0.00    +0.000 HD
ENDROOT
BRANCH   3   5
ATOM      5  C   UNL     1       2.498   4.616  18.294  0.00  0.00    +0.000 A 
ATOM      6  C   UNL     1       1.441   3.701  18.419  0.00  0.00    +0.000 A 
ATOM      7  C   UNL     1       1.665   2.321  18.257  0.00  0.00    +0.000 A 
ATOM      8  C   UNL     1       2.945   1.861  17.980  0.00  0.00    +0.000 A 
ATOM      9  C   UNL     1       4.010   2.760  17.867  0.00  0.00    +0.000 A 
ATOM     10  C   UNL     1       3.796   4.137  18.021  0.00  0.00    +0.000 A 
BRANCH  10  11
ATOM     11  C   UNL     1       4.956   5.035  18.023  0.00  0.00    +0.000 C 
ATOM     12  C   UNL     1       5.858   5.029  19.018  0.00  0.00    +0.000 C 
ATOM     13  C   UNL     1       7.087   5.886  19.001  0.00  0.00    +0.000 C 
ATOM     14  N   UNL     1       7.391   6.452  17.683  0.00  0.00    +0.000 NA
ATOM     15  C   UNL     1       6.182   7.026  17.076  0.00  0.00    +0.000 C 
ATOM     16  C   UNL     1       5.100   5.962  16.833  0.00  0.00    +0.000 C 
ATOM     17  H   UNL     1       7.728   5.700  17.084  0.00  0.00    +0.000 HD
ENDBRANCH  10  11
ENDBRANCH   3   5
BRANCH   2  18
ATOM     18  C   UNL     1       1.751   8.091  19.447  0.00  0.00    +0.000 A 
ATOM     19  C   UNL     1       1.861   8.763  18.243  0.00  0.00    +0.000 A 
ATOM     20  S   UNL     1       1.550  10.430  18.457  0.00  0.00    +0.000 S 
ATOM     21  C   UNL     1       1.266  10.162  20.130  0.00  0.00    +0.000 A 
ATOM     22  N   UNL     1       1.381   8.900  20.517  0.00  0.00    +0.000 NA
BRANCH  21  23
ATOM     23  C   UNL     1       0.799  11.228  21.035  0.00  0.00    +0.000 A 
ATOM     24  C   UNL     1       1.042  12.600  20.758  0.00  0.00    +0.000 A 
ATOM     25  C   UNL     1       0.167  13.582  21.223  0.00  0.00    +0.000 A 
ATOM     26  C   UNL     1      -0.905  13.144  21.963  0.00  0.00    +0.000 A 
ATOM     27  C   UNL     1      -0.990  11.858  22.483  0.00  0.00    +0.000 A 
ATOM     28  C   UNL     1      -0.147  10.876  22.017  0.00  0.00    +0.000 A 
ATOM     29  C   UNL     1      -2.295  11.742  23.183  0.00  0.00    +0.000 C 
ATOM     30  C   UNL     1      -3.021  12.637  22.186  0.00  0.00    +0.000 C 
ATOM     31  O   UNL     1      -2.134  13.785  22.001  0.00  0.00    +0.000 OA
ENDBRANCH  21  23
ENDBRANCH   2  18
TORSDOF 4
ENDMDL
MODEL 6
REMARK VINA RESULT:      -8.4      1.936      3.465
REMARK  Name = 
REMARK  4 active torsions:
REMARK  status: ('A' for Active; 'I' for Inactive)
REMARK    1  A    between atoms: C_2  and  C_16
REMARK    2  A    between atoms: N_3  and  C_4
REMARK    3  A    between atoms: C_9  and  C_10
REMARK    4  A    between atoms: C_19  and  C_20
REMARK                            x       y       z     vdW  Elec       q    Type
REMARK                         _______ _______ _______ _____ _____    ______ ____
ROOT
ATOM      1  O   UNL     1       2.105   6.443  20.512  0.00  0.00    +0.000 OA
ATOM      2  C   UNL     1       2.055   6.800  19.340  0.00  0.00    +0.000 C 
ATOM      3  N   UNL     1       2.244   5.965  18.247  0.00  0.00    +0.000 N 
ATOM      4  H   UNL     1       2.522   6.427  17.390  0.00  0.00    +0.000 HD
ENDROOT
BRANCH   3   5
ATOM      5  C   UNL     1       2.409   4.568  18.350  0.00  0.00    +0.000 A 
ATOM      6  C   UNL     1       1.320   3.743  18.675  0.00  0.00    +0.000 A 
ATOM      7  C   UNL     1       1.470   2.345  18.720  0.00  0.00    +0.000 A 
ATOM      8  C   UNL     1       2.707   1.777  18.448  0.00  0.00    +0.000 A 
ATOM      9  C   UNL     1       3.804   2.587  18.137  0.00  0.00    +0.000 A 
ATOM     10  C   UNL     1       3.663   3.981  18.085  0.00  0.00    +0.000 A 
BRANCH  10  11
ATOM     11  C   UNL     1       4.862   4.803  17.881  0.00  0.00    +0.000 C 
ATOM     12  C   UNL     1       5.702   5.096  18.886  0.00  0.00    +0.000 C 
ATOM     13  C   UNL     1       6.968   5.871  18.683  0.00  0.00    +0.000 C 
ATOM     14  N   UNL     1       7.376   5.973  17.278  0.00  0.00    +0.000 NA
ATOM     15  C   UNL     1       6.233   6.350  16.435  0.00  0.00    +0.000 C 
ATOM     16  C   UNL     1       5.119   5.292  16.469  0.00  0.00    +0.000 C 
ATOM     17  H   UNL     1       7.712   5.059  16.978  0.00  0.00    +0.000 HD
ENDBRANCH  10  11
ENDBRANCH   3   5
BRANCH   2  18
ATOM     18  C   UNL     1       1.856   8.209  18.977  0.00  0.00    +0.000 A 
ATOM     19  C   UNL     1       2.567   8.846  17.976  0.00  0.00    +0.000 A 
ATOM     20  S   UNL     1       2.129  10.496  17.886  0.00  0.00    +0.000 S 
ATOM     21  C   UNL     1       1.005  10.267  19.166  0.00  0.00    +0.000 A 
ATOM     22  N   UNL     1       0.943   9.029  19.633  0.00  0.00    +0.000 NA
BRANCH  21  23
ATOM     23  C   UNL     1       0.089  11.331  19.615  0.00  0.00    +0.000 A 
ATOM     24  C   UNL     1      -1.122  11.610  18.928  0.00  0.00    +0.000 A 
ATOM     25  C   UNL     1      -2.216  12.144  19.609  0.00  0.00    +0.000 A 
ATOM     26  C   UNL     1      -2.039  12.392  20.950  0.00  0.00    +0.000 A 
ATOM     27  C   UNL     1      -0.790  12.401  21.558  0.00  0.00    +0.000 A 
ATOM     28  C   UNL     1       0.292  11.859  20.905  0.00  0.00    +0.000 A 
ATOM     29  C   UNL     1      -0.997  12.663  23.005  0.00  0.00    +0.000 C 
ATOM     30  C   UNL     1      -2.304  11.882  23.060  0.00  0.00    +0.000 C 
ATOM     31  O   UNL     1      -3.056  12.332  21.890  0.00  0.00    +0.000 OA
ENDBRANCH  21  23
ENDBRANCH   2  18
TORSDOF 4
ENDMDL
MODEL 7
REMARK VINA RESULT:      -8.4      2.234      4.034
REMARK  Name = 
REMARK  4 active torsions:
REMARK  status: ('A' for Active; 'I' for Inactive)
REMARK    1  A    between atoms: C_2  and  C_16
REMARK    2  A    between atoms: N_3  and  C_4
REMARK    3  A    between atoms: C_9  and  C_10
REMARK    4  A    between atoms: C_19  and  C_20
REMARK                            x       y       z     vdW  Elec       q    Type
REMARK                         _______ _______ _______ _____ _____    ______ ____
ROOT
ATOM      1  O   UNL     1       2.897   6.229  20.411  0.00  0.00    +0.000 OA
ATOM      2  C   UNL     1       2.403   6.547  19.334  0.00  0.00    +0.000 C 
ATOM      3  N   UNL     1       2.218   5.686  18.261  0.00  0.00    +0.000 N 
ATOM      4  H   UNL     1       2.139   6.132  17.355  0.00  0.00    +0.000 HD
ENDROOT
BRANCH   3   5
ATOM      5  C   UNL     1       2.477   4.301  18.317  0.00  0.00    +0.000 A 
ATOM      6  C   UNL     1       1.524   3.418  18.850  0.00  0.00    +0.000 A 
ATOM      7  C   UNL     1       1.756   2.031  18.851  0.00  0.00    +0.000 A 
ATOM      8  C   UNL     1       2.940   1.531  18.328  0.00  0.00    +0.000 A 
ATOM      9  C   UNL     1       3.905   2.399  17.807  0.00  0.00    +0.000 A 
ATOM     10  C   UNL     1       3.681   3.783  17.796  0.00  0.00    +0.000 A 
BRANCH  10  11
ATOM     11  C   UNL     1       4.766   4.670  17.359  0.00  0.00    +0.000 C 
ATOM     12  C   UNL     1       4.914   5.032  16.075  0.00  0.00    +0.000 C 
ATOM     13  C   UNL     1       5.971   5.992  15.622  0.00  0.00    +0.000 C 
ATOM     14  N   UNL     1       6.583   6.752  16.717  0.00  0.00    +0.000 NA
ATOM     15  C   UNL     1       6.941   5.859  17.828  0.00  0.00    +0.000 C 
ATOM     16  C   UNL     1       5.706   5.175  18.435  0.00  0.00    +0.000 C 
ATOM     17  H   UNL     1       5.901   7.430  17.053  0.00  0.00    +0.000 HD
ENDBRANCH  10  11
ENDBRANCH   3   5
BRANCH   2  18
ATOM     18  C   UNL     1       2.017   7.935  19.050  0.00  0.00    +0.000 A 
ATOM     19  C   UNL     1       2.394   8.612  17.903  0.00  0.00    +0.000 A 
ATOM     20  S   UNL     1       1.832  10.225  17.947  0.00  0.00    +0.000 S 
ATOM     21  C   UNL     1       1.101   9.930  19.474  0.00  0.00    +0.000 A 
ATOM     22  N   UNL     1       1.251   8.694  19.930  0.00  0.00    +0.000 NA
BRANCH  21  23
ATOM     23  C   UNL     1       0.262  10.930  20.157  0.00  0.00    +0.000 A 
ATOM     24  C   UNL     1      -0.352  10.658  21.409  0.00  0.00    +0.000 A 
ATOM     25  C   UNL     1      -0.625  11.693  22.303  0.00  0.00    +0.000 A 
ATOM     26  C   UNL     1      -0.286  12.960  21.894  0.00  0.00    +0.000 A 
ATOM     27  C   UNL     1       0.035  13.268  20.577  0.00  0.00    +0.000 A 
ATOM     28  C   UNL     1       0.327  12.258  19.691  0.00  0.00    +0.000 A 
ATOM     29  C   UNL     1       0.381  14.711  20.525  0.00  0.00    +0.000 C 
ATOM     30  C   UNL     1       1.031  14.706  21.902  0.00  0.00    +0.000 C 
ATOM     31  O   UNL     1       0.092  13.979  22.755  0.00  0.00    +0.000 OA
ENDBRANCH  21  23
ENDBRANCH   2  18
TORSDOF 4
ENDMDL
MODEL 8
REMARK VINA RESULT:      -8.4      2.370      3.963
REMARK  Name = 
REMARK  4 active torsions:
REMARK  status: ('A' for Active; 'I' for Inactive)
REMARK    1  A    between atoms: C_2  and  C_16
REMARK    2  A    between atoms: N_3  and  C_4
REMARK    3  A    between atoms: C_9  and  C_10
REMARK    4  A    between atoms: C_19  and  C_20
REMARK                            x       y       z     vdW  Elec       q    Type
REMARK                         _______ _______ _______ _____ _____    ______ ____
ROOT
ATOM      1  O   UNL     1       2.225   6.302  20.491  0.00  0.00    +0.000 OA
ATOM      2  C   UNL     1       2.124   6.709  19.338  0.00  0.00    +0.000 C 
ATOM      3  N   UNL     1       2.292   5.927  18.204  0.00  0.00    +0.000 N 
ATOM      4  H   UNL     1       2.528   6.434  17.359  0.00  0.00    +0.000 HD
ENDROOT
BRANCH   3   5
ATOM      5  C   UNL     1       2.492   4.533  18.238  0.00  0.00    +0.000 A 
ATOM      6  C   UNL     1       1.421   3.664  18.500  0.00  0.00    +0.000 A 
ATOM      7  C   UNL     1       1.606   2.270  18.476  0.00  0.00    +0.000 A 
ATOM      8  C   UNL     1       2.862   1.748  18.198  0.00  0.00    +0.000 A 
ATOM      9  C   UNL     1       3.942   2.601  17.950  0.00  0.00    +0.000 A 
ATOM     10  C   UNL     1       3.766   3.992  17.966  0.00  0.00    +0.000 A 
BRANCH  10  11
ATOM     11  C   UNL     1       4.946   4.853  17.827  0.00  0.00    +0.000 C 
ATOM     12  C   UNL     1       5.824   5.023  18.828  0.00  0.00    +0.000 C 
ATOM     13  C   UNL     1       7.072   5.839  18.681  0.00  0.00    +0.000 C 
ATOM     14  N   UNL     1       7.419   6.136  17.287  0.00  0.00    +0.000 NA
ATOM     15  C   UNL     1       6.238   6.603  16.549  0.00  0.00    +0.000 C 
ATOM     16  C   UNL     1       5.138   5.532  16.485  0.00  0.00    +0.000 C 
ATOM     17  H   UNL     1       7.753   5.276  16.853  0.00  0.00    +0.000 HD
ENDBRANCH  10  11
ENDBRANCH   3   5
BRANCH   2  18
ATOM     18  C   UNL     1       1.881   8.128  19.047  0.00  0.00    +0.000 A 
ATOM     19  C   UNL     1       2.369   8.770  17.923  0.00  0.00    +0.000 A 
ATOM     20  S   UNL     1       1.956  10.428  17.953  0.00  0.00    +0.000 S 
ATOM     21  C   UNL     1       1.135  10.197  19.444  0.00  0.00    +0.000 A 
ATOM     22  N   UNL     1       1.150   8.952  19.898  0.00  0.00    +0.000 NA
BRANCH  21  23
ATOM     23  C   UNL     1       0.362  11.269  20.097  0.00  0.00    +0.000 A 
ATOM     24  C   UNL     1      -0.328  11.052  21.319  0.00  0.00    +0.000 A 
ATOM     25  C   UNL     1      -0.544  12.105  22.208  0.00  0.00    +0.000 A 
ATOM     26  C   UNL     1      -0.073  13.337  21.821  0.00  0.00    +0.000 A 
ATOM     27  C   UNL     1       0.332  13.617  20.521  0.00  0.00    +0.000 A 
ATOM     28  C   UNL     1       0.568  12.586  19.642  0.00  0.00    +0.000 A 
ATOM     29  C   UNL     1       0.810  15.022  20.493  0.00  0.00    +0.000 C 
ATOM     30  C   UNL     1       1.397  14.955  21.897  0.00  0.00    +0.000 C 
ATOM     31  O   UNL     1       0.359  14.314  22.704  0.00  0.00    +0.000 OA
ENDBRANCH  21  23
ENDBRANCH   2  18
TORSDOF 4
ENDMDL
MODEL 9
REMARK VINA RESULT:      -8.3      2.485      9.156
REMARK  Name = 
REMARK  4 active torsions:
REMARK  status: ('A' for Active; 'I' for Inactive)
REMARK    1  A    between atoms: C_2  and  C_16
REMARK    2  A    between atoms: N_3  and  C_4
REMARK    3  A    between atoms: C_9  and  C_10
REMARK    4  A    between atoms: C_19  and  C_20
REMARK                            x       y       z     vdW  Elec       q    Type
REMARK                         _______ _______ _______ _____ _____    ______ ____
ROOT
ATOM      1  O   UNL     1       1.366  11.965  20.310  0.00  0.00    +0.000 OA
ATOM      2  C   UNL     1       0.718  10.940  20.124  0.00  0.00    +0.000 C 
ATOM      3  N   UNL     1      -0.584  10.735  20.559  0.00  0.00    +0.000 N 
ATOM      4  H   UNL     1      -0.863   9.766  20.653  0.00  0.00    +0.000 HD
ENDROOT
BRANCH   3   5
ATOM      5  C   UNL     1      -1.367  11.730  21.177  0.00  0.00    +0.000 A 
ATOM      6  C   UNL     1      -1.127  12.102  22.510  0.00  0.00    +0.000 A 
ATOM      7  C   UNL     1      -1.867  13.136  23.110  0.00  0.00    +0.000 A 
ATOM      8  C   UNL     1      -2.850  13.791  22.380  0.00  0.00    +0.000 A 
ATOM      9  C   UNL     1      -3.111  13.422  21.057  0.00  0.00    +0.000 A 
ATOM     10  C   UNL     1      -2.374  12.396  20.448  0.00  0.00    +0.000 A 
BRANCH  10  11
ATOM     11  C   UNL     1      -2.761  11.952  19.104  0.00  0.00    +0.000 C 
ATOM     12  C   UNL     1      -4.005  11.531  18.825  0.00  0.00    +0.000 C 
ATOM     13  C   UNL     1      -4.438  11.144  17.444  0.00  0.00    +0.000 C 
ATOM     14  N   UNL     1      -3.517  11.588  16.393  0.00  0.00    +0.000 NA
ATOM     15  C   UNL     1      -2.129  11.276  16.757  0.00  0.00    +0.000 C 
ATOM     16  C   UNL     1      -1.690  12.010  18.033  0.00  0.00    +0.000 C 
ATOM     17  H   UNL     1      -3.607  12.599  16.298  0.00  0.00    +0.000 HD
ENDBRANCH  10  11
ENDBRANCH   3   5
BRANCH   2  18
ATOM     18  C   UNL     1       1.311   9.769  19.464  0.00  0.00    +0.000 A 
ATOM     19  C   UNL     1       1.695   9.756  18.135  0.00  0.00    +0.000 A 
ATOM     20  S   UNL     1       2.270   8.209  17.692  0.00  0.00    +0.000 S 
ATOM     21  C   UNL     1       1.998   7.649  19.294  0.00  0.00    +0.000 A 
ATOM     22  N   UNL     1       1.517   8.562  20.126  0.00  0.00    +0.000 NA
BRANCH  21  23
ATOM     23  C   UNL     1       2.394   6.302  19.740  0.00  0.00    +0.000 A 
ATOM     24  C   UNL     1       1.642   5.586  20.710  0.00  0.00    +0.000 A 
ATOM     25  C   UNL     1       1.631   4.192  20.710  0.00  0.00    +0.000 A 
ATOM     26  C   UNL     1       2.392   3.574  19.747  0.00  0.00    +0.000 A 
ATOM     27  C   UNL     1       3.348   4.245  18.994  0.00  0.00    +0.000 A 
ATOM     28  C   UNL     1       3.356   5.621  18.969  0.00  0.00    +0.000 A 
ATOM     29  C   UNL     1       3.932   3.271  18.038  0.00  0.00    +0.000 C 
ATOM     30  C   UNL     1       2.617   2.529  17.839  0.00  0.00    +0.000 C 
ATOM     31  O   UNL     1       2.086   2.343  19.189  0.00  0.00    +0.000 OA
ENDBRANCH  21  23
ENDBRANCH   2  18
TORSDOF 4
ENDMDL
