MODEL 1
REMARK VINA RESULT:      -9.5      0.000      0.000
REMARK  Name = 
REMARK  6 active torsions:
REMARK  status: ('A' for Active; 'I' for Inactive)
REMARK    1  A    between atoms: C_1  and  C_2
REMARK    2  A    between atoms: N_10  and  C_11
REMARK    3  A    between atoms: C_11  and  C_12
REMARK    4  A    between atoms: C_15  and  C_16
REMARK    5  A    between atoms: C_16  and  C_18
REMARK    6  A    between atoms: C_23  and  C_24
REMARK                            x       y       z     vdW  Elec       q    Type
REMARK                         _______ _______ _______ _____ _____    ______ ____
ROOT
ATOM      1  C   UNL     1       1.281  10.631  18.675  0.00  0.00    +0.000 C 
ATOM      2  O   UNL     1       2.161  11.331  18.180  0.00  0.00    +0.000 OA
ENDROOT
BRANCH   1   3
ATOM      3  C   UNL     1      -0.040  11.169  19.014  0.00  0.00    +0.000 A 
ATOM      4  C   UNL     1      -1.179  10.861  18.288  0.00  0.00    +0.000 A 
ATOM      5  N   UNL     1      -2.253  11.469  18.874  0.00  0.00    +0.000 N 
ATOM      6  C   UNL     1      -1.846  12.203  19.963  0.00  0.00    +0.000 A 
ATOM      7  C   UNL     1      -2.605  12.978  20.856  0.00  0.00    +0.000 A 
ATOM      8  C   UNL     1      -1.958  13.664  21.904  0.00  0.00    +0.000 A 
ATOM      9  C   UNL     1      -0.561  13.566  21.983  0.00  0.00    +0.000 A 
ATOM     10  C   UNL     1       0.189  12.818  21.061  0.00  0.00    +0.000 A 
ATOM     11  C   UNL     1      -0.460  12.080  20.050  0.00  0.00    +0.000 A 
ATOM     12  H   UNL     1      -3.209  11.398  18.553  0.00  0.00    +0.000 HD
BRANCH   8  13
ATOM     13  C   UNL     1      -2.731  14.491  22.869  0.00  0.00    +0.000 A 
ATOM     14  C   UNL     1      -3.978  15.052  22.524  0.00  0.00    +0.000 A 
ATOM     15  C   UNL     1      -4.682  15.869  23.415  0.00  0.00    +0.000 A 
ATOM     16  C   UNL     1      -4.160  16.121  24.673  0.00  0.00    +0.000 A 
ATOM     17  F   UNL     1      -4.830  16.907  25.525  0.00  0.00    +0.000 F 
ATOM     18  C   UNL     1      -2.949  15.567  25.060  0.00  0.00    +0.000 A 
ATOM     19  C   UNL     1      -2.239  14.764  24.162  0.00  0.00    +0.000 A 
ENDBRANCH   8  13
ENDBRANCH   1   3
BRANCH   1  23
ATOM     20  C   UNL     1       2.520   6.605  19.465  0.00  0.00    +0.000 A 
ATOM     21  C   UNL     1       2.614   7.144  18.171  0.00  0.00    +0.000 A 
ATOM     22  C   UNL     1       2.155   8.436  17.908  0.00  0.00    +0.000 A 
ATOM     23  C   UNL     1       1.579   9.195  18.932  0.00  0.00    +0.000 A 
ATOM     24  C   UNL     1       1.324   8.595  20.171  0.00  0.00    +0.000 A 
ATOM     25  C   UNL     1       1.809   7.316  20.442  0.00  0.00    +0.000 A 
BRANCH  20  26
ATOM     26  C   UNL     1       3.203   5.306  19.824  0.00  0.00    +0.000 C 
BRANCH  26  36
ATOM     27  C   UNL     1       1.896   3.532  17.683  0.00  0.00    +0.000 C 
ATOM     28  C   UNL     1       3.313   3.974  17.676  0.00  0.00    +0.000 A 
ATOM     29  N   UNL     1       4.178   3.710  16.722  0.00  0.00    +0.000 NA
ATOM     30  C   UNL     1       5.371   4.255  17.126  0.00  0.00    +0.000 A 
ATOM     31  C   UNL     1       6.617   4.271  16.492  0.00  0.00    +0.000 A 
ATOM     32  N   UNL     1       7.688   4.853  17.091  0.00  0.00    +0.000 NA
ATOM     33  C   UNL     1       7.523   5.408  18.313  0.00  0.00    +0.000 A 
ATOM     34  C   UNL     1       6.326   5.450  19.021  0.00  0.00    +0.000 A 
ATOM     35  C   UNL     1       5.238   4.859  18.373  0.00  0.00    +0.000 A 
ATOM     36  N   UNL     1       3.897   4.727  18.676  0.00  0.00    +0.000 N 
ENDBRANCH  26  36
ENDBRANCH  20  26
ENDBRANCH   1  23
TORSDOF 5
ENDMDL
MODEL 2
REMARK VINA RESULT:      -9.4      1.277      1.505
REMARK  Name = 
REMARK  6 active torsions:
REMARK  status: ('A' for Active; 'I' for Inactive)
REMARK    1  A    between atoms: C_1  and  C_2
REMARK    2  A    between atoms: N_10  and  C_11
REMARK    3  A    between atoms: C_11  and  C_12
REMARK    4  A    between atoms: C_15  and  C_16
REMARK    5  A    between atoms: C_16  and  C_18
REMARK    6  A    between atoms: C_23  and  C_24
REMARK                            x       y       z     vdW  Elec       q    Type
REMARK                         _______ _______ _______ _____ _____    ______ ____
ROOT
ATOM      1  C   UNL     1       1.032  10.531  18.585  0.00  0.00    +0.000 C 
ATOM      2  O   UNL     1       1.913  11.349  18.329  0.00  0.00    +0.000 OA
ENDROOT
BRANCH   1   3
ATOM      3  C   UNL     1      -0.388  10.897  18.597  0.00  0.00    +0.000 A 
ATOM      4  C   UNL     1      -1.229  10.656  17.523  0.00  0.00    +0.000 A 
ATOM      5  N   UNL     1      -2.492  11.061  17.852  0.00  0.00    +0.000 N 
ATOM      6  C   UNL     1      -2.502  11.595  19.119  0.00  0.00    +0.000 A 
ATOM      7  C   UNL     1      -3.572  12.125  19.860  0.00  0.00    +0.000 A 
ATOM      8  C   UNL     1      -3.337  12.638  21.152  0.00  0.00    +0.000 A 
ATOM      9  C   UNL     1      -2.018  12.626  21.628  0.00  0.00    +0.000 A 
ATOM     10  C   UNL     1      -0.951  12.128  20.862  0.00  0.00    +0.000 A 
ATOM     11  C   UNL     1      -1.193  11.556  19.595  0.00  0.00    +0.000 A 
ATOM     12  H   UNL     1      -3.302  10.985  17.253  0.00  0.00    +0.000 HD
BRANCH   8  13
ATOM     13  C   UNL     1      -4.447  13.203  21.964  0.00  0.00    +0.000 A 
ATOM     14  C   UNL     1      -5.797  12.961  21.636  0.00  0.00    +0.000 A 
ATOM     15  C   UNL     1      -6.841  13.533  22.371  0.00  0.00    +0.000 A 
ATOM     16  C   UNL     1      -6.551  14.338  23.461  0.00  0.00    +0.000 A 
ATOM     17  F   UNL     1      -7.549  14.890  24.162  0.00  0.00    +0.000 F 
ATOM     18  C   UNL     1      -5.237  14.581  23.831  0.00  0.00    +0.000 A 
ATOM     19  C   UNL     1      -4.195  14.022  23.085  0.00  0.00    +0.000 A 
ENDBRANCH   8  13
ENDBRANCH   1   3
BRANCH   1  23
ATOM     20  C   UNL     1       2.560   6.633  19.499  0.00  0.00    +0.000 A 
ATOM     21  C   UNL     1       2.600   7.129  18.186  0.00  0.00    +0.000 A 
ATOM     22  C   UNL     1       2.048   8.376  17.883  0.00  0.00    +0.000 A 
ATOM     23  C   UNL     1       1.434   9.130  18.888  0.00  0.00    +0.000 A 
ATOM     24  C   UNL     1       1.236   8.559  20.151  0.00  0.00    +0.000 A 
ATOM     25  C   UNL     1       1.813   7.328  20.460  0.00  0.00    +0.000 A 
BRANCH  20  26
ATOM     26  C   UNL     1       3.338   5.399  19.894  0.00  0.00    +0.000 C 
BRANCH  26  36
ATOM     27  C   UNL     1       1.834   3.410  18.099  0.00  0.00    +0.000 C 
ATOM     28  C   UNL     1       3.228   3.871  17.881  0.00  0.00    +0.000 A 
ATOM     29  N   UNL     1       3.980   3.531  16.858  0.00  0.00    +0.000 NA
ATOM     30  C   UNL     1       5.199   4.130  17.064  0.00  0.00    +0.000 A 
ATOM     31  C   UNL     1       6.360   4.105  16.285  0.00  0.00    +0.000 A 
ATOM     32  N   UNL     1       7.479   4.757  16.695  0.00  0.00    +0.000 NA
ATOM     33  C   UNL     1       7.444   5.424  17.871  0.00  0.00    +0.000 A 
ATOM     34  C   UNL     1       6.339   5.514  18.711  0.00  0.00    +0.000 A 
ATOM     35  C   UNL     1       5.198   4.848  18.257  0.00  0.00    +0.000 A 
ATOM     36  N   UNL     1       3.906   4.724  18.729  0.00  0.00    +0.000 N 
ENDBRANCH  26  36
ENDBRANCH  20  26
ENDBRANCH   1  23
TORSDOF 5
ENDMDL
MODEL 3
REMARK VINA RESULT:      -9.4      4.433     11.439
REMARK  Name = 
REMARK  6 active torsions:
REMARK  status: ('A' for Active; 'I' for Inactive)
REMARK    1  A    between atoms: C_1  and  C_2
REMARK    2  A    between atoms: N_10  and  C_11
REMARK    3  A    between atoms: C_11  and  C_12
REMARK    4  A    between atoms: C_15  and  C_16
REMARK    5  A    between atoms: C_16  and  C_18
REMARK    6  A    between atoms: C_23  and  C_24
REMARK                            x       y       z     vdW  Elec       q    Type
REMARK                         _______ _______ _______ _____ _____    ______ ____
ROOT
ATOM      1  C   UNL     1      -0.201  11.646  20.746  0.00  0.00    +0.000 C 
ATOM      2  O   UNL     1       0.213  12.019  21.841  0.00  0.00    +0.000 OA
ENDROOT
BRANCH   1   3
ATOM      3  C   UNL     1       0.558  10.717  19.903  0.00  0.00    +0.000 A 
ATOM      4  C   UNL     1       1.043  11.070  18.655  0.00  0.00    +0.000 A 
ATOM      5  N   UNL     1       1.744  10.016  18.140  0.00  0.00    +0.000 N 
ATOM      6  C   UNL     1       1.710   8.954  19.012  0.00  0.00    +0.000 A 
ATOM      7  C   UNL     1       2.294   7.680  18.898  0.00  0.00    +0.000 A 
ATOM      8  C   UNL     1       2.108   6.735  19.927  0.00  0.00    +0.000 A 
ATOM      9  C   UNL     1       1.305   7.106  21.016  0.00  0.00    +0.000 A 
ATOM     10  C   UNL     1       0.696   8.369  21.100  0.00  0.00    +0.000 A 
ATOM     11  C   UNL     1       0.932   9.339  20.103  0.00  0.00    +0.000 A 
ATOM     12  H   UNL     1       2.216  10.011  17.246  0.00  0.00    +0.000 HD
BRANCH   8  13
ATOM     13  C   UNL     1       2.713   5.380  19.839  0.00  0.00    +0.000 A 
ATOM     14  C   UNL     1       2.348   4.351  20.732  0.00  0.00    +0.000 A 
ATOM     15  C   UNL     1       2.952   3.090  20.680  0.00  0.00    +0.000 A 
ATOM     16  C   UNL     1       3.918   2.833  19.720  0.00  0.00    +0.000 A 
ATOM     17  F   UNL     1       4.501   1.628  19.674  0.00  0.00    +0.000 F 
ATOM     18  C   UNL     1       4.287   3.810  18.808  0.00  0.00    +0.000 A 
ATOM     19  C   UNL     1       3.693   5.074  18.872  0.00  0.00    +0.000 A 
ENDBRANCH   8  13
ENDBRANCH   1   3
BRANCH   1  23
ATOM     20  C   UNL     1      -4.153  12.821  19.578  0.00  0.00    +0.000 A 
ATOM     21  C   UNL     1      -3.436  11.875  18.829  0.00  0.00    +0.000 A 
ATOM     22  C   UNL     1      -2.127  11.538  19.181  0.00  0.00    +0.000 A 
ATOM     23  C   UNL     1      -1.516  12.161  20.274  0.00  0.00    +0.000 A 
ATOM     24  C   UNL     1      -2.164  13.228  20.907  0.00  0.00    +0.000 A 
ATOM     25  C   UNL     1      -3.482  13.543  20.574  0.00  0.00    +0.000 A 
BRANCH  20  26
ATOM     26  C   UNL     1      -5.632  13.038  19.355  0.00  0.00    +0.000 C 
BRANCH  26  36
ATOM     27  C   UNL     1      -6.765  10.212  18.940  0.00  0.00    +0.000 C 
ATOM     28  C   UNL     1      -6.907  11.015  20.181  0.00  0.00    +0.000 A 
ATOM     29  N   UNL     1      -7.487  10.596  21.284  0.00  0.00    +0.000 NA
ATOM     30  C   UNL     1      -7.447  11.652  22.160  0.00  0.00    +0.000 A 
ATOM     31  C   UNL     1      -7.917  11.754  23.473  0.00  0.00    +0.000 A 
ATOM     32  N   UNL     1      -7.794  12.919  24.161  0.00  0.00    +0.000 NA
ATOM     33  C   UNL     1      -7.216  13.975  23.546  0.00  0.00    +0.000 A 
ATOM     34  C   UNL     1      -6.712  13.973  22.250  0.00  0.00    +0.000 A 
ATOM     35  C   UNL     1      -6.836  12.757  21.572  0.00  0.00    +0.000 A 
ATOM     36  N   UNL     1      -6.437  12.305  20.329  0.00  0.00    +0.000 N 
ENDBRANCH  26  36
ENDBRANCH  20  26
ENDBRANCH   1  23
TORSDOF 5
ENDMDL
MODEL 4
REMARK VINA RESULT:      -9.2      1.594      2.086
REMARK  Name = 
REMARK  6 active torsions:
REMARK  status: ('A' for Active; 'I' for Inactive)
REMARK    1  A    between atoms: C_1  and  C_2
REMARK    2  A    between atoms: N_10  and  C_11
REMARK    3  A    between atoms: C_11  and  C_12
REMARK    4  A    between atoms: C_15  and  C_16
REMARK    5  A    between atoms: C_16  and  C_18
REMARK    6  A    between atoms: C_23  and  C_24
REMARK                            x       y       z     vdW  Elec       q    Type
REMARK                         _______ _______ _______ _____ _____    ______ ____
ROOT
ATOM      1  C   UNL     1       0.410  10.262  18.596  0.00  0.00    +0.000 C 
ATOM      2  O   UNL     1      -0.540  10.060  17.843  0.00  0.00    +0.000 OA
ENDROOT
BRANCH   1   3
ATOM      3  C   UNL     1       0.686  11.587  19.160  0.00  0.00    +0.000 A 
ATOM      4  C   UNL     1       1.541  12.492  18.554  0.00  0.00    +0.000 A 
ATOM      5  N   UNL     1       1.555  13.646  19.286  0.00  0.00    +0.000 N 
ATOM      6  C   UNL     1       0.743  13.516  20.388  0.00  0.00    +0.000 A 
ATOM      7  C   UNL     1       0.454  14.443  21.404  0.00  0.00    +0.000 A 
ATOM      8  C   UNL     1      -0.407  14.076  22.457  0.00  0.00    +0.000 A 
ATOM      9  C   UNL     1      -0.914  12.768  22.459  0.00  0.00    +0.000 A 
ATOM     10  C   UNL     1      -0.587  11.838  21.458  0.00  0.00    +0.000 A 
ATOM     11  C   UNL     1       0.224  12.222  20.369  0.00  0.00    +0.000 A 
ATOM     12  H   UNL     1       2.086  14.474  19.058  0.00  0.00    +0.000 HD
BRANCH   8  13
ATOM     13  C   UNL     1      -0.736  15.034  23.545  0.00  0.00    +0.000 A 
ATOM     14  C   UNL     1      -1.731  14.747  24.504  0.00  0.00    +0.000 A 
ATOM     15  C   UNL     1      -2.073  15.668  25.500  0.00  0.00    +0.000 A 
ATOM     16  C   UNL     1      -1.412  16.884  25.565  0.00  0.00    +0.000 A 
ATOM     17  F   UNL     1      -1.743  17.769  26.514  0.00  0.00    +0.000 F 
ATOM     18  C   UNL     1      -0.411  17.194  24.656  0.00  0.00    +0.000 A 
ATOM     19  C   UNL     1      -0.082  16.278  23.653  0.00  0.00    +0.000 A 
ENDBRANCH   8  13
ENDBRANCH   1   3
BRANCH   1  23
ATOM     20  C   UNL     1       2.645   6.735  19.558  0.00  0.00    +0.000 A 
ATOM     21  C   UNL     1       1.965   7.448  20.559  0.00  0.00    +0.000 A 
ATOM     22  C   UNL     1       1.286   8.628  20.249  0.00  0.00    +0.000 A 
ATOM     23  C   UNL     1       1.299   9.117  18.939  0.00  0.00    +0.000 A 
ATOM     24  C   UNL     1       2.121   8.507  17.985  0.00  0.00    +0.000 A 
ATOM     25  C   UNL     1       2.774   7.312  18.287  0.00  0.00    +0.000 A 
BRANCH  20  26
ATOM     26  C   UNL     1       3.196   5.352  19.819  0.00  0.00    +0.000 C 
BRANCH  26  36
ATOM     27  C   UNL     1       1.782   3.801  17.575  0.00  0.00    +0.000 C 
ATOM     28  C   UNL     1       3.225   4.151  17.593  0.00  0.00    +0.000 A 
ATOM     29  N   UNL     1       4.072   3.891  16.622  0.00  0.00    +0.000 NA
ATOM     30  C   UNL     1       5.297   4.332  17.057  0.00  0.00    +0.000 A 
ATOM     31  C   UNL     1       6.543   4.308  16.423  0.00  0.00    +0.000 A 
ATOM     32  N   UNL     1       7.648   4.782  17.055  0.00  0.00    +0.000 NA
ATOM     33  C   UNL     1       7.516   5.270  18.309  0.00  0.00    +0.000 A 
ATOM     34  C   UNL     1       6.323   5.344  19.021  0.00  0.00    +0.000 A 
ATOM     35  C   UNL     1       5.201   4.866  18.340  0.00  0.00    +0.000 A 
ATOM     36  N   UNL     1       3.853   4.801  18.636  0.00  0.00    +0.000 N 
ENDBRANCH  26  36
ENDBRANCH  20  26
ENDBRANCH   1  23
TORSDOF 5
ENDMDL
MODEL 5
REMARK VINA RESULT:      -9.2      4.280     11.671
REMARK  Name = 
REMARK  6 active torsions:
REMARK  status: ('A' for Active; 'I' for Inactive)
REMARK    1  A    between atoms: C_1  and  C_2
REMARK    2  A    between atoms: N_10  and  C_11
REMARK    3  A    between atoms: C_11  and  C_12
REMARK    4  A    between atoms: C_15  and  C_16
REMARK    5  A    between atoms: C_16  and  C_18
REMARK    6  A    between atoms: C_23  and  C_24
REMARK                            x       y       z     vdW  Elec       q    Type
REMARK                         _______ _______ _______ _____ _____    ______ ____
ROOT
ATOM      1  C   UNL     1       0.819  11.855  20.809  0.00  0.00    +0.000 C 
ATOM      2  O   UNL     1       1.665  12.644  21.224  0.00  0.00    +0.000 OA
ENDROOT
BRANCH   1   3
ATOM      3  C   UNL     1       1.120  10.874  19.762  0.00  0.00    +0.000 A 
ATOM      4  C   UNL     1       1.192  11.213  18.421  0.00  0.00    +0.000 A 
ATOM      5  N   UNL     1       1.535  10.103  17.702  0.00  0.00    +0.000 N 
ATOM      6  C   UNL     1       1.665   9.020  18.539  0.00  0.00    +0.000 A 
ATOM      7  C   UNL     1       2.006   7.690  18.239  0.00  0.00    +0.000 A 
ATOM      8  C   UNL     1       2.063   6.735  19.274  0.00  0.00    +0.000 A 
ATOM      9  C   UNL     1       1.734   7.159  20.570  0.00  0.00    +0.000 A 
ATOM     10  C   UNL     1       1.357   8.483  20.851  0.00  0.00    +0.000 A 
ATOM     11  C   UNL     1       1.361   9.454  19.828  0.00  0.00    +0.000 A 
ATOM     12  H   UNL     1       1.669  10.075  16.701  0.00  0.00    +0.000 HD
BRANCH   8  13
ATOM     13  C   UNL     1       2.423   5.321  18.992  0.00  0.00    +0.000 A 
ATOM     14  C   UNL     1       3.187   4.560  19.901  0.00  0.00    +0.000 A 
ATOM     15  C   UNL     1       3.567   3.244  19.614  0.00  0.00    +0.000 A 
ATOM     16  C   UNL     1       3.172   2.662  18.421  0.00  0.00    +0.000 A 
ATOM     17  F   UNL     1       3.540   1.405  18.142  0.00  0.00    +0.000 F 
ATOM     18  C   UNL     1       2.399   3.368  17.511  0.00  0.00    +0.000 A 
ATOM     19  C   UNL     1       2.034   4.688  17.793  0.00  0.00    +0.000 A 
ENDBRANCH   8  13
ENDBRANCH   1   3
BRANCH   1  23
ATOM     20  C   UNL     1      -2.986  12.308  22.727  0.00  0.00    +0.000 A 
ATOM     21  C   UNL     1      -1.977  11.526  23.312  0.00  0.00    +0.000 A 
ATOM     22  C   UNL     1      -0.759  11.335  22.654  0.00  0.00    +0.000 A 
ATOM     23  C   UNL     1      -0.548  11.908  21.396  0.00  0.00    +0.000 A 
ATOM     24  C   UNL     1      -1.613  12.535  20.739  0.00  0.00    +0.000 A 
ATOM     25  C   UNL     1      -2.818  12.751  21.408  0.00  0.00    +0.000 A 
BRANCH  20  26
ATOM     26  C   UNL     1      -4.216  12.710  23.508  0.00  0.00    +0.000 C 
BRANCH  26  36
ATOM     27  C   UNL     1      -6.357  14.396  22.089  0.00  0.00    +0.000 C 
ATOM     28  C   UNL     1      -5.330  14.928  23.019  0.00  0.00    +0.000 A 
ATOM     29  N   UNL     1      -5.241  16.183  23.400  0.00  0.00    +0.000 NA
ATOM     30  C   UNL     1      -4.137  16.257  24.214  0.00  0.00    +0.000 A 
ATOM     31  C   UNL     1      -3.587  17.349  24.891  0.00  0.00    +0.000 A 
ATOM     32  N   UNL     1      -2.458  17.203  25.633  0.00  0.00    +0.000 NA
ATOM     33  C   UNL     1      -1.879  15.982  25.694  0.00  0.00    +0.000 A 
ATOM     34  C   UNL     1      -2.351  14.836  25.064  0.00  0.00    +0.000 A 
ATOM     35  C   UNL     1      -3.523  15.012  24.323  0.00  0.00    +0.000 A 
ATOM     36  N   UNL     1      -4.342  14.163  23.605  0.00  0.00    +0.000 N 
ENDBRANCH  26  36
ENDBRANCH  20  26
ENDBRANCH   1  23
TORSDOF 5
ENDMDL
MODEL 6
REMARK VINA RESULT:      -9.1      4.462     11.680
REMARK  Name = 
REMARK  6 active torsions:
REMARK  status: ('A' for Active; 'I' for Inactive)
REMARK    1  A    between atoms: C_1  and  C_2
REMARK    2  A    between atoms: N_10  and  C_11
REMARK    3  A    between atoms: C_11  and  C_12
REMARK    4  A    between atoms: C_15  and  C_16
REMARK    5  A    between atoms: C_16  and  C_18
REMARK    6  A    between atoms: C_23  and  C_24
REMARK                            x       y       z     vdW  Elec       q    Type
REMARK                         _______ _______ _______ _____ _____    ______ ____
ROOT
ATOM      1  C   UNL     1       0.436  11.561  19.742  0.00  0.00    +0.000 C 
ATOM      2  O   UNL     1       1.167  12.180  18.973  0.00  0.00    +0.000 OA
ENDROOT
BRANCH   1   3
ATOM      3  C   UNL     1       0.813  10.254  20.289  0.00  0.00    +0.000 A 
ATOM      4  C   UNL     1       0.707   9.951  21.636  0.00  0.00    +0.000 A 
ATOM      5  N   UNL     1       1.084   8.651  21.828  0.00  0.00    +0.000 N 
ATOM      6  C   UNL     1       1.469   8.090  20.633  0.00  0.00    +0.000 A 
ATOM      7  C   UNL     1       1.921   6.788  20.358  0.00  0.00    +0.000 A 
ATOM      8  C   UNL     1       2.279   6.439  19.040  0.00  0.00    +0.000 A 
ATOM      9  C   UNL     1       2.198   7.436  18.057  0.00  0.00    +0.000 A 
ATOM     10  C   UNL     1       1.780   8.745  18.352  0.00  0.00    +0.000 A 
ATOM     11  C   UNL     1       1.361   9.079  19.657  0.00  0.00    +0.000 A 
ATOM     12  H   UNL     1       1.088   8.171  22.716  0.00  0.00    +0.000 HD
BRANCH   8  13
ATOM     13  C   UNL     1       2.759   5.070  18.715  0.00  0.00    +0.000 A 
ATOM     14  C   UNL     1       3.476   4.803  17.530  0.00  0.00    +0.000 A 
ATOM     15  C   UNL     1       3.886   3.507  17.200  0.00  0.00    +0.000 A 
ATOM     16  C   UNL     1       3.603   2.459  18.062  0.00  0.00    +0.000 A 
ATOM     17  F   UNL     1       3.989   1.217  17.745  0.00  0.00    +0.000 F 
ATOM     18  C   UNL     1       2.921   2.683  19.248  0.00  0.00    +0.000 A 
ATOM     19  C   UNL     1       2.499   3.977  19.568  0.00  0.00    +0.000 A 
ENDBRANCH   8  13
ENDBRANCH   1   3
BRANCH   1  23
ATOM     20  C   UNL     1      -3.220  13.621  20.607  0.00  0.00    +0.000 A 
ATOM     21  C   UNL     1      -2.056  13.887  21.345  0.00  0.00    +0.000 A 
ATOM     22  C   UNL     1      -0.882  13.171  21.097  0.00  0.00    +0.000 A 
ATOM     23  C   UNL     1      -0.869  12.169  20.122  0.00  0.00    +0.000 A 
ATOM     24  C   UNL     1      -2.070  11.784  19.515  0.00  0.00    +0.000 A 
ATOM     25  C   UNL     1      -3.234  12.518  19.741  0.00  0.00    +0.000 A 
BRANCH  20  26
ATOM     26  C   UNL     1      -4.429  14.523  20.700  0.00  0.00    +0.000 C 
BRANCH  26  36
ATOM     27  C   UNL     1      -6.479  13.964  18.480  0.00  0.00    +0.000 C 
ATOM     28  C   UNL     1      -6.565  13.450  19.871  0.00  0.00    +0.000 A 
ATOM     29  N   UNL     1      -7.501  12.642  20.316  0.00  0.00    +0.000 NA
ATOM     30  C   UNL     1      -7.239  12.454  21.650  0.00  0.00    +0.000 A 
ATOM     31  C   UNL     1      -7.915  11.685  22.603  0.00  0.00    +0.000 A 
ATOM     32  N   UNL     1      -7.494  11.661  23.894  0.00  0.00    +0.000 NA
ATOM     33  C   UNL     1      -6.414  12.399  24.235  0.00  0.00    +0.000 A 
ATOM     34  C   UNL     1      -5.672  13.188  23.363  0.00  0.00    +0.000 A 
ATOM     35  C   UNL     1      -6.117  13.181  22.039  0.00  0.00    +0.000 A 
ATOM     36  N   UNL     1      -5.662  13.757  20.869  0.00  0.00    +0.000 N 
ENDBRANCH  26  36
ENDBRANCH  20  26
ENDBRANCH   1  23
TORSDOF 5
ENDMDL
MODEL 7
REMARK VINA RESULT:      -9.1      5.524     10.460
REMARK  Name = 
REMARK  6 active torsions:
REMARK  status: ('A' for Active; 'I' for Inactive)
REMARK    1  A    between atoms: C_1  and  C_2
REMARK    2  A    between atoms: N_10  and  C_11
REMARK    3  A    between atoms: C_11  and  C_12
REMARK    4  A    between atoms: C_15  and  C_16
REMARK    5  A    between atoms: C_16  and  C_18
REMARK    6  A    between atoms: C_23  and  C_24
REMARK                            x       y       z     vdW  Elec       q    Type
REMARK                         _______ _______ _______ _____ _____    ______ ____
ROOT
ATOM      1  C   UNL     1      -0.093  10.989  20.782  0.00  0.00    +0.000 C 
ATOM      2  O   UNL     1      -1.189  11.131  21.319  0.00  0.00    +0.000 OA
ENDROOT
BRANCH   1   3
ATOM      3  C   UNL     1       0.625   9.712  20.806  0.00  0.00    +0.000 A 
ATOM      4  C   UNL     1       0.684   8.910  21.934  0.00  0.00    +0.000 A 
ATOM      5  N   UNL     1       1.378   7.772  21.632  0.00  0.00    +0.000 N 
ATOM      6  C   UNL     1       1.809   7.814  20.327  0.00  0.00    +0.000 A 
ATOM      7  C   UNL     1       2.546   6.868  19.595  0.00  0.00    +0.000 A 
ATOM      8  C   UNL     1       2.892   7.139  18.256  0.00  0.00    +0.000 A 
ATOM      9  C   UNL     1       2.507   8.377  17.722  0.00  0.00    +0.000 A 
ATOM     10  C   UNL     1       1.803   9.331  18.476  0.00  0.00    +0.000 A 
ATOM     11  C   UNL     1       1.401   9.037  19.796  0.00  0.00    +0.000 A 
ATOM     12  H   UNL     1       1.555   7.011  22.272  0.00  0.00    +0.000 HD
BRANCH   8  13
ATOM     13  C   UNL     1       3.668   6.158  17.453  0.00  0.00    +0.000 A 
ATOM     14  C   UNL     1       3.424   4.772  17.546  0.00  0.00    +0.000 A 
ATOM     15  C   UNL     1       4.187   3.846  16.826  0.00  0.00    +0.000 A 
ATOM     16  C   UNL     1       5.193   4.294  15.984  0.00  0.00    +0.000 A 
ATOM     17  F   UNL     1       5.927   3.408  15.299  0.00  0.00    +0.000 F 
ATOM     18  C   UNL     1       5.448   5.650  15.846  0.00  0.00    +0.000 A 
ATOM     19  C   UNL     1       4.695   6.572  16.578  0.00  0.00    +0.000 A 
ENDBRANCH   8  13
ENDBRANCH   1   3
BRANCH   1  23
ATOM     20  C   UNL     1       1.884  14.101  18.597  0.00  0.00    +0.000 A 
ATOM     21  C   UNL     1       2.430  13.606  19.792  0.00  0.00    +0.000 A 
ATOM     22  C   UNL     1       1.752  12.633  20.530  0.00  0.00    +0.000 A 
ATOM     23  C   UNL     1       0.512  12.161  20.089  0.00  0.00    +0.000 A 
ATOM     24  C   UNL     1      -0.112  12.780  19.000  0.00  0.00    +0.000 A 
ATOM     25  C   UNL     1       0.578  13.730  18.247  0.00  0.00    +0.000 A 
BRANCH  20  26
ATOM     26  C   UNL     1       2.692  14.983  17.673  0.00  0.00    +0.000 C 
BRANCH  26  36
ATOM     27  C   UNL     1       1.841  17.496  19.225  0.00  0.00    +0.000 C 
ATOM     28  C   UNL     1       3.223  16.957  19.164  0.00  0.00    +0.000 A 
ATOM     29  N   UNL     1       4.252  17.455  19.813  0.00  0.00    +0.000 NA
ATOM     30  C   UNL     1       5.338  16.699  19.445  0.00  0.00    +0.000 A 
ATOM     31  C   UNL     1       6.676  16.790  19.838  0.00  0.00    +0.000 A 
ATOM     32  N   UNL     1       7.605  15.943  19.323  0.00  0.00    +0.000 NA
ATOM     33  C   UNL     1       7.207  15.019  18.420  0.00  0.00    +0.000 A 
ATOM     34  C   UNL     1       5.903  14.844  17.971  0.00  0.00    +0.000 A 
ATOM     35  C   UNL     1       4.965  15.717  18.531  0.00  0.00    +0.000 A 
ATOM     36  N   UNL     1       3.596  15.858  18.417  0.00  0.00    +0.000 N 
ENDBRANCH  26  36
ENDBRANCH  20  26
ENDBRANCH   1  23
TORSDOF 5
ENDMDL
MODEL 8
REMARK VINA RESULT:      -9.1      4.359     11.517
REMARK  Name = 
REMARK  6 active torsions:
REMARK  status: ('A' for Active; 'I' for Inactive)
REMARK    1  A    between atoms: C_1  and  C_2
REMARK    2  A    between atoms: N_10  and  C_11
REMARK    3  A    between atoms: C_11  and  C_12
REMARK    4  A    between atoms: C_15  and  C_16
REMARK    5  A    between atoms: C_16  and  C_18
REMARK    6  A    between atoms: C_23  and  C_24
REMARK                            x       y       z     vdW  Elec       q    Type
REMARK                         _______ _______ _______ _____ _____    ______ ____
ROOT
ATOM      1  C   UNL     1       0.834  11.688  20.820  0.00  0.00    +0.000 C 
ATOM      2  O   UNL     1       1.684  12.387  21.366  0.00  0.00    +0.000 OA
ENDROOT
BRANCH   1   3
ATOM      3  C   UNL     1       1.179  10.722  19.772  0.00  0.00    +0.000 A 
ATOM      4  C   UNL     1       1.308  11.081  18.440  0.00  0.00    +0.000 A 
ATOM      5  N   UNL     1       1.680   9.981  17.721  0.00  0.00    +0.000 N 
ATOM      6  C   UNL     1       1.774   8.885  18.546  0.00  0.00    +0.000 A 
ATOM      7  C   UNL     1       2.128   7.560  18.242  0.00  0.00    +0.000 A 
ATOM      8  C   UNL     1       2.140   6.590  19.264  0.00  0.00    +0.000 A 
ATOM      9  C   UNL     1       1.757   6.995  20.551  0.00  0.00    +0.000 A 
ATOM     10  C   UNL     1       1.368   8.315  20.835  0.00  0.00    +0.000 A 
ATOM     11  C   UNL     1       1.416   9.301  19.828  0.00  0.00    +0.000 A 
ATOM     12  H   UNL     1       1.856   9.968  16.726  0.00  0.00    +0.000 HD
BRANCH   8  13
ATOM     13  C   UNL     1       2.512   5.180  18.976  0.00  0.00    +0.000 A 
ATOM     14  C   UNL     1       2.164   4.560  17.758  0.00  0.00    +0.000 A 
ATOM     15  C   UNL     1       2.472   3.218  17.507  0.00  0.00    +0.000 A 
ATOM     16  C   UNL     1       3.153   2.481  18.463  0.00  0.00    +0.000 A 
ATOM     17  F   UNL     1       3.444   1.196  18.225  0.00  0.00    +0.000 F 
ATOM     18  C   UNL     1       3.535   3.061  19.663  0.00  0.00    +0.000 A 
ATOM     19  C   UNL     1       3.212   4.397  19.918  0.00  0.00    +0.000 A 
ENDBRANCH   8  13
ENDBRANCH   1   3
BRANCH   1  23
ATOM     20  C   UNL     1      -3.142  12.456  22.223  0.00  0.00    +0.000 A 
ATOM     21  C   UNL     1      -2.203  11.813  23.046  0.00  0.00    +0.000 A 
ATOM     22  C   UNL     1      -0.927  11.514  22.563  0.00  0.00    +0.000 A 
ATOM     23  C   UNL     1      -0.585  11.837  21.246  0.00  0.00    +0.000 A 
ATOM     24  C   UNL     1      -1.574  12.312  20.376  0.00  0.00    +0.000 A 
ATOM     25  C   UNL     1      -2.838  12.638  20.866  0.00  0.00    +0.000 A 
BRANCH  20  26
ATOM     26  C   UNL     1      -4.441  12.986  22.784  0.00  0.00    +0.000 C 
BRANCH  26  36
ATOM     27  C   UNL     1      -4.371  16.037  22.429  0.00  0.00    +0.000 C 
ATOM     28  C   UNL     1      -5.134  15.095  21.572  0.00  0.00    +0.000 A 
ATOM     29  N   UNL     1      -5.834  15.442  20.514  0.00  0.00    +0.000 NA
ATOM     30  C   UNL     1      -6.414  14.288  20.046  0.00  0.00    +0.000 A 
ATOM     31  C   UNL     1      -7.253  14.082  18.947  0.00  0.00    +0.000 A 
ATOM     32  N   UNL     1      -7.742  12.844  18.676  0.00  0.00    +0.000 NA
ATOM     33  C   UNL     1      -7.404  11.822  19.495  0.00  0.00    +0.000 A 
ATOM     34  C   UNL     1      -6.573  11.923  20.605  0.00  0.00    +0.000 A 
ATOM     35  C   UNL     1      -6.071  13.204  20.850  0.00  0.00    +0.000 A 
ATOM     36  N   UNL     1      -5.197  13.732  21.781  0.00  0.00    +0.000 N 
ENDBRANCH  26  36
ENDBRANCH  20  26
ENDBRANCH   1  23
TORSDOF 5
ENDMDL
MODEL 9
REMARK VINA RESULT:      -9.0      5.142     11.231
REMARK  Name = 
REMARK  6 active torsions:
REMARK  status: ('A' for Active; 'I' for Inactive)
REMARK    1  A    between atoms: C_1  and  C_2
REMARK    2  A    between atoms: N_10  and  C_11
REMARK    3  A    between atoms: C_11  and  C_12
REMARK    4  A    between atoms: C_15  and  C_16
REMARK    5  A    between atoms: C_16  and  C_18
REMARK    6  A    between atoms: C_23  and  C_24
REMARK                            x       y       z     vdW  Elec       q    Type
REMARK                         _______ _______ _______ _____ _____    ______ ____
ROOT
ATOM      1  C   UNL     1      -0.241  10.548  20.420  0.00  0.00    +0.000 C 
ATOM      2  O   UNL     1      -1.464  10.444  20.494  0.00  0.00    +0.000 OA
ENDROOT
BRANCH   1   3
ATOM      3  C   UNL     1       0.644   9.382  20.495  0.00  0.00    +0.000 A 
ATOM      4  C   UNL     1       0.846   8.673  21.668  0.00  0.00    +0.000 A 
ATOM      5  N   UNL     1       1.678   7.620  21.409  0.00  0.00    +0.000 N 
ATOM      6  C   UNL     1       2.058   7.631  20.088  0.00  0.00    +0.000 A 
ATOM      7  C   UNL     1       2.893   6.744  19.387  0.00  0.00    +0.000 A 
ATOM      8  C   UNL     1       3.155   6.967  18.021  0.00  0.00    +0.000 A 
ATOM      9  C   UNL     1       2.589   8.104  17.426  0.00  0.00    +0.000 A 
ATOM     10  C   UNL     1       1.787   9.005  18.147  0.00  0.00    +0.000 A 
ATOM     11  C   UNL     1       1.471   8.749  19.498  0.00  0.00    +0.000 A 
ATOM     12  H   UNL     1       1.978   6.935  22.088  0.00  0.00    +0.000 HD
BRANCH   8  13
ATOM     13  C   UNL     1       4.031   6.047  17.250  0.00  0.00    +0.000 A 
ATOM     14  C   UNL     1       4.046   4.659  17.503  0.00  0.00    +0.000 A 
ATOM     15  C   UNL     1       4.905   3.799  16.810  0.00  0.00    +0.000 A 
ATOM     16  C   UNL     1       5.749   4.311  15.837  0.00  0.00    +0.000 A 
ATOM     17  F   UNL     1       6.576   3.490  15.178  0.00  0.00    +0.000 F 
ATOM     18  C   UNL     1       5.748   5.666  15.542  0.00  0.00    +0.000 A 
ATOM     19  C   UNL     1       4.899   6.525  16.247  0.00  0.00    +0.000 A 
ENDBRANCH   8  13
ENDBRANCH   1   3
BRANCH   1  23
ATOM     20  C   UNL     1       1.733  14.344  20.176  0.00  0.00    +0.000 A 
ATOM     21  C   UNL     1       0.830  14.071  21.216  0.00  0.00    +0.000 A 
ATOM     22  C   UNL     1       0.146  12.854  21.258  0.00  0.00    +0.000 A 
ATOM     23  C   UNL     1       0.344  11.907  20.249  0.00  0.00    +0.000 A 
ATOM     24  C   UNL     1       1.104  12.250  19.124  0.00  0.00    +0.000 A 
ATOM     25  C   UNL     1       1.810  13.452  19.097  0.00  0.00    +0.000 A 
BRANCH  20  26
ATOM     26  C   UNL     1       2.644  15.549  20.226  0.00  0.00    +0.000 C 
BRANCH  26  36
ATOM     27  C   UNL     1       4.825  15.964  18.102  0.00  0.00    +0.000 C 
ATOM     28  C   UNL     1       3.454  16.532  18.041  0.00  0.00    +0.000 A 
ATOM     29  N   UNL     1       2.979  17.239  17.040  0.00  0.00    +0.000 NA
ATOM     30  C   UNL     1       1.707  17.606  17.402  0.00  0.00    +0.000 A 
ATOM     31  C   UNL     1       0.753  18.359  16.711  0.00  0.00    +0.000 A 
ATOM     32  N   UNL     1      -0.453  18.629  17.275  0.00  0.00    +0.000 NA
ATOM     33  C   UNL     1      -0.705  18.159  18.518  0.00  0.00    +0.000 A 
ATOM     34  C   UNL     1       0.172  17.398  19.282  0.00  0.00    +0.000 A 
ATOM     35  C   UNL     1       1.398  17.121  18.670  0.00  0.00    +0.000 A 
ATOM     36  N   UNL     1       2.506  16.379  19.032  0.00  0.00    +0.000 N 
ENDBRANCH  26  36
ENDBRANCH  20  26
ENDBRANCH   1  23
TORSDOF 5
ENDMDL
