MODEL 1
REMARK VINA RESULT:      -7.4      0.000      0.000
REMARK  Name = 
REMARK  4 active torsions:
REMARK  status: ('A' for Active; 'I' for Inactive)
REMARK    1  A    between atoms: C_1  and  C_2
REMARK    2  A    between atoms: C_5  and  N_6
REMARK    3  A    between atoms: C_10  and  C_12
REMARK    4  A    between atoms: C_17  and  C_18
REMARK                            x       y       z     vdW  Elec       q    Type
REMARK                         _______ _______ _______ _____ _____    ______ ____
ROOT
ATOM      1  N   UNL     1       2.049   7.556  19.271  0.00  0.00    +0.000 N 
ATOM      2  C   UNL     1       2.796   8.304  18.250  0.00  0.00    +0.000 C 
ATOM      3  C   UNL     1       1.956   9.519  17.794  0.00  0.00    +0.000 C 
ATOM      4  N   UNL     1       1.472  10.315  18.934  0.00  0.00    +0.000 N 
ATOM      5  C   UNL     1       1.574  11.705  18.882  0.00  0.00    +0.000 C 
ATOM      6  O   UNL     1       2.079  12.268  17.912  0.00  0.00    +0.000 OA
ATOM      7  C   UNL     1       0.758   9.521  19.950  0.00  0.00    +0.000 C 
ATOM      8  C   UNL     1       1.625   8.350  20.435  0.00  0.00    +0.000 C 
ENDROOT
BRANCH   5   9
ATOM      9  C   UNL     1       1.099  12.482  20.022  0.00  0.00    +0.000 A 
ATOM     10  N   UNL     1       1.906  12.900  21.057  0.00  0.00    +0.000 NA
ATOM     11  N   UNL     1       1.176  13.603  21.910  0.00  0.00    +0.000 NA
ATOM     12  N   UNL     1      -0.072  13.717  21.402  0.00  0.00    +0.000 N 
ATOM     13  C   UNL     1      -1.154  14.424  21.908  0.00  0.00    +0.000 A 
ATOM     14  C   UNL     1      -2.313  14.446  21.232  0.00  0.00    +0.000 A 
ATOM     15  C   UNL     1      -3.526  15.201  21.676  0.00  0.00    +0.000 C 
ATOM     16  N   UNL     1      -2.412  13.726  20.057  0.00  0.00    +0.000 N 
ATOM     17  C   UNL     1      -1.397  12.950  19.508  0.00  0.00    +0.000 A 
ATOM     18  O   UNL     1      -1.623  12.274  18.512  0.00  0.00    +0.000 OA
ATOM     19  C   UNL     1      -0.161  13.007  20.225  0.00  0.00    +0.000 A 
ATOM     20  H   UNL     1      -3.282  13.710  19.537  0.00  0.00    +0.000 HD
ENDBRANCH   5   9
BRANCH   1  25
ATOM     21  C   UNL     1       1.745   1.846  19.233  0.00  0.00    +0.000 C 
ATOM     22  C   UNL     1       1.819   3.342  19.270  0.00  0.00    +0.000 A 
ATOM     23  C   UNL     1       1.652   4.056  20.460  0.00  0.00    +0.000 A 
ATOM     24  C   UNL     1       1.731   5.456  20.467  0.00  0.00    +0.000 A 
ATOM     25  C   UNL     1       1.964   6.181  19.294  0.00  0.00    +0.000 A 
ATOM     26  C   UNL     1       2.139   5.442  18.114  0.00  0.00    +0.000 A 
ATOM     27  C   UNL     1       2.069   4.047  18.095  0.00  0.00    +0.000 A 
ENDBRANCH   1  25
TORSDOF 2
ENDMDL
MODEL 2
REMARK VINA RESULT:      -7.3      4.300      9.302
REMARK  Name = 
REMARK  4 active torsions:
REMARK  status: ('A' for Active; 'I' for Inactive)
REMARK    1  A    between atoms: C_1  and  C_2
REMARK    2  A    between atoms: C_5  and  N_6
REMARK    3  A    between atoms: C_10  and  C_12
REMARK    4  A    between atoms: C_17  and  C_18
REMARK                            x       y       z     vdW  Elec       q    Type
REMARK                         _______ _______ _______ _____ _____    ______ ____
ROOT
ATOM      1  N   UNL     1       1.590   8.757  19.116  0.00  0.00    +0.000 N 
ATOM      2  C   UNL     1       1.969   7.925  20.267  0.00  0.00    +0.000 C 
ATOM      3  C   UNL     1       2.409   6.531  19.763  0.00  0.00    +0.000 C 
ATOM      4  N   UNL     1       3.413   6.622  18.691  0.00  0.00    +0.000 N 
ATOM      5  C   UNL     1       4.531   5.791  18.736  0.00  0.00    +0.000 C 
ATOM      6  O   UNL     1       4.699   5.004  19.668  0.00  0.00    +0.000 OA
ATOM      7  C   UNL     1       3.007   7.492  17.572  0.00  0.00    +0.000 C 
ATOM      8  C   UNL     1       2.627   8.890  18.080  0.00  0.00    +0.000 C 
ENDROOT
BRANCH   5   9
ATOM      9  C   UNL     1       5.524   5.897  17.673  0.00  0.00    +0.000 A 
ATOM     10  N   UNL     1       6.672   6.653  17.765  0.00  0.00    +0.000 NA
ATOM     11  N   UNL     1       7.367   6.512  16.647  0.00  0.00    +0.000 NA
ATOM     12  N   UNL     1       6.729   5.612  15.865  0.00  0.00    +0.000 N 
ATOM     13  C   UNL     1       7.119   5.096  14.637  0.00  0.00    +0.000 A 
ATOM     14  C   UNL     1       6.359   4.174  14.026  0.00  0.00    +0.000 A 
ATOM     15  C   UNL     1       6.708   3.536  12.719  0.00  0.00    +0.000 C 
ATOM     16  N   UNL     1       5.176   3.787  14.624  0.00  0.00    +0.000 N 
ATOM     17  C   UNL     1       4.683   4.290  15.822  0.00  0.00    +0.000 A 
ATOM     18  O   UNL     1       3.575   3.947  16.214  0.00  0.00    +0.000 OA
ATOM     19  C   UNL     1       5.555   5.219  16.471  0.00  0.00    +0.000 A 
ATOM     20  H   UNL     1       4.573   3.106  14.175  0.00  0.00    +0.000 HD
ENDBRANCH   5   9
BRANCH   1  25
ATOM     21  C   UNL     1      -2.999  12.167  19.169  0.00  0.00    +0.000 C 
ATOM     22  C   UNL     1      -1.802  11.268  19.129  0.00  0.00    +0.000 A 
ATOM     23  C   UNL     1      -1.441  10.579  17.968  0.00  0.00    +0.000 A 
ATOM     24  C   UNL     1      -0.312   9.746  17.956  0.00  0.00    +0.000 A 
ATOM     25  C   UNL     1       0.476   9.566  19.099  0.00  0.00    +0.000 A 
ATOM     26  C   UNL     1       0.099  10.276  20.249  0.00  0.00    +0.000 A 
ATOM     27  C   UNL     1      -1.019  11.114  20.271  0.00  0.00    +0.000 A 
ENDBRANCH   1  25
TORSDOF 2
ENDMDL
MODEL 3
REMARK VINA RESULT:      -7.3      1.421      1.597
REMARK  Name = 
REMARK  4 active torsions:
REMARK  status: ('A' for Active; 'I' for Inactive)
REMARK    1  A    between atoms: C_1  and  C_2
REMARK    2  A    between atoms: C_5  and  N_6
REMARK    3  A    between atoms: C_10  and  C_12
REMARK    4  A    between atoms: C_17  and  C_18
REMARK                            x       y       z     vdW  Elec       q    Type
REMARK                         _______ _______ _______ _____ _____    ______ ____
ROOT
ATOM      1  N   UNL     1       2.384   7.212  18.974  0.00  0.00    +0.000 N 
ATOM      2  C   UNL     1       2.934   8.272  18.117  0.00  0.00    +0.000 C 
ATOM      3  C   UNL     1       1.823   9.300  17.803  0.00  0.00    +0.000 C 
ATOM      4  N   UNL     1       1.139   9.763  19.022  0.00  0.00    +0.000 N 
ATOM      5  C   UNL     1       0.889  11.125  19.184  0.00  0.00    +0.000 C 
ATOM      6  O   UNL     1       1.252  11.940  18.337  0.00  0.00    +0.000 OA
ATOM      7  C   UNL     1       0.631   8.668  19.868  0.00  0.00    +0.000 C 
ATOM      8  C   UNL     1       1.757   7.684  20.218  0.00  0.00    +0.000 C 
ENDROOT
BRANCH   5   9
ATOM      9  C   UNL     1       0.218  11.572  20.399  0.00  0.00    +0.000 A 
ATOM     10  N   UNL     1       0.858  11.763  21.605  0.00  0.00    +0.000 NA
ATOM     11  N   UNL     1      -0.025  12.196  22.491  0.00  0.00    +0.000 NA
ATOM     12  N   UNL     1      -1.209  12.367  21.860  0.00  0.00    +0.000 N 
ATOM     13  C   UNL     1      -2.399  12.870  22.367  0.00  0.00    +0.000 A 
ATOM     14  C   UNL     1      -3.466  12.997  21.563  0.00  0.00    +0.000 A 
ATOM     15  C   UNL     1      -4.782  13.556  22.004  0.00  0.00    +0.000 C 
ATOM     16  N   UNL     1      -3.363  12.585  20.249  0.00  0.00    +0.000 N 
ATOM     17  C   UNL     1      -2.229  12.022  19.676  0.00  0.00    +0.000 A 
ATOM     18  O   UNL     1      -2.276  11.601  18.526  0.00  0.00    +0.000 OA
ATOM     19  C   UNL     1      -1.097  11.965  20.547  0.00  0.00    +0.000 A 
ATOM     20  H   UNL     1      -4.160  12.652  19.626  0.00  0.00    +0.000 HD
ENDBRANCH   5   9
BRANCH   1  25
ATOM     21  C   UNL     1       3.554   1.655  18.308  0.00  0.00    +0.000 C 
ATOM     22  C   UNL     1       3.228   3.108  18.464  0.00  0.00    +0.000 A 
ATOM     23  C   UNL     1       2.208   3.714  17.726  0.00  0.00    +0.000 A 
ATOM     24  C   UNL     1       1.920   5.076  17.893  0.00  0.00    +0.000 A 
ATOM     25  C   UNL     1       2.646   5.872  18.786  0.00  0.00    +0.000 A 
ATOM     26  C   UNL     1       3.659   5.239  19.523  0.00  0.00    +0.000 A 
ATOM     27  C   UNL     1       3.950   3.882  19.369  0.00  0.00    +0.000 A 
ENDBRANCH   1  25
TORSDOF 2
ENDMDL
MODEL 4
REMARK VINA RESULT:      -7.2      1.401      1.759
REMARK  Name = 
REMARK  4 active torsions:
REMARK  status: ('A' for Active; 'I' for Inactive)
REMARK    1  A    between atoms: C_1  and  C_2
REMARK    2  A    between atoms: C_5  and  N_6
REMARK    3  A    between atoms: C_10  and  C_12
REMARK    4  A    between atoms: C_17  and  C_18
REMARK                            x       y       z     vdW  Elec       q    Type
REMARK                         _______ _______ _______ _____ _____    ______ ____
ROOT
ATOM      1  N   UNL     1       1.889   7.850  19.500  0.00  0.00    +0.000 N 
ATOM      2  C   UNL     1       2.153   8.819  18.427  0.00  0.00    +0.000 C 
ATOM      3  C   UNL     1       0.904   9.707  18.225  0.00  0.00    +0.000 C 
ATOM      4  N   UNL     1       0.424  10.282  19.492  0.00  0.00    +0.000 N 
ATOM      5  C   UNL     1       0.073  11.631  19.535  0.00  0.00    +0.000 C 
ATOM      6  O   UNL     1       0.181  12.345  18.539  0.00  0.00    +0.000 OA
ATOM      7  C   UNL     1       0.203   9.280  20.551  0.00  0.00    +0.000 C 
ATOM      8  C   UNL     1       1.469   8.442  20.780  0.00  0.00    +0.000 C 
ENDROOT
BRANCH   5   9
ATOM      9  C   UNL     1      -0.393  12.191  20.798  0.00  0.00    +0.000 A 
ATOM     10  N   UNL     1       0.435  12.489  21.859  0.00  0.00    +0.000 NA
ATOM     11  N   UNL     1      -0.294  13.006  22.836  0.00  0.00    +0.000 NA
ATOM     12  N   UNL     1      -1.567  13.124  22.396  0.00  0.00    +0.000 N 
ATOM     13  C   UNL     1      -2.662  13.677  23.044  0.00  0.00    +0.000 A 
ATOM     14  C   UNL     1      -3.849  13.735  22.420  0.00  0.00    +0.000 A 
ATOM     15  C   UNL     1      -5.080  14.339  23.019  0.00  0.00    +0.000 C 
ATOM     16  N   UNL     1      -3.960  13.203  21.151  0.00  0.00    +0.000 N 
ATOM     17  C   UNL     1      -2.930  12.584  20.451  0.00  0.00    +0.000 A 
ATOM     18  O   UNL     1      -3.162  12.059  19.369  0.00  0.00    +0.000 OA
ATOM     19  C   UNL     1      -1.669  12.602  21.125  0.00  0.00    +0.000 A 
ATOM     20  H   UNL     1      -4.849  13.217  20.664  0.00  0.00    +0.000 HD
ENDBRANCH   5   9
BRANCH   1  25
ATOM     21  C   UNL     1       3.287   2.309  19.313  0.00  0.00    +0.000 C 
ATOM     22  C   UNL     1       2.932   3.764  19.337  0.00  0.00    +0.000 A 
ATOM     23  C   UNL     1       3.214   4.606  18.258  0.00  0.00    +0.000 A 
ATOM     24  C   UNL     1       2.866   5.964  18.305  0.00  0.00    +0.000 A 
ATOM     25  C   UNL     1       2.244   6.521  19.427  0.00  0.00    +0.000 A 
ATOM     26  C   UNL     1       1.962   5.653  20.493  0.00  0.00    +0.000 A 
ATOM     27  C   UNL     1       2.297   4.298  20.456  0.00  0.00    +0.000 A 
ENDBRANCH   1  25
TORSDOF 2
ENDMDL
MODEL 5
REMARK VINA RESULT:      -7.1      1.890      2.314
REMARK  Name = 
REMARK  4 active torsions:
REMARK  status: ('A' for Active; 'I' for Inactive)
REMARK    1  A    between atoms: C_1  and  C_2
REMARK    2  A    between atoms: C_5  and  N_6
REMARK    3  A    between atoms: C_10  and  C_12
REMARK    4  A    between atoms: C_17  and  C_18
REMARK                            x       y       z     vdW  Elec       q    Type
REMARK                         _______ _______ _______ _____ _____    ______ ____
ROOT
ATOM      1  N   UNL     1       1.672   8.413  19.457  0.00  0.00    +0.000 N 
ATOM      2  C   UNL     1       1.708   9.475  18.442  0.00  0.00    +0.000 C 
ATOM      3  C   UNL     1       0.322  10.157  18.370  0.00  0.00    +0.000 C 
ATOM      4  N   UNL     1      -0.160  10.568  19.699  0.00  0.00    +0.000 N 
ATOM      5  C   UNL     1      -0.719  11.836  19.855  0.00  0.00    +0.000 C 
ATOM      6  O   UNL     1      -0.791  12.617  18.907  0.00  0.00    +0.000 OA
ATOM      7  C   UNL     1      -0.149   9.482  20.695  0.00  0.00    +0.000 C 
ATOM      8  C   UNL     1       1.247   8.850  20.796  0.00  0.00    +0.000 C 
ENDROOT
BRANCH   5   9
ATOM      9  C   UNL     1      -1.185  12.236  21.178  0.00  0.00    +0.000 A 
ATOM     10  N   UNL     1      -0.358  12.398  22.268  0.00  0.00    +0.000 NA
ATOM     11  N   UNL     1      -1.088  12.790  23.301  0.00  0.00    +0.000 NA
ATOM     12  N   UNL     1      -2.360  12.964  22.878  0.00  0.00    +0.000 N 
ATOM     13  C   UNL     1      -3.456  13.434  23.588  0.00  0.00    +0.000 A 
ATOM     14  C   UNL     1      -4.642  13.572  22.975  0.00  0.00    +0.000 A 
ATOM     15  C   UNL     1      -5.872  14.098  23.644  0.00  0.00    +0.000 C 
ATOM     16  N   UNL     1      -4.751  13.202  21.649  0.00  0.00    +0.000 N 
ATOM     17  C   UNL     1      -3.721  12.673  20.879  0.00  0.00    +0.000 A 
ATOM     18  O   UNL     1      -3.952  12.288  19.740  0.00  0.00    +0.000 OA
ATOM     19  C   UNL     1      -2.461  12.605  21.551  0.00  0.00    +0.000 A 
ATOM     20  H   UNL     1      -5.640  13.278  21.167  0.00  0.00    +0.000 HD
ENDBRANCH   5   9
BRANCH   1  25
ATOM     21  C   UNL     1       4.062   3.293  18.583  0.00  0.00    +0.000 C 
ATOM     22  C   UNL     1       3.425   4.625  18.835  0.00  0.00    +0.000 A 
ATOM     23  C   UNL     1       2.675   4.872  19.988  0.00  0.00    +0.000 A 
ATOM     24  C   UNL     1       2.093   6.130  20.202  0.00  0.00    +0.000 A 
ATOM     25  C   UNL     1       2.230   7.167  19.273  0.00  0.00    +0.000 A 
ATOM     26  C   UNL     1       2.996   6.897  18.128  0.00  0.00    +0.000 A 
ATOM     27  C   UNL     1       3.586   5.650  17.907  0.00  0.00    +0.000 A 
ENDBRANCH   1  25
TORSDOF 2
ENDMDL
MODEL 6
REMARK VINA RESULT:      -7.0      2.038      2.452
REMARK  Name = 
REMARK  4 active torsions:
REMARK  status: ('A' for Active; 'I' for Inactive)
REMARK    1  A    between atoms: C_1  and  C_2
REMARK    2  A    between atoms: C_5  and  N_6
REMARK    3  A    between atoms: C_10  and  C_12
REMARK    4  A    between atoms: C_17  and  C_18
REMARK                            x       y       z     vdW  Elec       q    Type
REMARK                         _______ _______ _______ _____ _____    ______ ____
ROOT
ATOM      1  N   UNL     1       2.103   8.314  18.704  0.00  0.00    +0.000 N 
ATOM      2  C   UNL     1       2.218   9.577  17.960  0.00  0.00    +0.000 C 
ATOM      3  C   UNL     1       0.851  10.298  17.969  0.00  0.00    +0.000 C 
ATOM      4  N   UNL     1       0.296  10.413  19.328  0.00  0.00    +0.000 N 
ATOM      5  C   UNL     1      -0.250  11.629  19.737  0.00  0.00    +0.000 C 
ATOM      6  O   UNL     1      -0.252  12.606  18.990  0.00  0.00    +0.000 OA
ATOM      7  C   UNL     1       0.228   9.129  20.050  0.00  0.00    +0.000 C 
ATOM      8  C   UNL     1       1.605   8.450  20.081  0.00  0.00    +0.000 C 
ENDROOT
BRANCH   5   9
ATOM      9  C   UNL     1      -0.789  11.732  21.088  0.00  0.00    +0.000 A 
ATOM     10  N   UNL     1      -0.040  11.552  22.231  0.00  0.00    +0.000 NA
ATOM     11  N   UNL     1      -0.819  11.742  23.285  0.00  0.00    +0.000 NA
ATOM     12  N   UNL     1      -2.039  12.123  22.845  0.00  0.00    +0.000 N 
ATOM     13  C   UNL     1      -3.152  12.497  23.586  0.00  0.00    +0.000 A 
ATOM     14  C   UNL     1      -4.274  12.882  22.958  0.00  0.00    +0.000 A 
ATOM     15  C   UNL     1      -5.513  13.333  23.664  0.00  0.00    +0.000 C 
ATOM     16  N   UNL     1      -4.306  12.857  21.577  0.00  0.00    +0.000 N 
ATOM     17  C   UNL     1      -3.258  12.445  20.761  0.00  0.00    +0.000 A 
ATOM     18  O   UNL     1      -3.426  12.370  19.551  0.00  0.00    +0.000 OA
ATOM     19  C   UNL     1      -2.062  12.108  21.468  0.00  0.00    +0.000 A 
ATOM     20  H   UNL     1      -5.147  13.124  21.079  0.00  0.00    +0.000 HD
ENDBRANCH   5   9
BRANCH   1  25
ATOM     21  C   UNL     1       4.491   3.451  16.875  0.00  0.00    +0.000 C 
ATOM     22  C   UNL     1       3.845   4.711  17.365  0.00  0.00    +0.000 A 
ATOM     23  C   UNL     1       2.643   4.689  18.076  0.00  0.00    +0.000 A 
ATOM     24  C   UNL     1       2.061   5.883  18.527  0.00  0.00    +0.000 A 
ATOM     25  C   UNL     1       2.650   7.126  18.271  0.00  0.00    +0.000 A 
ATOM     26  C   UNL     1       3.862   7.121  17.564  0.00  0.00    +0.000 A 
ATOM     27  C   UNL     1       4.454   5.938  17.115  0.00  0.00    +0.000 A 
ENDBRANCH   1  25
TORSDOF 2
ENDMDL
MODEL 7
REMARK VINA RESULT:      -7.0      2.377      3.499
REMARK  Name = 
REMARK  4 active torsions:
REMARK  status: ('A' for Active; 'I' for Inactive)
REMARK    1  A    between atoms: C_1  and  C_2
REMARK    2  A    between atoms: C_5  and  N_6
REMARK    3  A    between atoms: C_10  and  C_12
REMARK    4  A    between atoms: C_17  and  C_18
REMARK                            x       y       z     vdW  Elec       q    Type
REMARK                         _______ _______ _______ _____ _____    ______ ____
ROOT
ATOM      1  N   UNL     1       2.433   7.223  18.434  0.00  0.00    +0.000 N 
ATOM      2  C   UNL     1       1.800   6.820  19.698  0.00  0.00    +0.000 C 
ATOM      3  C   UNL     1       1.753   8.035  20.653  0.00  0.00    +0.000 C 
ATOM      4  N   UNL     1       1.174   9.223  20.006  0.00  0.00    +0.000 N 
ATOM      5  C   UNL     1       0.231   9.981  20.699  0.00  0.00    +0.000 C 
ATOM      6  O   UNL     1      -0.136   9.657  21.828  0.00  0.00    +0.000 OA
ATOM      7  C   UNL     1       1.815   9.574  18.726  0.00  0.00    +0.000 C 
ATOM      8  C   UNL     1       1.805   8.374  17.766  0.00  0.00    +0.000 C 
ENDROOT
BRANCH   5   9
ATOM      9  C   UNL     1      -0.343  11.151  20.045  0.00  0.00    +0.000 A 
ATOM     10  N   UNL     1      -1.511  11.128  19.314  0.00  0.00    +0.000 NA
ATOM     11  N   UNL     1      -1.767  12.353  18.881  0.00  0.00    +0.000 NA
ATOM     12  N   UNL     1      -0.829  13.185  19.388  0.00  0.00    +0.000 N 
ATOM     13  C   UNL     1      -0.732  14.563  19.265  0.00  0.00    +0.000 A 
ATOM     14  C   UNL     1       0.264  15.221  19.878  0.00  0.00    +0.000 A 
ATOM     15  C   UNL     1       0.436  16.707  19.833  0.00  0.00    +0.000 C 
ATOM     16  N   UNL     1       1.198  14.497  20.592  0.00  0.00    +0.000 N 
ATOM     17  C   UNL     1       1.208  13.113  20.722  0.00  0.00    +0.000 A 
ATOM     18  O   UNL     1       2.140  12.565  21.297  0.00  0.00    +0.000 OA
ATOM     19  C   UNL     1       0.095  12.459  20.108  0.00  0.00    +0.000 A 
ATOM     20  H   UNL     1       1.972  14.968  21.049  0.00  0.00    +0.000 HD
ENDBRANCH   5   9
BRANCH   1  25
ATOM     21  C   UNL     1       6.219   3.921  15.704  0.00  0.00    +0.000 C 
ATOM     22  C   UNL     1       5.242   4.808  16.412  0.00  0.00    +0.000 A 
ATOM     23  C   UNL     1       5.396   6.196  16.436  0.00  0.00    +0.000 A 
ATOM     24  C   UNL     1       4.464   7.005  17.102  0.00  0.00    +0.000 A 
ATOM     25  C   UNL     1       3.366   6.454  17.773  0.00  0.00    +0.000 A 
ATOM     26  C   UNL     1       3.228   5.058  17.727  0.00  0.00    +0.000 A 
ATOM     27  C   UNL     1       4.146   4.244  17.061  0.00  0.00    +0.000 A 
ENDBRANCH   1  25
TORSDOF 2
ENDMDL
MODEL 8
REMARK VINA RESULT:      -6.9      2.363      3.667
REMARK  Name = 
REMARK  4 active torsions:
REMARK  status: ('A' for Active; 'I' for Inactive)
REMARK    1  A    between atoms: C_1  and  C_2
REMARK    2  A    between atoms: C_5  and  N_6
REMARK    3  A    between atoms: C_10  and  C_12
REMARK    4  A    between atoms: C_17  and  C_18
REMARK                            x       y       z     vdW  Elec       q    Type
REMARK                         _______ _______ _______ _____ _____    ______ ____
ROOT
ATOM      1  N   UNL     1       1.141  10.050  19.622  0.00  0.00    +0.000 N 
ATOM      2  C   UNL     1       1.309  11.335  18.927  0.00  0.00    +0.000 C 
ATOM      3  C   UNL     1      -0.061  12.044  18.830  0.00  0.00    +0.000 C 
ATOM      4  N   UNL     1      -0.739  12.116  20.135  0.00  0.00    +0.000 N 
ATOM      5  C   UNL     1      -1.333  13.315  20.525  0.00  0.00    +0.000 C 
ATOM      6  O   UNL     1      -1.277  14.313  19.808  0.00  0.00    +0.000 OA
ATOM      7  C   UNL     1      -0.858  10.812  20.813  0.00  0.00    +0.000 C 
ATOM      8  C   UNL     1       0.517  10.144  20.952  0.00  0.00    +0.000 C 
ENDROOT
BRANCH   5   9
ATOM      9  C   UNL     1      -1.994  13.376  21.824  0.00  0.00    +0.000 A 
ATOM     10  N   UNL     1      -1.379  13.803  22.981  0.00  0.00    +0.000 NA
ATOM     11  N   UNL     1      -2.258  13.764  23.970  0.00  0.00    +0.000 NA
ATOM     12  N   UNL     1      -3.455  13.399  23.458  0.00  0.00    +0.000 N 
ATOM     13  C   UNL     1      -4.680  13.294  24.101  0.00  0.00    +0.000 A 
ATOM     14  C   UNL     1      -5.773  12.946  23.404  0.00  0.00    +0.000 A 
ATOM     15  C   UNL     1      -7.142  12.837  23.997  0.00  0.00    +0.000 C 
ATOM     16  N   UNL     1      -5.642  12.662  22.059  0.00  0.00    +0.000 N 
ATOM     17  C   UNL     1      -4.447  12.689  21.349  0.00  0.00    +0.000 A 
ATOM     18  O   UNL     1      -4.427  12.324  20.180  0.00  0.00    +0.000 OA
ATOM     19  C   UNL     1      -3.321  13.127  22.113  0.00  0.00    +0.000 A 
ATOM     20  H   UNL     1      -6.448  12.378  21.514  0.00  0.00    +0.000 HD
ENDBRANCH   5   9
BRANCH   1  25
ATOM     21  C   UNL     1       3.569   5.127  18.024  0.00  0.00    +0.000 C 
ATOM     22  C   UNL     1       2.939   6.427  18.418  0.00  0.00    +0.000 A 
ATOM     23  C   UNL     1       2.873   7.508  17.535  0.00  0.00    +0.000 A 
ATOM     24  C   UNL     1       2.273   8.714  17.928  0.00  0.00    +0.000 A 
ATOM     25  C   UNL     1       1.738   8.880  19.210  0.00  0.00    +0.000 A 
ATOM     26  C   UNL     1       1.806   7.777  20.075  0.00  0.00    +0.000 A 
ATOM     27  C   UNL     1       2.396   6.570  19.693  0.00  0.00    +0.000 A 
ENDBRANCH   1  25
TORSDOF 2
ENDMDL
MODEL 9
REMARK VINA RESULT:      -6.8      2.202      3.386
REMARK  Name = 
REMARK  4 active torsions:
REMARK  status: ('A' for Active; 'I' for Inactive)
REMARK    1  A    between atoms: C_1  and  C_2
REMARK    2  A    between atoms: C_5  and  N_6
REMARK    3  A    between atoms: C_10  and  C_12
REMARK    4  A    between atoms: C_17  and  C_18
REMARK                            x       y       z     vdW  Elec       q    Type
REMARK                         _______ _______ _______ _____ _____    ______ ____
ROOT
ATOM      1  N   UNL     1       1.679   8.157  19.601  0.00  0.00    +0.000 N 
ATOM      2  C   UNL     1       1.233   7.866  20.971  0.00  0.00    +0.000 C 
ATOM      3  C   UNL     1       1.342   9.150  21.825  0.00  0.00    +0.000 C 
ATOM      4  N   UNL     1       0.690  10.301  21.179  0.00  0.00    +0.000 N 
ATOM      5  C   UNL     1      -0.131  11.131  21.940  0.00  0.00    +0.000 C 
ATOM      6  O   UNL     1      -0.334  10.901  23.132  0.00  0.00    +0.000 OA
ATOM      7  C   UNL     1       1.142  10.538  19.796  0.00  0.00    +0.000 C 
ATOM      8  C   UNL     1       0.976   9.270  18.944  0.00  0.00    +0.000 C 
ENDROOT
BRANCH   5   9
ATOM      9  C   UNL     1      -0.779  12.263  21.287  0.00  0.00    +0.000 A 
ATOM     10  N   UNL     1      -2.106  12.279  20.914  0.00  0.00    +0.000 NA
ATOM     11  N   UNL     1      -2.382  13.457  20.375  0.00  0.00    +0.000 NA
ATOM     12  N   UNL     1      -1.279  14.233  20.468  0.00  0.00    +0.000 N 
ATOM     13  C   UNL     1      -1.118  15.562  20.103  0.00  0.00    +0.000 A 
ATOM     14  C   UNL     1       0.058  16.175  20.309  0.00  0.00    +0.000 A 
ATOM     15  C   UNL     1       0.321  17.610  19.981  0.00  0.00    +0.000 C 
ATOM     16  N   UNL     1       1.101  15.448  20.849  0.00  0.00    +0.000 N 
ATOM     17  C   UNL     1       1.043  14.102  21.192  0.00  0.00    +0.000 A 
ATOM     18  O   UNL     1       2.056  13.530  21.574  0.00  0.00    +0.000 OA
ATOM     19  C   UNL     1      -0.245  13.507  21.018  0.00  0.00    +0.000 A 
ATOM     20  H   UNL     1       2.005  15.881  20.998  0.00  0.00    +0.000 HD
ENDBRANCH   5   9
BRANCH   1  25
ATOM     21  C   UNL     1       5.002   4.565  16.644  0.00  0.00    +0.000 C 
ATOM     22  C   UNL     1       4.141   5.527  17.403  0.00  0.00    +0.000 A 
ATOM     23  C   UNL     1       4.114   6.889  17.095  0.00  0.00    +0.000 A 
ATOM     24  C   UNL     1       3.296   7.768  17.819  0.00  0.00    +0.000 A 
ATOM     25  C   UNL     1       2.495   7.318  18.874  0.00  0.00    +0.000 A 
ATOM     26  C   UNL     1       2.531   5.945  19.159  0.00  0.00    +0.000 A 
ATOM     27  C   UNL     1       3.337   5.059  18.440  0.00  0.00    +0.000 A 
ENDBRANCH   1  25
TORSDOF 2
ENDMDL
