MODEL 1
REMARK VINA RESULT:      -8.5      0.000      0.000
REMARK  Name = 
REMARK  5 active torsions:
REMARK  status: ('A' for Active; 'I' for Inactive)
REMARK    1  A    between atoms: C_1  and  C_2
REMARK    2  A    between atoms: C_2  and  C_3
REMARK    3  A    between atoms: C_2  and  C_4
REMARK    4  A    between atoms: C_7  and  N_8
REMARK    5  A    between atoms: C_19  and  C_20
REMARK                            x       y       z     vdW  Elec       q    Type
REMARK                         _______ _______ _______ _____ _____    ______ ____
ROOT
ATOM      1  N   UNL     1       3.404   7.019  18.638  0.00  0.00    +0.000 N 
ATOM      2  C   UNL     1       3.324   5.643  18.565  0.00  0.00    +0.000 C 
ATOM      3  O   UNL     1       2.265   5.026  18.599  0.00  0.00    +0.000 OA
ATOM      4  N   UNL     1       4.559   4.999  18.367  0.00  0.00    +0.000 N 
ATOM      5  C   UNL     1       5.848   5.694  18.464  0.00  0.00    +0.000 C 
ATOM      6  C   UNL     1       6.307   6.228  17.117  0.00  0.00    +0.000 C 
ATOM      7  S   UNL     1       7.118   4.980  16.147  0.00  0.00    +0.000 S 
ATOM      8  O   UNL     1       7.922   4.169  17.045  0.00  0.00    +0.000 OA
ATOM      9  O   UNL     1       7.760   5.666  15.041  0.00  0.00    +0.000 OA
ATOM     10  C   UNL     1       5.852   3.939  15.457  0.00  0.00    +0.000 C 
ATOM     11  C   UNL     1       4.512   3.871  16.179  0.00  0.00    +0.000 C 
ATOM     12  C   UNL     1       4.608   3.673  17.703  0.00  0.00    +0.000 C 
ATOM     13  C   UNL     1       3.581   2.639  18.181  0.00  0.00    +0.000 C 
ATOM     14  H   UNL     1       4.242   7.445  18.285  0.00  0.00    +0.000 HD
ENDROOT
BRANCH   1  18
ATOM     15  C   UNL     1       0.248   9.740  19.377  0.00  0.00    +0.000 A 
ATOM     16  C   UNL     1       0.733   9.577  18.072  0.00  0.00    +0.000 A 
ATOM     17  C   UNL     1       1.770   8.677  17.799  0.00  0.00    +0.000 A 
ATOM     18  C   UNL     1       2.338   7.924  18.824  0.00  0.00    +0.000 A 
ATOM     19  C   UNL     1       1.838   8.057  20.122  0.00  0.00    +0.000 A 
ATOM     20  C   UNL     1       0.813   8.961  20.387  0.00  0.00    +0.000 A 
ATOM     21  F   UNL     1       0.379   9.074  21.651  0.00  0.00    +0.000 F 
BRANCH  15  23
ATOM     22  C   UNL     1      -0.316  12.042  20.233  0.00  0.00    +0.000 C 
ATOM     23  C   UNL     1      -0.866  10.716  19.696  0.00  0.00    +0.000 C 
ATOM     24  C   UNL     1      -1.756  10.941  18.473  0.00  0.00    +0.000 C 
ENDBRANCH  15  23
ENDBRANCH   1  18
TORSDOF 2
ENDMDL
MODEL 2
REMARK VINA RESULT:      -7.6      1.087      1.473
REMARK  Name = 
REMARK  5 active torsions:
REMARK  status: ('A' for Active; 'I' for Inactive)
REMARK    1  A    between atoms: C_1  and  C_2
REMARK    2  A    between atoms: C_2  and  C_3
REMARK    3  A    between atoms: C_2  and  C_4
REMARK    4  A    between atoms: C_7  and  N_8
REMARK    5  A    between atoms: C_19  and  C_20
REMARK                            x       y       z     vdW  Elec       q    Type
REMARK                         _______ _______ _______ _____ _____    ______ ____
ROOT
ATOM      1  N   UNL     1       3.248   6.871  19.436  0.00  0.00    +0.000 N 
ATOM      2  C   UNL     1       3.122   5.511  19.236  0.00  0.00    +0.000 C 
ATOM      3  O   UNL     1       2.041   4.934  19.187  0.00  0.00    +0.000 OA
ATOM      4  N   UNL     1       4.338   4.841  19.013  0.00  0.00    +0.000 N 
ATOM      5  C   UNL     1       5.648   5.475  19.206  0.00  0.00    +0.000 C 
ATOM      6  C   UNL     1       6.165   6.110  17.925  0.00  0.00    +0.000 C 
ATOM      7  S   UNL     1       6.960   4.924  16.867  0.00  0.00    +0.000 S 
ATOM      8  O   UNL     1       7.707   4.006  17.709  0.00  0.00    +0.000 OA
ATOM      9  O   UNL     1       7.657   5.682  15.845  0.00  0.00    +0.000 OA
ATOM     10  C   UNL     1       5.678   3.999  16.052  0.00  0.00    +0.000 C 
ATOM     11  C   UNL     1       4.316   3.917  16.731  0.00  0.00    +0.000 C 
ATOM     12  C   UNL     1       4.360   3.579  18.232  0.00  0.00    +0.000 C 
ATOM     13  C   UNL     1       3.284   2.546  18.587  0.00  0.00    +0.000 C 
ATOM     14  H   UNL     1       4.111   7.295  19.146  0.00  0.00    +0.000 HD
ENDROOT
BRANCH   1  18
ATOM     15  C   UNL     1       0.121   9.670  19.976  0.00  0.00    +0.000 A 
ATOM     16  C   UNL     1       0.433   8.770  21.005  0.00  0.00    +0.000 A 
ATOM     17  C   UNL     1       1.468   7.840  20.855  0.00  0.00    +0.000 A 
ATOM     18  C   UNL     1       2.210   7.795  19.677  0.00  0.00    +0.000 A 
ATOM     19  C   UNL     1       1.927   8.711  18.661  0.00  0.00    +0.000 A 
ATOM     20  C   UNL     1       0.890   9.627  18.813  0.00  0.00    +0.000 A 
ATOM     21  F   UNL     1       0.636  10.472  17.803  0.00  0.00    +0.000 F 
BRANCH  15  23
ATOM     22  C   UNL     1      -0.465  12.080  20.420  0.00  0.00    +0.000 C 
ATOM     23  C   UNL     1      -1.002  10.677  20.114  0.00  0.00    +0.000 C 
ATOM     24  C   UNL     1      -1.882  10.683  18.862  0.00  0.00    +0.000 C 
ENDBRANCH  15  23
ENDBRANCH   1  18
TORSDOF 2
ENDMDL
MODEL 3
REMARK VINA RESULT:      -7.3      2.138      2.804
REMARK  Name = 
REMARK  5 active torsions:
REMARK  status: ('A' for Active; 'I' for Inactive)
REMARK    1  A    between atoms: C_1  and  C_2
REMARK    2  A    between atoms: C_2  and  C_3
REMARK    3  A    between atoms: C_2  and  C_4
REMARK    4  A    between atoms: C_7  and  N_8
REMARK    5  A    between atoms: C_19  and  C_20
REMARK                            x       y       z     vdW  Elec       q    Type
REMARK                         _______ _______ _______ _____ _____    ______ ____
ROOT
ATOM      1  N   UNL     1       2.259   7.310  20.309  0.00  0.00    +0.000 N 
ATOM      2  C   UNL     1       1.944   5.968  20.373  0.00  0.00    +0.000 C 
ATOM      3  O   UNL     1       0.865   5.546  20.773  0.00  0.00    +0.000 OA
ATOM      4  N   UNL     1       2.939   5.114  19.864  0.00  0.00    +0.000 N 
ATOM      5  C   UNL     1       4.287   5.575  19.513  0.00  0.00    +0.000 C 
ATOM      6  C   UNL     1       4.384   5.985  18.052  0.00  0.00    +0.000 C 
ATOM      7  S   UNL     1       4.647   4.589  16.985  0.00  0.00    +0.000 S 
ATOM      8  O   UNL     1       5.551   3.674  17.661  0.00  0.00    +0.000 OA
ATOM      9  O   UNL     1       5.014   5.123  15.686  0.00  0.00    +0.000 OA
ATOM     10  C   UNL     1       3.081   3.767  16.793  0.00  0.00    +0.000 C 
ATOM     11  C   UNL     1       2.039   3.953  17.888  0.00  0.00    +0.000 C 
ATOM     12  C   UNL     1       2.570   3.782  19.323  0.00  0.00    +0.000 C 
ATOM     13  C   UNL     1       1.593   2.956  20.168  0.00  0.00    +0.000 C 
ATOM     14  H   UNL     1       3.002   7.574  19.689  0.00  0.00    +0.000 HD
ENDROOT
BRANCH   1  18
ATOM     15  C   UNL     1      -0.208  10.565  21.421  0.00  0.00    +0.000 A 
ATOM     16  C   UNL     1       0.342   9.739  22.412  0.00  0.00    +0.000 A 
ATOM     17  C   UNL     1       1.168   8.661  22.072  0.00  0.00    +0.000 A 
ATOM     18  C   UNL     1       1.461   8.392  20.736  0.00  0.00    +0.000 A 
ATOM     19  C   UNL     1       0.944   9.230  19.745  0.00  0.00    +0.000 A 
ATOM     20  C   UNL     1       0.115  10.294  20.091  0.00  0.00    +0.000 A 
ATOM     21  F   UNL     1      -0.379  11.059  19.106  0.00  0.00    +0.000 F 
BRANCH  15  23
ATOM     22  C   UNL     1      -1.832  11.505  23.102  0.00  0.00    +0.000 C 
ATOM     23  C   UNL     1      -1.112  11.729  21.767  0.00  0.00    +0.000 C 
ATOM     24  C   UNL     1      -0.327  13.042  21.775  0.00  0.00    +0.000 C 
ENDBRANCH  15  23
ENDBRANCH   1  18
TORSDOF 2
ENDMDL
MODEL 4
REMARK VINA RESULT:      -7.2      1.937      2.336
REMARK  Name = 
REMARK  5 active torsions:
REMARK  status: ('A' for Active; 'I' for Inactive)
REMARK    1  A    between atoms: C_1  and  C_2
REMARK    2  A    between atoms: C_2  and  C_3
REMARK    3  A    between atoms: C_2  and  C_4
REMARK    4  A    between atoms: C_7  and  N_8
REMARK    5  A    between atoms: C_19  and  C_20
REMARK                            x       y       z     vdW  Elec       q    Type
REMARK                         _______ _______ _______ _____ _____    ______ ____
ROOT
ATOM      1  N   UNL     1       2.228   7.450  20.101  0.00  0.00    +0.000 N 
ATOM      2  C   UNL     1       2.020   6.102  20.315  0.00  0.00    +0.000 C 
ATOM      3  O   UNL     1       0.982   5.645  20.781  0.00  0.00    +0.000 OA
ATOM      4  N   UNL     1       3.071   5.276  19.879  0.00  0.00    +0.000 N 
ATOM      5  C   UNL     1       4.374   5.797  19.452  0.00  0.00    +0.000 C 
ATOM      6  C   UNL     1       4.420   6.052  17.954  0.00  0.00    +0.000 C 
ATOM      7  S   UNL     1       4.776   4.572  17.037  0.00  0.00    +0.000 S 
ATOM      8  O   UNL     1       5.758   3.808  17.787  0.00  0.00    +0.000 OA
ATOM      9  O   UNL     1       5.083   4.988  15.681  0.00  0.00    +0.000 OA
ATOM     10  C   UNL     1       3.277   3.618  16.967  0.00  0.00    +0.000 C 
ATOM     11  C   UNL     1       2.237   3.842  18.059  0.00  0.00    +0.000 C 
ATOM     12  C   UNL     1       2.799   3.868  19.492  0.00  0.00    +0.000 C 
ATOM     13  C   UNL     1       1.901   3.068  20.442  0.00  0.00    +0.000 C 
ATOM     14  H   UNL     1       2.940   7.700  19.440  0.00  0.00    +0.000 HD
ENDROOT
BRANCH   1  18
ATOM     15  C   UNL     1      -0.336  10.614  21.252  0.00  0.00    +0.000 A 
ATOM     16  C   UNL     1      -0.014  10.437  19.899  0.00  0.00    +0.000 A 
ATOM     17  C   UNL     1       0.825   9.394  19.490  0.00  0.00    +0.000 A 
ATOM     18  C   UNL     1       1.354   8.508  20.427  0.00  0.00    +0.000 A 
ATOM     19  C   UNL     1       1.010   8.657  21.773  0.00  0.00    +0.000 A 
ATOM     20  C   UNL     1       0.184   9.703  22.172  0.00  0.00    +0.000 A 
ATOM     21  F   UNL     1      -0.101   9.823  23.477  0.00  0.00    +0.000 F 
BRANCH  15  23
ATOM     22  C   UNL     1      -0.418  12.916  22.272  0.00  0.00    +0.000 C 
ATOM     23  C   UNL     1      -1.233  11.742  21.716  0.00  0.00    +0.000 C 
ATOM     24  C   UNL     1      -2.160  12.198  20.587  0.00  0.00    +0.000 C 
ENDBRANCH  15  23
ENDBRANCH   1  18
TORSDOF 2
ENDMDL
MODEL 5
REMARK VINA RESULT:      -7.1      2.407      3.305
REMARK  Name = 
REMARK  5 active torsions:
REMARK  status: ('A' for Active; 'I' for Inactive)
REMARK    1  A    between atoms: C_1  and  C_2
REMARK    2  A    between atoms: C_2  and  C_3
REMARK    3  A    between atoms: C_2  and  C_4
REMARK    4  A    between atoms: C_7  and  N_8
REMARK    5  A    between atoms: C_19  and  C_20
REMARK                            x       y       z     vdW  Elec       q    Type
REMARK                         _______ _______ _______ _____ _____    ______ ____
ROOT
ATOM      1  N   UNL     1       1.754   7.355  19.414  0.00  0.00    +0.000 N 
ATOM      2  C   UNL     1       2.667   7.347  18.379  0.00  0.00    +0.000 C 
ATOM      3  O   UNL     1       3.182   8.362  17.925  0.00  0.00    +0.000 OA
ATOM      4  N   UNL     1       3.026   6.062  17.932  0.00  0.00    +0.000 N 
ATOM      5  C   UNL     1       2.326   4.844  18.355  0.00  0.00    +0.000 C 
ATOM      6  C   UNL     1       2.971   4.216  19.580  0.00  0.00    +0.000 C 
ATOM      7  S   UNL     1       4.364   3.198  19.152  0.00  0.00    +0.000 S 
ATOM      8  O   UNL     1       4.042   2.497  17.921  0.00  0.00    +0.000 OA
ATOM      9  O   UNL     1       4.701   2.435  20.339  0.00  0.00    +0.000 OA
ATOM     10  C   UNL     1       5.731   4.286  18.820  0.00  0.00    +0.000 C 
ATOM     11  C   UNL     1       5.420   5.714  18.390  0.00  0.00    +0.000 C 
ATOM     12  C   UNL     1       4.346   5.839  17.292  0.00  0.00    +0.000 C 
ATOM     13  C   UNL     1       4.768   6.867  16.236  0.00  0.00    +0.000 C 
ATOM     14  H   UNL     1       1.637   6.499  19.924  0.00  0.00    +0.000 HD
ENDROOT
BRANCH   1  18
ATOM     15  C   UNL     1       0.228  10.692  21.523  0.00  0.00    +0.000 A 
ATOM     16  C   UNL     1       0.267  10.715  20.121  0.00  0.00    +0.000 A 
ATOM     17  C   UNL     1       0.759   9.621  19.400  0.00  0.00    +0.000 A 
ATOM     18  C   UNL     1       1.217   8.486  20.066  0.00  0.00    +0.000 A 
ATOM     19  C   UNL     1       1.151   8.443  21.460  0.00  0.00    +0.000 A 
ATOM     20  C   UNL     1       0.670   9.539  22.171  0.00  0.00    +0.000 A 
ATOM     21  F   UNL     1       0.646   9.465  23.511  0.00  0.00    +0.000 F 
BRANCH  15  23
ATOM     22  C   UNL     1      -0.198  13.175  21.527  0.00  0.00    +0.000 C 
ATOM     23  C   UNL     1      -0.290  11.869  22.323  0.00  0.00    +0.000 C 
ATOM     24  C   UNL     1      -1.720  11.612  22.802  0.00  0.00    +0.000 C 
ENDBRANCH  15  23
ENDBRANCH   1  18
TORSDOF 2
ENDMDL
MODEL 6
REMARK VINA RESULT:      -6.8      5.355      9.265
REMARK  Name = 
REMARK  5 active torsions:
REMARK  status: ('A' for Active; 'I' for Inactive)
REMARK    1  A    between atoms: C_1  and  C_2
REMARK    2  A    between atoms: C_2  and  C_3
REMARK    3  A    between atoms: C_2  and  C_4
REMARK    4  A    between atoms: C_7  and  N_8
REMARK    5  A    between atoms: C_19  and  C_20
REMARK                            x       y       z     vdW  Elec       q    Type
REMARK                         _______ _______ _______ _____ _____    ______ ____
ROOT
ATOM      1  N   UNL     1       0.508  11.096  19.586  0.00  0.00    +0.000 N 
ATOM      2  C   UNL     1      -0.838  11.361  19.437  0.00  0.00    +0.000 C 
ATOM      3  O   UNL     1      -1.649  10.533  19.038  0.00  0.00    +0.000 OA
ATOM      4  N   UNL     1      -1.226  12.646  19.859  0.00  0.00    +0.000 N 
ATOM      5  C   UNL     1      -0.265  13.699  20.205  0.00  0.00    +0.000 C 
ATOM      6  C   UNL     1       0.072  13.696  21.687  0.00  0.00    +0.000 C 
ATOM      7  S   UNL     1      -1.142  14.569  22.647  0.00  0.00    +0.000 S 
ATOM      8  O   UNL     1      -1.561  15.733  21.885  0.00  0.00    +0.000 OA
ATOM      9  O   UNL     1      -0.573  14.751  23.969  0.00  0.00    +0.000 OA
ATOM     10  C   UNL     1      -2.549  13.496  22.824  0.00  0.00    +0.000 C 
ATOM     11  C   UNL     1      -2.758  12.413  21.773  0.00  0.00    +0.000 C 
ATOM     12  C   UNL     1      -2.617  12.890  20.315  0.00  0.00    +0.000 C 
ATOM     13  C   UNL     1      -3.729  12.298  19.442  0.00  0.00    +0.000 C 
ATOM     14  H   UNL     1       1.025  11.695  20.204  0.00  0.00    +0.000 HD
ENDROOT
BRANCH   1  18
ATOM     15  C   UNL     1       2.431   7.423  18.733  0.00  0.00    +0.000 A 
ATOM     16  C   UNL     1       2.423   8.443  17.771  0.00  0.00    +0.000 A 
ATOM     17  C   UNL     1       1.801   9.670  18.031  0.00  0.00    +0.000 A 
ATOM     18  C   UNL     1       1.180   9.900  19.257  0.00  0.00    +0.000 A 
ATOM     19  C   UNL     1       1.214   8.901  20.233  0.00  0.00    +0.000 A 
ATOM     20  C   UNL     1       1.825   7.680  19.964  0.00  0.00    +0.000 A 
ATOM     21  F   UNL     1       1.813   6.740  20.920  0.00  0.00    +0.000 F 
BRANCH  15  23
ATOM     22  C   UNL     1       2.079   5.055  17.948  0.00  0.00    +0.000 C 
ATOM     23  C   UNL     1       3.088   6.085  18.469  0.00  0.00    +0.000 C 
ATOM     24  C   UNL     1       4.267   6.240  17.506  0.00  0.00    +0.000 C 
ENDBRANCH  15  23
ENDBRANCH   1  18
TORSDOF 2
ENDMDL
MODEL 7
REMARK VINA RESULT:      -6.8      2.552      3.568
REMARK  Name = 
REMARK  5 active torsions:
REMARK  status: ('A' for Active; 'I' for Inactive)
REMARK    1  A    between atoms: C_1  and  C_2
REMARK    2  A    between atoms: C_2  and  C_3
REMARK    3  A    between atoms: C_2  and  C_4
REMARK    4  A    between atoms: C_7  and  N_8
REMARK    5  A    between atoms: C_19  and  C_20
REMARK                            x       y       z     vdW  Elec       q    Type
REMARK                         _______ _______ _______ _____ _____    ______ ____
ROOT
ATOM      1  N   UNL     1       1.777   7.433  19.225  0.00  0.00    +0.000 N 
ATOM      2  C   UNL     1       2.757   7.328  18.258  0.00  0.00    +0.000 C 
ATOM      3  O   UNL     1       3.379   8.290  17.822  0.00  0.00    +0.000 OA
ATOM      4  N   UNL     1       3.046   6.009  17.865  0.00  0.00    +0.000 N 
ATOM      5  C   UNL     1       2.226   4.858  18.261  0.00  0.00    +0.000 C 
ATOM      6  C   UNL     1       2.734   4.215  19.542  0.00  0.00    +0.000 C 
ATOM      7  S   UNL     1       4.070   3.085  19.236  0.00  0.00    +0.000 S 
ATOM      8  O   UNL     1       3.782   2.378  18.000  0.00  0.00    +0.000 OA
ATOM      9  O   UNL     1       4.263   2.330  20.460  0.00  0.00    +0.000 OA
ATOM     10  C   UNL     1       5.537   4.057  18.981  0.00  0.00    +0.000 C 
ATOM     11  C   UNL     1       5.368   5.492  18.500  0.00  0.00    +0.000 C 
ATOM     12  C   UNL     1       4.387   5.670  17.326  0.00  0.00    +0.000 C 
ATOM     13  C   UNL     1       4.960   6.636  16.282  0.00  0.00    +0.000 C 
ATOM     14  H   UNL     1       1.559   6.601  19.743  0.00  0.00    +0.000 HD
ENDROOT
BRANCH   1  18
ATOM     15  C   UNL     1       0.217  11.024  20.830  0.00  0.00    +0.000 A 
ATOM     16  C   UNL     1       0.674  10.018  21.694  0.00  0.00    +0.000 A 
ATOM     17  C   UNL     1       1.202   8.824  21.189  0.00  0.00    +0.000 A 
ATOM     18  C   UNL     1       1.285   8.617  19.813  0.00  0.00    +0.000 A 
ATOM     19  C   UNL     1       0.863   9.628  18.947  0.00  0.00    +0.000 A 
ATOM     20  C   UNL     1       0.330  10.809  19.457  0.00  0.00    +0.000 A 
ATOM     21  F   UNL     1      -0.085  11.744  18.589  0.00  0.00    +0.000 F 
BRANCH  15  23
ATOM     22  C   UNL     1      -1.003  12.129  22.738  0.00  0.00    +0.000 C 
ATOM     23  C   UNL     1      -0.368  12.319  21.356  0.00  0.00    +0.000 C 
ATOM     24  C   UNL     1       0.692  13.422  21.381  0.00  0.00    +0.000 C 
ENDBRANCH  15  23
ENDBRANCH   1  18
TORSDOF 2
ENDMDL
MODEL 8
REMARK VINA RESULT:      -6.7      4.919      8.911
REMARK  Name = 
REMARK  5 active torsions:
REMARK  status: ('A' for Active; 'I' for Inactive)
REMARK    1  A    between atoms: C_1  and  C_2
REMARK    2  A    between atoms: C_2  and  C_3
REMARK    3  A    between atoms: C_2  and  C_4
REMARK    4  A    between atoms: C_7  and  N_8
REMARK    5  A    between atoms: C_19  and  C_20
REMARK                            x       y       z     vdW  Elec       q    Type
REMARK                         _______ _______ _______ _____ _____    ______ ____
ROOT
ATOM      1  N   UNL     1       0.967   9.686  20.386  0.00  0.00    +0.000 N 
ATOM      2  C   UNL     1       0.614  10.804  19.658  0.00  0.00    +0.000 C 
ATOM      3  O   UNL     1       0.673  10.860  18.435  0.00  0.00    +0.000 OA
ATOM      4  N   UNL     1       0.100  11.861  20.431  0.00  0.00    +0.000 N 
ATOM      5  C   UNL     1       0.150  11.878  21.897  0.00  0.00    +0.000 C 
ATOM      6  C   UNL     1      -1.105  11.281  22.514  0.00  0.00    +0.000 C 
ATOM      7  S   UNL     1      -2.430  12.461  22.603  0.00  0.00    +0.000 S 
ATOM      8  O   UNL     1      -1.857  13.750  22.951  0.00  0.00    +0.000 OA
ATOM      9  O   UNL     1      -3.447  11.880  23.460  0.00  0.00    +0.000 OA
ATOM     10  C   UNL     1      -3.130  12.595  20.974  0.00  0.00    +0.000 C 
ATOM     11  C   UNL     1      -2.247  12.234  19.786  0.00  0.00    +0.000 C 
ATOM     12  C   UNL     1      -0.833  12.842  19.822  0.00  0.00    +0.000 C 
ATOM     13  C   UNL     1      -0.439  13.383  18.442  0.00  0.00    +0.000 C 
ATOM     14  H   UNL     1       0.593   9.611  21.315  0.00  0.00    +0.000 HD
ENDROOT
BRANCH   1  18
ATOM     15  C   UNL     1       2.470   5.976  19.012  0.00  0.00    +0.000 A 
ATOM     16  C   UNL     1       2.549   7.106  18.186  0.00  0.00    +0.000 A 
ATOM     17  C   UNL     1       2.067   8.347  18.619  0.00  0.00    +0.000 A 
ATOM     18  C   UNL     1       1.501   8.479  19.886  0.00  0.00    +0.000 A 
ATOM     19  C   UNL     1       1.449   7.365  20.727  0.00  0.00    +0.000 A 
ATOM     20  C   UNL     1       1.921   6.133  20.285  0.00  0.00    +0.000 A 
ATOM     21  F   UNL     1       1.830   5.083  21.116  0.00  0.00    +0.000 F 
BRANCH  15  23
ATOM     22  C   UNL     1       1.830   3.731  18.064  0.00  0.00    +0.000 C 
ATOM     23  C   UNL     1       2.975   4.622  18.558  0.00  0.00    +0.000 C 
ATOM     24  C   UNL     1       4.057   4.778  17.488  0.00  0.00    +0.000 C 
ENDBRANCH  15  23
ENDBRANCH   1  18
TORSDOF 2
ENDMDL
MODEL 9
REMARK VINA RESULT:      -6.7      4.539      8.307
REMARK  Name = 
REMARK  5 active torsions:
REMARK  status: ('A' for Active; 'I' for Inactive)
REMARK    1  A    between atoms: C_1  and  C_2
REMARK    2  A    between atoms: C_2  and  C_3
REMARK    3  A    between atoms: C_2  and  C_4
REMARK    4  A    between atoms: C_7  and  N_8
REMARK    5  A    between atoms: C_19  and  C_20
REMARK                            x       y       z     vdW  Elec       q    Type
REMARK                         _______ _______ _______ _____ _____    ______ ____
ROOT
ATOM      1  N   UNL     1       1.724   9.794  18.846  0.00  0.00    +0.000 N 
ATOM      2  C   UNL     1       0.515  10.308  18.423  0.00  0.00    +0.000 C 
ATOM      3  O   UNL     1      -0.402   9.613  17.999  0.00  0.00    +0.000 OA
ATOM      4  N   UNL     1       0.385  11.698  18.590  0.00  0.00    +0.000 N 
ATOM      5  C   UNL     1       1.507  12.569  18.958  0.00  0.00    +0.000 C 
ATOM      6  C   UNL     1       1.614  12.750  20.463  0.00  0.00    +0.000 C 
ATOM      7  S   UNL     1       0.515  14.012  21.062  0.00  0.00    +0.000 S 
ATOM      8  O   UNL     1       0.498  15.088  20.086  0.00  0.00    +0.000 OA
ATOM      9  O   UNL     1       0.913  14.295  22.428  0.00  0.00    +0.000 OA
ATOM     10  C   UNL     1      -1.116  13.306  21.125  0.00  0.00    +0.000 C 
ATOM     11  C   UNL     1      -1.420  12.127  20.210  0.00  0.00    +0.000 C 
ATOM     12  C   UNL     1      -0.961  12.305  18.751  0.00  0.00    +0.000 C 
ATOM     13  C   UNL     1      -2.042  11.819  17.779  0.00  0.00    +0.000 C 
ATOM     14  H   UNL     1       2.273  10.369  19.460  0.00  0.00    +0.000 HD
ENDROOT
BRANCH   1  18
ATOM     15  C   UNL     1       2.834   5.710  18.866  0.00  0.00    +0.000 A 
ATOM     16  C   UNL     1       3.153   6.512  17.760  0.00  0.00    +0.000 A 
ATOM     17  C   UNL     1       2.805   7.867  17.732  0.00  0.00    +0.000 A 
ATOM     18  C   UNL     1       2.135   8.445  18.809  0.00  0.00    +0.000 A 
ATOM     19  C   UNL     1       1.844   7.661  19.928  0.00  0.00    +0.000 A 
ATOM     20  C   UNL     1       2.184   6.311  19.944  0.00  0.00    +0.000 A 
ATOM     21  F   UNL     1       1.864   5.589  21.028  0.00  0.00    +0.000 F 
BRANCH  15  23
ATOM     22  C   UNL     1       2.000   3.358  18.522  0.00  0.00    +0.000 C 
ATOM     23  C   UNL     1       3.192   4.239  18.912  0.00  0.00    +0.000 C 
ATOM     24  C   UNL     1       4.407   3.948  18.028  0.00  0.00    +0.000 C 
ENDBRANCH  15  23
ENDBRANCH   1  18
TORSDOF 2
ENDMDL
