MODEL 1
REMARK VINA RESULT:      -6.6      0.000      0.000
REMARK  Name = 
REMARK  9 active torsions:
REMARK  status: ('A' for Active; 'I' for Inactive)
REMARK    1  A    between atoms: C_1  and  O_2
REMARK    2  A    between atoms: O_2  and  C_3
REMARK    3  A    between atoms: C_3  and  C_5
REMARK    4  A    between atoms: C_11  and  C_12
REMARK    5  A    between atoms: C_15  and  S_16
REMARK    6  A    between atoms: S_16  and  C_17
REMARK    7  A    between atoms: N_20  and  C_21
REMARK    8  A    between atoms: C_21  and  C_22
REMARK    9  A    between atoms: C_22  and  C_23
REMARK                            x       y       z     vdW  Elec       q    Type
REMARK                         _______ _______ _______ _____ _____    ______ ____
ROOT
ATOM      1  C   UNL     1       5.420   4.365  17.817  0.00  0.00    +0.000 C 
ATOM      2  C   UNL     1       6.705   4.896  17.084  0.00  0.00    +0.000 C 
ATOM      3  C   UNL     1       7.014   4.244  15.704  0.00  0.00    +0.000 C 
ATOM      4  C   UNL     1       6.341   5.142  14.650  0.00  0.00    +0.000 C 
ATOM      5  C   UNL     1       5.493   6.065  15.516  0.00  0.00    +0.000 C 
ATOM      6  C   UNL     1       4.206   5.234  15.868  0.00  0.00    +0.000 C 
ATOM      7  C   UNL     1       4.058   5.030  17.383  0.00  0.00    +0.000 C 
ATOM      8  N   UNL     1       6.510   6.237  16.567  0.00  0.00    +0.000 NA
ENDROOT
BRANCH   7   9
ATOM      9  C   UNL     1       3.418   6.290  18.006  0.00  0.00    +0.000 A 
ATOM     10  C   UNL     1       2.928   6.323  19.317  0.00  0.00    +0.000 A 
ATOM     11  C   UNL     1       2.168   7.419  19.797  0.00  0.00    +0.000 A 
ATOM     12  C   UNL     1       1.869   8.510  18.974  0.00  0.00    +0.000 A 
ATOM     13  C   UNL     1       2.362   8.493  17.681  0.00  0.00    +0.000 A 
ATOM     14  C   UNL     1       3.105   7.415  17.218  0.00  0.00    +0.000 A 
BRANCH  12  15
ATOM     15  S   UNL     1       0.862   9.932  19.343  0.00  0.00    +0.000 S 
ATOM     16  C   UNL     1      -0.003   9.461  20.846  0.00  0.00    +0.000 C 
ENDBRANCH  12  15
ENDBRANCH   7   9
BRANCH   1  17
ATOM     17  C   UNL     1       5.650   4.163  19.306  0.00  0.00    +0.000 C 
ATOM     18  O   UNL     1       6.267   4.936  20.023  0.00  0.00    +0.000 OA
BRANCH  17  20
ATOM     19  C   UNL     1       3.911   2.840  20.180  0.00  0.00    +0.000 C 
ATOM     20  O   UNL     1       5.254   2.918  19.694  0.00  0.00    +0.000 OA
ENDBRANCH  17  20
ENDBRANCH   1  17
BRANCH   8  21
ATOM     21  C   UNL     1       6.564   7.332  17.516  0.00  0.00    +0.000 C 
BRANCH  21  22
ATOM     22  C   UNL     1       8.008   7.699  17.924  0.00  0.00    +0.000 C 
BRANCH  22  23
ATOM     23  C   UNL     1       8.268   9.190  18.033  0.00  0.00    +0.000 C 
ATOM     24  F   UNL     1       9.055   9.410  19.126  0.00  0.00    +0.000 F 
ENDBRANCH  22  23
ENDBRANCH  21  22
ENDBRANCH   8  21
TORSDOF 7
ENDMDL
MODEL 2
REMARK VINA RESULT:      -6.2      1.517      1.874
REMARK  Name = 
REMARK  9 active torsions:
REMARK  status: ('A' for Active; 'I' for Inactive)
REMARK    1  A    between atoms: C_1  and  O_2
REMARK    2  A    between atoms: O_2  and  C_3
REMARK    3  A    between atoms: C_3  and  C_5
REMARK    4  A    between atoms: C_11  and  C_12
REMARK    5  A    between atoms: C_15  and  S_16
REMARK    6  A    between atoms: S_16  and  C_17
REMARK    7  A    between atoms: N_20  and  C_21
REMARK    8  A    between atoms: C_21  and  C_22
REMARK    9  A    between atoms: C_22  and  C_23
REMARK                            x       y       z     vdW  Elec       q    Type
REMARK                         _______ _______ _______ _____ _____    ______ ____
ROOT
ATOM      1  C   UNL     1       4.029   3.526  17.535  0.00  0.00    +0.000 C 
ATOM      2  C   UNL     1       5.571   3.737  17.315  0.00  0.00    +0.000 C 
ATOM      3  C   UNL     1       6.046   3.749  15.832  0.00  0.00    +0.000 C 
ATOM      4  C   UNL     1       6.032   5.225  15.394  0.00  0.00    +0.000 C 
ATOM      5  C   UNL     1       5.306   5.892  16.555  0.00  0.00    +0.000 C 
ATOM      6  C   UNL     1       3.778   5.629  16.293  0.00  0.00    +0.000 C 
ATOM      7  C   UNL     1       3.137   4.822  17.432  0.00  0.00    +0.000 C 
ATOM      8  N   UNL     1       5.971   5.101  17.603  0.00  0.00    +0.000 NA
ENDROOT
BRANCH   7   9
ATOM      9  C   UNL     1       2.778   5.777  18.592  0.00  0.00    +0.000 A 
ATOM     10  C   UNL     1       2.404   5.320  19.862  0.00  0.00    +0.000 A 
ATOM     11  C   UNL     1       1.886   6.201  20.844  0.00  0.00    +0.000 A 
ATOM     12  C   UNL     1       1.719   7.565  20.579  0.00  0.00    +0.000 A 
ATOM     13  C   UNL     1       2.100   8.028  19.331  0.00  0.00    +0.000 A 
ATOM     14  C   UNL     1       2.605   7.157  18.374  0.00  0.00    +0.000 A 
BRANCH  12  15
ATOM     15  S   UNL     1       1.007   8.818  21.626  0.00  0.00    +0.000 S 
ATOM     16  C   UNL     1      -0.075   9.730  20.520  0.00  0.00    +0.000 C 
ENDBRANCH  12  15
ENDBRANCH   7   9
BRANCH   1  17
ATOM     17  C   UNL     1       3.738   2.573  18.682  0.00  0.00    +0.000 C 
ATOM     18  O   UNL     1       4.441   2.446  19.674  0.00  0.00    +0.000 OA
BRANCH  17  20
ATOM     19  C   UNL     1       1.494   1.993  19.090  0.00  0.00    +0.000 C 
ATOM     20  O   UNL     1       2.705   1.740  18.372  0.00  0.00    +0.000 OA
ENDBRANCH  17  20
ENDBRANCH   1  17
BRANCH   8  21
ATOM     21  C   UNL     1       6.089   5.480  18.998  0.00  0.00    +0.000 C 
BRANCH  21  22
ATOM     22  C   UNL     1       7.489   6.028  19.352  0.00  0.00    +0.000 C 
BRANCH  22  23
ATOM     23  C   UNL     1       8.065   6.985  18.325  0.00  0.00    +0.000 C 
ATOM     24  F   UNL     1       8.773   7.947  18.985  0.00  0.00    +0.000 F 
ENDBRANCH  22  23
ENDBRANCH  21  22
ENDBRANCH   8  21
TORSDOF 7
ENDMDL
MODEL 3
REMARK VINA RESULT:      -6.1      3.180      5.392
REMARK  Name = 
REMARK  9 active torsions:
REMARK  status: ('A' for Active; 'I' for Inactive)
REMARK    1  A    between atoms: C_1  and  O_2
REMARK    2  A    between atoms: O_2  and  C_3
REMARK    3  A    between atoms: C_3  and  C_5
REMARK    4  A    between atoms: C_11  and  C_12
REMARK    5  A    between atoms: C_15  and  S_16
REMARK    6  A    between atoms: S_16  and  C_17
REMARK    7  A    between atoms: N_20  and  C_21
REMARK    8  A    between atoms: C_21  and  C_22
REMARK    9  A    between atoms: C_22  and  C_23
REMARK                            x       y       z     vdW  Elec       q    Type
REMARK                         _______ _______ _______ _____ _____    ______ ____
ROOT
ATOM      1  C   UNL     1       6.093   4.306  16.585  0.00  0.00    +0.000 C 
ATOM      2  C   UNL     1       4.536   4.229  16.786  0.00  0.00    +0.000 C 
ATOM      3  C   UNL     1       4.014   2.981  17.556  0.00  0.00    +0.000 C 
ATOM      4  C   UNL     1       3.937   3.397  19.037  0.00  0.00    +0.000 C 
ATOM      5  C   UNL     1       4.662   4.737  19.026  0.00  0.00    +0.000 C 
ATOM      6  C   UNL     1       6.193   4.377  19.037  0.00  0.00    +0.000 C 
ATOM      7  C   UNL     1       6.912   4.911  17.789  0.00  0.00    +0.000 C 
ATOM      8  N   UNL     1       4.074   5.200  17.759  0.00  0.00    +0.000 NA
ENDROOT
BRANCH   7   9
ATOM      9  C   UNL     1       7.256   6.402  18.000  0.00  0.00    +0.000 A 
ATOM     10  C   UNL     1       6.770   7.417  17.167  0.00  0.00    +0.000 A 
ATOM     11  C   UNL     1       7.258   8.745  17.255  0.00  0.00    +0.000 A 
ATOM     12  C   UNL     1       8.253   9.093  18.175  0.00  0.00    +0.000 A 
ATOM     13  C   UNL     1       8.729   8.099  19.012  0.00  0.00    +0.000 A 
ATOM     14  C   UNL     1       8.247   6.799  18.918  0.00  0.00    +0.000 A 
BRANCH  12  15
ATOM     15  S   UNL     1       9.066  10.664  18.386  0.00  0.00    +0.000 S 
ATOM     16  C   UNL     1       9.397  10.735  20.151  0.00  0.00    +0.000 C 
ENDBRANCH  12  15
ENDBRANCH   7   9
BRANCH   1  17
ATOM     17  C   UNL     1       6.470   4.768  15.188  0.00  0.00    +0.000 C 
ATOM     18  O   UNL     1       7.488   5.384  14.913  0.00  0.00    +0.000 OA
BRANCH  17  20
ATOM     19  C   UNL     1       5.721   3.699  13.229  0.00  0.00    +0.000 C 
ATOM     20  O   UNL     1       5.437   4.582  14.319  0.00  0.00    +0.000 OA
ENDBRANCH  17  20
ENDBRANCH   1  17
BRANCH   8  21
ATOM     21  C   UNL     1       3.979   6.582  17.329  0.00  0.00    +0.000 C 
BRANCH  21  22
ATOM     22  C   UNL     1       2.983   7.405  18.176  0.00  0.00    +0.000 C 
BRANCH  22  23
ATOM     23  C   UNL     1       2.562   8.720  17.545  0.00  0.00    +0.000 C 
ATOM     24  F   UNL     1       1.209   8.841  17.670  0.00  0.00    +0.000 F 
ENDBRANCH  22  23
ENDBRANCH  21  22
ENDBRANCH   8  21
TORSDOF 7
ENDMDL
MODEL 4
REMARK VINA RESULT:      -6.0      3.559      6.095
REMARK  Name = 
REMARK  9 active torsions:
REMARK  status: ('A' for Active; 'I' for Inactive)
REMARK    1  A    between atoms: C_1  and  O_2
REMARK    2  A    between atoms: O_2  and  C_3
REMARK    3  A    between atoms: C_3  and  C_5
REMARK    4  A    between atoms: C_11  and  C_12
REMARK    5  A    between atoms: C_15  and  S_16
REMARK    6  A    between atoms: S_16  and  C_17
REMARK    7  A    between atoms: N_20  and  C_21
REMARK    8  A    between atoms: C_21  and  C_22
REMARK    9  A    between atoms: C_22  and  C_23
REMARK                            x       y       z     vdW  Elec       q    Type
REMARK                         _______ _______ _______ _____ _____    ______ ____
ROOT
ATOM      1  C   UNL     1       4.425   5.620  19.268  0.00  0.00    +0.000 C 
ATOM      2  C   UNL     1       2.873   5.673  19.514  0.00  0.00    +0.000 C 
ATOM      3  C   UNL     1       2.323   7.017  20.076  0.00  0.00    +0.000 C 
ATOM      4  C   UNL     1       1.909   7.852  18.851  0.00  0.00    +0.000 C 
ATOM      5  C   UNL     1       2.495   7.041  17.703  0.00  0.00    +0.000 C 
ATOM      6  C   UNL     1       4.017   7.429  17.658  0.00  0.00    +0.000 C 
ATOM      7  C   UNL     1       4.922   6.209  17.892  0.00  0.00    +0.000 C 
ATOM      8  N   UNL     1       2.135   5.729  18.266  0.00  0.00    +0.000 NA
ENDROOT
BRANCH   7   9
ATOM      9  C   UNL     1       5.078   5.430  16.568  0.00  0.00    +0.000 A 
ATOM     10  C   UNL     1       5.277   4.045  16.523  0.00  0.00    +0.000 A 
ATOM     11  C   UNL     1       5.617   3.383  15.317  0.00  0.00    +0.000 A 
ATOM     12  C   UNL     1       5.777   4.092  14.121  0.00  0.00    +0.000 A 
ATOM     13  C   UNL     1       5.567   5.460  14.153  0.00  0.00    +0.000 A 
ATOM     14  C   UNL     1       5.236   6.101  15.340  0.00  0.00    +0.000 A 
BRANCH  12  15
ATOM     15  S   UNL     1       6.288   3.478  12.529  0.00  0.00    +0.000 S 
ATOM     16  C   UNL     1       4.737   3.149  11.684  0.00  0.00    +0.000 C 
ENDBRANCH  12  15
ENDBRANCH   7   9
BRANCH   1  17
ATOM     17  C   UNL     1       5.033   4.303  19.719  0.00  0.00    +0.000 C 
ATOM     18  O   UNL     1       6.208   3.998  19.579  0.00  0.00    +0.000 OA
BRANCH  17  20
ATOM     19  C   UNL     1       4.534   2.120  20.445  0.00  0.00    +0.000 C 
ATOM     20  O   UNL     1       4.064   3.431  20.117  0.00  0.00    +0.000 OA
ENDBRANCH  17  20
ENDBRANCH   1  17
BRANCH   8  21
ATOM     21  C   UNL     1       2.003   4.496  17.514  0.00  0.00    +0.000 C 
BRANCH  21  22
ATOM     22  C   UNL     1       1.141   3.441  18.241  0.00  0.00    +0.000 C 
BRANCH  22  23
ATOM     23  C   UNL     1       1.733   2.044  18.246  0.00  0.00    +0.000 C 
ATOM     24  F   UNL     1       2.820   2.036  17.422  0.00  0.00    +0.000 F 
ENDBRANCH  22  23
ENDBRANCH  21  22
ENDBRANCH   8  21
TORSDOF 7
ENDMDL
MODEL 5
REMARK VINA RESULT:      -6.0      3.564      6.219
REMARK  Name = 
REMARK  9 active torsions:
REMARK  status: ('A' for Active; 'I' for Inactive)
REMARK    1  A    between atoms: C_1  and  O_2
REMARK    2  A    between atoms: O_2  and  C_3
REMARK    3  A    between atoms: C_3  and  C_5
REMARK    4  A    between atoms: C_11  and  C_12
REMARK    5  A    between atoms: C_15  and  S_16
REMARK    6  A    between atoms: S_16  and  C_17
REMARK    7  A    between atoms: N_20  and  C_21
REMARK    8  A    between atoms: C_21  and  C_22
REMARK    9  A    between atoms: C_22  and  C_23
REMARK                            x       y       z     vdW  Elec       q    Type
REMARK                         _______ _______ _______ _____ _____    ______ ____
ROOT
ATOM      1  C   UNL     1       4.830   5.839  19.129  0.00  0.00    +0.000 C 
ATOM      2  C   UNL     1       3.352   5.573  19.592  0.00  0.00    +0.000 C 
ATOM      3  C   UNL     1       2.581   6.811  20.136  0.00  0.00    +0.000 C 
ATOM      4  C   UNL     1       1.835   7.410  18.930  0.00  0.00    +0.000 C 
ATOM      5  C   UNL     1       2.444   6.638  17.766  0.00  0.00    +0.000 C 
ATOM      6  C   UNL     1       3.818   7.346  17.476  0.00  0.00    +0.000 C 
ATOM      7  C   UNL     1       5.003   6.385  17.660  0.00  0.00    +0.000 C 
ATOM      8  N   UNL     1       2.472   5.342  18.463  0.00  0.00    +0.000 NA
ENDROOT
BRANCH   7   9
ATOM      9  C   UNL     1       5.167   5.532  16.383  0.00  0.00    +0.000 A 
ATOM     10  C   UNL     1       5.462   4.163  16.419  0.00  0.00    +0.000 A 
ATOM     11  C   UNL     1       5.808   3.448  15.245  0.00  0.00    +0.000 A 
ATOM     12  C   UNL     1       5.876   4.086  14.001  0.00  0.00    +0.000 A 
ATOM     13  C   UNL     1       5.571   5.435  13.954  0.00  0.00    +0.000 A 
ATOM     14  C   UNL     1       5.236   6.129  15.110  0.00  0.00    +0.000 A 
BRANCH  12  15
ATOM     15  S   UNL     1       6.374   3.404  12.433  0.00  0.00    +0.000 S 
ATOM     16  C   UNL     1       4.817   3.038  11.616  0.00  0.00    +0.000 C 
ENDBRANCH  12  15
ENDBRANCH   7   9
BRANCH   1  17
ATOM     17  C   UNL     1       5.779   4.739  19.576  0.00  0.00    +0.000 C 
ATOM     18  O   UNL     1       5.481   3.557  19.657  0.00  0.00    +0.000 OA
BRANCH  17  20
ATOM     19  C   UNL     1       7.919   5.577  19.067  0.00  0.00    +0.000 C 
ATOM     20  O   UNL     1       6.939   5.265  20.062  0.00  0.00    +0.000 OA
ENDBRANCH  17  20
ENDBRANCH   1  17
BRANCH   8  21
ATOM     21  C   UNL     1       2.535   4.042  17.823  0.00  0.00    +0.000 C 
BRANCH  21  22
ATOM     22  C   UNL     1       1.326   3.145  18.169  0.00  0.00    +0.000 C 
BRANCH  22  23
ATOM     23  C   UNL     1       1.046   3.017  19.655  0.00  0.00    +0.000 C 
ATOM     24  F   UNL     1       2.110   2.394  20.240  0.00  0.00    +0.000 F 
ENDBRANCH  22  23
ENDBRANCH  21  22
ENDBRANCH   8  21
TORSDOF 7
ENDMDL
MODEL 6
REMARK VINA RESULT:      -5.9      3.747      6.403
REMARK  Name = 
REMARK  9 active torsions:
REMARK  status: ('A' for Active; 'I' for Inactive)
REMARK    1  A    between atoms: C_1  and  O_2
REMARK    2  A    between atoms: O_2  and  C_3
REMARK    3  A    between atoms: C_3  and  C_5
REMARK    4  A    between atoms: C_11  and  C_12
REMARK    5  A    between atoms: C_15  and  S_16
REMARK    6  A    between atoms: S_16  and  C_17
REMARK    7  A    between atoms: N_20  and  C_21
REMARK    8  A    between atoms: C_21  and  C_22
REMARK    9  A    between atoms: C_22  and  C_23
REMARK                            x       y       z     vdW  Elec       q    Type
REMARK                         _______ _______ _______ _____ _____    ______ ____
ROOT
ATOM      1  C   UNL     1       5.527   5.993  18.763  0.00  0.00    +0.000 C 
ATOM      2  C   UNL     1       4.477   5.097  19.514  0.00  0.00    +0.000 C 
ATOM      3  C   UNL     1       3.222   5.839  20.061  0.00  0.00    +0.000 C 
ATOM      4  C   UNL     1       2.154   5.736  18.957  0.00  0.00    +0.000 C 
ATOM      5  C   UNL     1       2.960   5.188  17.786  0.00  0.00    +0.000 C 
ATOM      6  C   UNL     1       3.704   6.433  17.179  0.00  0.00    +0.000 C 
ATOM      7  C   UNL     1       5.230   6.269  17.239  0.00  0.00    +0.000 C 
ATOM      8  N   UNL     1       3.748   4.244  18.595  0.00  0.00    +0.000 NA
ENDROOT
BRANCH   7   9
ATOM      9  C   UNL     1       5.696   5.404  16.048  0.00  0.00    +0.000 A 
ATOM     10  C   UNL     1       7.023   5.381  15.601  0.00  0.00    +0.000 A 
ATOM     11  C   UNL     1       7.386   4.742  14.389  0.00  0.00    +0.000 A 
ATOM     12  C   UNL     1       6.428   4.114  13.584  0.00  0.00    +0.000 A 
ATOM     13  C   UNL     1       5.116   4.119  14.026  0.00  0.00    +0.000 A 
ATOM     14  C   UNL     1       4.768   4.750  15.214  0.00  0.00    +0.000 A 
BRANCH  12  15
ATOM     15  S   UNL     1       6.651   3.342  11.995  0.00  0.00    +0.000 S 
ATOM     16  C   UNL     1       5.011   2.734  11.585  0.00  0.00    +0.000 C 
ENDBRANCH  12  15
ENDBRANCH   7   9
BRANCH   1  17
ATOM     17  C   UNL     1       6.956   5.640  19.139  0.00  0.00    +0.000 C 
ATOM     18  O   UNL     1       7.285   5.089  20.178  0.00  0.00    +0.000 OA
BRANCH  17  20
ATOM     19  C   UNL     1       8.253   7.524  18.581  0.00  0.00    +0.000 C 
ATOM     20  O   UNL     1       7.840   6.193  18.260  0.00  0.00    +0.000 OA
ENDBRANCH  17  20
ENDBRANCH   1  17
BRANCH   8  21
ATOM     21  C   UNL     1       4.433   3.068  18.090  0.00  0.00    +0.000 C 
BRANCH  21  22
ATOM     22  C   UNL     1       3.587   1.782  18.218  0.00  0.00    +0.000 C 
BRANCH  22  23
ATOM     23  C   UNL     1       2.338   1.935  19.066  0.00  0.00    +0.000 C 
ATOM     24  F   UNL     1       1.287   2.197  18.237  0.00  0.00    +0.000 F 
ENDBRANCH  22  23
ENDBRANCH  21  22
ENDBRANCH   8  21
TORSDOF 7
ENDMDL
MODEL 7
REMARK VINA RESULT:      -5.8      3.035      5.347
REMARK  Name = 
REMARK  9 active torsions:
REMARK  status: ('A' for Active; 'I' for Inactive)
REMARK    1  A    between atoms: C_1  and  O_2
REMARK    2  A    between atoms: O_2  and  C_3
REMARK    3  A    between atoms: C_3  and  C_5
REMARK    4  A    between atoms: C_11  and  C_12
REMARK    5  A    between atoms: C_15  and  S_16
REMARK    6  A    between atoms: S_16  and  C_17
REMARK    7  A    between atoms: N_20  and  C_21
REMARK    8  A    between atoms: C_21  and  C_22
REMARK    9  A    between atoms: C_22  and  C_23
REMARK                            x       y       z     vdW  Elec       q    Type
REMARK                         _______ _______ _______ _____ _____    ______ ____
ROOT
ATOM      1  C   UNL     1       5.252   4.264  16.770  0.00  0.00    +0.000 C 
ATOM      2  C   UNL     1       3.793   4.656  17.203  0.00  0.00    +0.000 C 
ATOM      3  C   UNL     1       3.047   3.614  18.087  0.00  0.00    +0.000 C 
ATOM      4  C   UNL     1       3.324   4.017  19.546  0.00  0.00    +0.000 C 
ATOM      5  C   UNL     1       4.406   5.077  19.380  0.00  0.00    +0.000 C 
ATOM      6  C   UNL     1       5.742   4.275  19.175  0.00  0.00    +0.000 C 
ATOM      7  C   UNL     1       6.388   4.583  17.816  0.00  0.00    +0.000 C 
ATOM      8  N   UNL     1       3.795   5.710  18.200  0.00  0.00    +0.000 NA
ENDROOT
BRANCH   7   9
ATOM      9  C   UNL     1       7.189   5.899  17.920  0.00  0.00    +0.000 A 
ATOM     10  C   UNL     1       7.977   6.220  19.032  0.00  0.00    +0.000 A 
ATOM     11  C   UNL     1       8.537   7.512  19.195  0.00  0.00    +0.000 A 
ATOM     12  C   UNL     1       8.317   8.523  18.253  0.00  0.00    +0.000 A 
ATOM     13  C   UNL     1       7.551   8.210  17.143  0.00  0.00    +0.000 A 
ATOM     14  C   UNL     1       7.004   6.942  16.992  0.00  0.00    +0.000 A 
BRANCH  12  15
ATOM     15  S   UNL     1       8.843  10.223  18.309  0.00  0.00    +0.000 S 
ATOM     16  C   UNL     1       9.387  10.443  20.008  0.00  0.00    +0.000 C 
ENDBRANCH  12  15
ENDBRANCH   7   9
BRANCH   1  17
ATOM     17  C   UNL     1       5.531   4.608  15.316  0.00  0.00    +0.000 C 
ATOM     18  O   UNL     1       5.115   5.605  14.747  0.00  0.00    +0.000 OA
BRANCH  17  20
ATOM     19  C   UNL     1       6.185   3.682  13.253  0.00  0.00    +0.000 C 
ATOM     20  O   UNL     1       6.136   3.566  14.678  0.00  0.00    +0.000 OA
ENDBRANCH  17  20
ENDBRANCH   1  17
BRANCH   8  21
ATOM     21  C   UNL     1       4.053   7.062  17.740  0.00  0.00    +0.000 C 
BRANCH  21  22
ATOM     22  C   UNL     1       2.779   7.775  17.237  0.00  0.00    +0.000 C 
BRANCH  22  23
ATOM     23  C   UNL     1       2.095   8.643  18.277  0.00  0.00    +0.000 C 
ATOM     24  F   UNL     1       1.863   9.870  17.727  0.00  0.00    +0.000 F 
ENDBRANCH  22  23
ENDBRANCH  21  22
ENDBRANCH   8  21
TORSDOF 7
ENDMDL
MODEL 8
REMARK VINA RESULT:      -5.8      0.444      1.060
REMARK  Name = 
REMARK  9 active torsions:
REMARK  status: ('A' for Active; 'I' for Inactive)
REMARK    1  A    between atoms: C_1  and  O_2
REMARK    2  A    between atoms: O_2  and  C_3
REMARK    3  A    between atoms: C_3  and  C_5
REMARK    4  A    between atoms: C_11  and  C_12
REMARK    5  A    between atoms: C_15  and  S_16
REMARK    6  A    between atoms: S_16  and  C_17
REMARK    7  A    between atoms: N_20  and  C_21
REMARK    8  A    between atoms: C_21  and  C_22
REMARK    9  A    between atoms: C_22  and  C_23
REMARK                            x       y       z     vdW  Elec       q    Type
REMARK                         _______ _______ _______ _____ _____    ______ ____
ROOT
ATOM      1  C   UNL     1       5.498   4.191  17.763  0.00  0.00    +0.000 C 
ATOM      2  C   UNL     1       6.764   4.824  17.079  0.00  0.00    +0.000 C 
ATOM      3  C   UNL     1       7.219   4.154  15.748  0.00  0.00    +0.000 C 
ATOM      4  C   UNL     1       6.522   4.936  14.619  0.00  0.00    +0.000 C 
ATOM      5  C   UNL     1       5.535   5.798  15.395  0.00  0.00    +0.000 C 
ATOM      6  C   UNL     1       4.320   4.852  15.713  0.00  0.00    +0.000 C 
ATOM      7  C   UNL     1       4.103   4.692  17.225  0.00  0.00    +0.000 C 
ATOM      8  N   UNL     1       6.464   6.116  16.491  0.00  0.00    +0.000 NA
ENDROOT
BRANCH   7   9
ATOM      9  C   UNL     1       3.303   5.903  17.754  0.00  0.00    +0.000 A 
ATOM     10  C   UNL     1       3.268   7.136  17.091  0.00  0.00    +0.000 A 
ATOM     11  C   UNL     1       2.699   8.286  17.694  0.00  0.00    +0.000 A 
ATOM     12  C   UNL     1       2.155   8.235  18.982  0.00  0.00    +0.000 A 
ATOM     13  C   UNL     1       2.172   7.017  19.639  0.00  0.00    +0.000 A 
ATOM     14  C   UNL     1       2.734   5.896  19.042  0.00  0.00    +0.000 A 
BRANCH  12  15
ATOM     15  S   UNL     1       1.481   9.568  19.953  0.00  0.00    +0.000 S 
ATOM     16  C   UNL     1       0.912   8.756  21.450  0.00  0.00    +0.000 C 
ENDBRANCH  12  15
ENDBRANCH   7   9
BRANCH   1  17
ATOM     17  C   UNL     1       5.659   4.072  19.269  0.00  0.00    +0.000 C 
ATOM     18  O   UNL     1       6.192   4.912  19.978  0.00  0.00    +0.000 OA
BRANCH  17  20
ATOM     19  C   UNL     1       3.968   2.706  20.172  0.00  0.00    +0.000 C 
ATOM     20  O   UNL     1       5.312   2.825  19.698  0.00  0.00    +0.000 OA
ENDBRANCH  17  20
ENDBRANCH   1  17
BRANCH   8  21
ATOM     21  C   UNL     1       6.350   7.247  17.393  0.00  0.00    +0.000 C 
BRANCH  21  22
ATOM     22  C   UNL     1       7.694   7.621  18.055  0.00  0.00    +0.000 C 
BRANCH  22  23
ATOM     23  C   UNL     1       8.108   9.068  17.858  0.00  0.00    +0.000 C 
ATOM     24  F   UNL     1       8.914   9.429  18.898  0.00  0.00    +0.000 F 
ENDBRANCH  22  23
ENDBRANCH  21  22
ENDBRANCH   8  21
TORSDOF 7
ENDMDL
MODEL 9
REMARK VINA RESULT:      -5.8      3.454      6.111
REMARK  Name = 
REMARK  9 active torsions:
REMARK  status: ('A' for Active; 'I' for Inactive)
REMARK    1  A    between atoms: C_1  and  O_2
REMARK    2  A    between atoms: O_2  and  C_3
REMARK    3  A    between atoms: C_3  and  C_5
REMARK    4  A    between atoms: C_11  and  C_12
REMARK    5  A    between atoms: C_15  and  S_16
REMARK    6  A    between atoms: S_16  and  C_17
REMARK    7  A    between atoms: N_20  and  C_21
REMARK    8  A    between atoms: C_21  and  C_22
REMARK    9  A    between atoms: C_22  and  C_23
REMARK                            x       y       z     vdW  Elec       q    Type
REMARK                         _______ _______ _______ _____ _____    ______ ____
ROOT
ATOM      1  C   UNL     1       4.886   5.821  19.083  0.00  0.00    +0.000 C 
ATOM      2  C   UNL     1       3.376   5.467  19.337  0.00  0.00    +0.000 C 
ATOM      3  C   UNL     1       2.495   6.625  19.892  0.00  0.00    +0.000 C 
ATOM      4  C   UNL     1       1.872   7.311  18.663  0.00  0.00    +0.000 C 
ATOM      5  C   UNL     1       2.646   6.671  17.517  0.00  0.00    +0.000 C 
ATOM      6  C   UNL     1       4.014   7.444  17.461  0.00  0.00    +0.000 C 
ATOM      7  C   UNL     1       5.208   6.507  17.700  0.00  0.00    +0.000 C 
ATOM      8  N   UNL     1       2.645   5.317  18.093  0.00  0.00    +0.000 NA
ENDROOT
BRANCH   7   9
ATOM      9  C   UNL     1       5.557   5.783  16.381  0.00  0.00    +0.000 A 
ATOM     10  C   UNL     1       5.273   6.324  15.121  0.00  0.00    +0.000 A 
ATOM     11  C   UNL     1       5.416   5.560  13.936  0.00  0.00    +0.000 A 
ATOM     12  C   UNL     1       5.841   4.227  13.980  0.00  0.00    +0.000 A 
ATOM     13  C   UNL     1       6.139   3.689  15.220  0.00  0.00    +0.000 A 
ATOM     14  C   UNL     1       5.993   4.444  16.377  0.00  0.00    +0.000 A 
BRANCH  12  15
ATOM     15  S   UNL     1       5.997   3.070  12.635  0.00  0.00    +0.000 S 
ATOM     16  C   UNL     1       4.487   3.308  11.693  0.00  0.00    +0.000 C 
ENDBRANCH  12  15
ENDBRANCH   7   9
BRANCH   1  17
ATOM     17  C   UNL     1       5.820   4.713  19.541  0.00  0.00    +0.000 C 
ATOM     18  O   UNL     1       5.532   3.526  19.559  0.00  0.00    +0.000 OA
BRANCH  17  20
ATOM     19  C   UNL     1       8.017   5.487  19.200  0.00  0.00    +0.000 C 
ATOM     20  O   UNL     1       6.945   5.230  20.111  0.00  0.00    +0.000 OA
ENDBRANCH  17  20
ENDBRANCH   1  17
BRANCH   8  21
ATOM     21  C   UNL     1       2.838   4.085  17.351  0.00  0.00    +0.000 C 
BRANCH  21  22
ATOM     22  C   UNL     1       2.078   2.890  17.968  0.00  0.00    +0.000 C 
BRANCH  22  23
ATOM     23  C   UNL     1       2.947   1.683  18.268  0.00  0.00    +0.000 C 
ATOM     24  F   UNL     1       4.054   1.743  17.474  0.00  0.00    +0.000 F 
ENDBRANCH  22  23
ENDBRANCH  21  22
ENDBRANCH   8  21
TORSDOF 7
ENDMDL
