MODEL 1
REMARK VINA RESULT:      -8.5      0.000      0.000
REMARK  Name = 
REMARK  10 active torsions:
REMARK  status: ('A' for Active; 'I' for Inactive)
REMARK    1  A    between atoms: C_1  and  C_2
REMARK    2  A    between atoms: C_2  and  C_3
REMARK    3  A    between atoms: C_2  and  C_4
REMARK    4  A    between atoms: C_4  and  C_5
REMARK    5  A    between atoms: C_4  and  N_16
REMARK    6  A    between atoms: N_7  and  C_8
REMARK    7  A    between atoms: C_8  and  C_9
REMARK    8  A    between atoms: C_18  and  C_19
REMARK    9  A    between atoms: C_22  and  S_23
REMARK   10  A    between atoms: S_23  and  N_24
REMARK                            x       y       z     vdW  Elec       q    Type
REMARK                         _______ _______ _______ _____ _____    ______ ____
ROOT
ATOM      1  N   UNL     1       2.838   5.398  18.748  0.00  0.00    +0.000 N 
ATOM      2  C   UNL     1       2.317   6.539  18.214  0.00  0.00    +0.000 A 
ATOM      3  C   UNL     1       2.146   7.369  19.298  0.00  0.00    +0.000 A 
ATOM      4  N   UNL     1       2.486   6.692  20.439  0.00  0.00    +0.000 NA
ATOM      5  N   UNL     1       2.914   5.483  20.090  0.00  0.00    +0.000 NA
ENDROOT
BRANCH   3   6
ATOM      6  C   UNL     1       1.631   8.723  19.255  0.00  0.00    +0.000 A 
ATOM      7  C   UNL     1       0.812   9.192  20.290  0.00  0.00    +0.000 A 
ATOM      8  C   UNL     1       0.212  10.452  20.201  0.00  0.00    +0.000 A 
ATOM      9  C   UNL     1       0.452  11.255  19.083  0.00  0.00    +0.000 A 
ATOM     10  C   UNL     1       1.309  10.823  18.068  0.00  0.00    +0.000 A 
ATOM     11  C   UNL     1       1.901   9.561  18.161  0.00  0.00    +0.000 A 
BRANCH   9  12
ATOM     12  S   UNL     1      -0.415  12.785  18.900  0.00  0.00    +0.000 S 
ATOM     13  O   UNL     1      -1.523  12.818  19.825  0.00  0.00    +0.000 OA
ATOM     14  O   UNL     1       0.545  13.863  18.809  0.00  0.00    +0.000 OA
BRANCH  12  15
ATOM     15  N   UNL     1      -1.090  12.627  17.377  0.00  0.00    +0.000 NA
ATOM     16  H   UNL     1      -1.283  11.644  17.187  0.00  0.00    +0.000 HD
ATOM     17  H   UNL     1      -1.909  13.231  17.299  0.00  0.00    +0.000 HD
ENDBRANCH  12  15
ENDBRANCH   9  12
ENDBRANCH   3   6
BRANCH   1  18
ATOM     18  C   UNL     1       3.326   4.208  18.061  0.00  0.00    +0.000 C 
BRANCH  18  19
ATOM     19  C   UNL     1       4.838   4.308  17.811  0.00  0.00    +0.000 C 
ATOM     20  O   UNL     1       5.679   4.062  18.674  0.00  0.00    +0.000 OA
ATOM     21  N   UNL     1       5.210   4.660  16.534  0.00  0.00    +0.000 N 
ATOM     22  H   UNL     1       4.517   4.912  15.837  0.00  0.00    +0.000 HD
BRANCH  21  23
ATOM     23  C   UNL     1       6.608   4.727  16.139  0.00  0.00    +0.000 C 
BRANCH  23  24
ATOM     24  C   UNL     1       6.816   4.640  14.641  0.00  0.00    +0.000 A 
ATOM     25  C   UNL     1       6.101   3.725  13.877  0.00  0.00    +0.000 A 
ATOM     26  C   UNL     1       6.387   3.639  12.523  0.00  0.00    +0.000 A 
ATOM     27  F   UNL     1       5.731   2.749  11.765  0.00  0.00    +0.000 F 
ATOM     28  C   UNL     1       7.350   4.444  11.943  0.00  0.00    +0.000 A 
ATOM     29  C   UNL     1       7.995   5.344  12.765  0.00  0.00    +0.000 A 
ATOM     30  N   UNL     1       7.749   5.463  14.091  0.00  0.00    +0.000 NA
ENDBRANCH  23  24
ENDBRANCH  21  23
ENDBRANCH  18  19
BRANCH  18  32
ATOM     31  C   UNL     1       3.550   1.619  18.305  0.00  0.00    +0.000 C 
ATOM     32  C   UNL     1       2.848   2.905  18.764  0.00  0.00    +0.000 C 
ATOM     33  C   UNL     1       1.328   2.732  18.667  0.00  0.00    +0.000 C 
ENDBRANCH  18  32
ENDBRANCH   1  18
TORSDOF 8
ENDMDL
MODEL 2
REMARK VINA RESULT:      -8.4      0.891      1.378
REMARK  Name = 
REMARK  10 active torsions:
REMARK  status: ('A' for Active; 'I' for Inactive)
REMARK    1  A    between atoms: C_1  and  C_2
REMARK    2  A    between atoms: C_2  and  C_3
REMARK    3  A    between atoms: C_2  and  C_4
REMARK    4  A    between atoms: C_4  and  C_5
REMARK    5  A    between atoms: C_4  and  N_16
REMARK    6  A    between atoms: N_7  and  C_8
REMARK    7  A    between atoms: C_8  and  C_9
REMARK    8  A    between atoms: C_18  and  C_19
REMARK    9  A    between atoms: C_22  and  S_23
REMARK   10  A    between atoms: S_23  and  N_24
REMARK                            x       y       z     vdW  Elec       q    Type
REMARK                         _______ _______ _______ _____ _____    ______ ____
ROOT
ATOM      1  N   UNL     1       2.752   5.114  18.792  0.00  0.00    +0.000 N 
ATOM      2  C   UNL     1       2.453   6.327  18.245  0.00  0.00    +0.000 A 
ATOM      3  C   UNL     1       2.079   7.098  19.321  0.00  0.00    +0.000 A 
ATOM      4  N   UNL     1       2.085   6.323  20.451  0.00  0.00    +0.000 NA
ATOM      5  N   UNL     1       2.503   5.106  20.116  0.00  0.00    +0.000 NA
ENDROOT
BRANCH   3   6
ATOM      6  C   UNL     1       1.682   8.490  19.269  0.00  0.00    +0.000 A 
ATOM      7  C   UNL     1       1.973   9.258  18.135  0.00  0.00    +0.000 A 
ATOM      8  C   UNL     1       1.703  10.630  18.121  0.00  0.00    +0.000 A 
ATOM      9  C   UNL     1       1.116  11.230  19.237  0.00  0.00    +0.000 A 
ATOM     10  C   UNL     1       0.770  10.468  20.355  0.00  0.00    +0.000 A 
ATOM     11  C   UNL     1       1.048   9.099  20.365  0.00  0.00    +0.000 A 
BRANCH   9  12
ATOM     12  S   UNL     1       0.903  12.985  19.279  0.00  0.00    +0.000 S 
ATOM     13  O   UNL     1       2.196  13.619  19.392  0.00  0.00    +0.000 OA
ATOM     14  O   UNL     1      -0.057  13.368  18.269  0.00  0.00    +0.000 OA
BRANCH  12  15
ATOM     15  N   UNL     1       0.148  13.213  20.756  0.00  0.00    +0.000 NA
ATOM     16  H   UNL     1       0.779  13.698  21.393  0.00  0.00    +0.000 HD
ATOM     17  H   UNL     1      -0.744  13.690  20.616  0.00  0.00    +0.000 HD
ENDBRANCH  12  15
ENDBRANCH   9  12
ENDBRANCH   3   6
BRANCH   1  18
ATOM     18  C   UNL     1       3.312   3.933  18.146  0.00  0.00    +0.000 C 
BRANCH  18  19
ATOM     19  C   UNL     1       4.816   4.114  17.898  0.00  0.00    +0.000 C 
ATOM     20  O   UNL     1       5.660   4.009  18.787  0.00  0.00    +0.000 OA
ATOM     21  N   UNL     1       5.182   4.367  16.596  0.00  0.00    +0.000 N 
ATOM     22  H   UNL     1       4.482   4.502  15.873  0.00  0.00    +0.000 HD
BRANCH  21  23
ATOM     23  C   UNL     1       6.576   4.492  16.206  0.00  0.00    +0.000 C 
BRANCH  23  24
ATOM     24  C   UNL     1       6.785   4.506  14.706  0.00  0.00    +0.000 A 
ATOM     25  C   UNL     1       6.066   3.649  13.882  0.00  0.00    +0.000 A 
ATOM     26  C   UNL     1       6.352   3.653  12.524  0.00  0.00    +0.000 A 
ATOM     27  F   UNL     1       5.694   2.820  11.708  0.00  0.00    +0.000 F 
ATOM     28  C   UNL     1       7.319   4.493  12.001  0.00  0.00    +0.000 A 
ATOM     29  C   UNL     1       7.968   5.331  12.883  0.00  0.00    +0.000 A 
ATOM     30  N   UNL     1       7.721   5.361  14.214  0.00  0.00    +0.000 NA
ENDBRANCH  23  24
ENDBRANCH  21  23
ENDBRANCH  18  19
BRANCH  18  32
ATOM     31  C   UNL     1       3.702   1.375  18.492  0.00  0.00    +0.000 C 
ATOM     32  C   UNL     1       2.906   2.628  18.888  0.00  0.00    +0.000 C 
ATOM     33  C   UNL     1       1.403   2.350  18.770  0.00  0.00    +0.000 C 
ENDBRANCH  18  32
ENDBRANCH   1  18
TORSDOF 8
ENDMDL
MODEL 3
REMARK VINA RESULT:      -8.2      1.681      2.087
REMARK  Name = 
REMARK  10 active torsions:
REMARK  status: ('A' for Active; 'I' for Inactive)
REMARK    1  A    between atoms: C_1  and  C_2
REMARK    2  A    between atoms: C_2  and  C_3
REMARK    3  A    between atoms: C_2  and  C_4
REMARK    4  A    between atoms: C_4  and  C_5
REMARK    5  A    between atoms: C_4  and  N_16
REMARK    6  A    between atoms: N_7  and  C_8
REMARK    7  A    between atoms: C_8  and  C_9
REMARK    8  A    between atoms: C_18  and  C_19
REMARK    9  A    between atoms: C_22  and  S_23
REMARK   10  A    between atoms: S_23  and  N_24
REMARK                            x       y       z     vdW  Elec       q    Type
REMARK                         _______ _______ _______ _____ _____    ______ ____
ROOT
ATOM      1  N   UNL     1       3.298   5.954  18.611  0.00  0.00    +0.000 N 
ATOM      2  C   UNL     1       2.480   6.512  19.549  0.00  0.00    +0.000 A 
ATOM      3  C   UNL     1       2.225   7.774  19.064  0.00  0.00    +0.000 A 
ATOM      4  N   UNL     1       2.943   7.965  17.914  0.00  0.00    +0.000 NA
ATOM      5  N   UNL     1       3.596   6.840  17.641  0.00  0.00    +0.000 NA
ENDROOT
BRANCH   3   6
ATOM      6  C   UNL     1       1.381   8.769  19.695  0.00  0.00    +0.000 A 
ATOM      7  C   UNL     1       0.920   9.864  18.955  0.00  0.00    +0.000 A 
ATOM      8  C   UNL     1       0.207  10.892  19.581  0.00  0.00    +0.000 A 
ATOM      9  C   UNL     1      -0.066  10.809  20.949  0.00  0.00    +0.000 A 
ATOM     10  C   UNL     1       0.341   9.697  21.689  0.00  0.00    +0.000 A 
ATOM     11  C   UNL     1       1.057   8.677  21.059  0.00  0.00    +0.000 A 
BRANCH   9  12
ATOM     12  S   UNL     1      -0.841  12.169  21.772  0.00  0.00    +0.000 S 
ATOM     13  O   UNL     1       0.054  13.303  21.764  0.00  0.00    +0.000 OA
ATOM     14  O   UNL     1      -2.214  12.267  21.330  0.00  0.00    +0.000 OA
BRANCH  12  15
ATOM     15  N   UNL     1      -0.896  11.636  23.358  0.00  0.00    +0.000 NA
ATOM     16  H   UNL     1      -1.665  10.976  23.471  0.00  0.00    +0.000 HD
ATOM     17  H   UNL     1       0.014  11.259  23.626  0.00  0.00    +0.000 HD
ENDBRANCH  12  15
ENDBRANCH   9  12
ENDBRANCH   3   6
BRANCH   1  18
ATOM     18  C   UNL     1       3.802   4.589  18.535  0.00  0.00    +0.000 C 
BRANCH  18  19
ATOM     19  C   UNL     1       5.284   4.580  18.136  0.00  0.00    +0.000 C 
ATOM     20  O   UNL     1       6.200   4.496  18.953  0.00  0.00    +0.000 OA
ATOM     21  N   UNL     1       5.540   4.634  16.785  0.00  0.00    +0.000 N 
ATOM     22  H   UNL     1       4.788   4.753  16.114  0.00  0.00    +0.000 HD
BRANCH  21  23
ATOM     23  C   UNL     1       6.895   4.565  16.262  0.00  0.00    +0.000 C 
BRANCH  23  24
ATOM     24  C   UNL     1       6.958   4.552  14.748  0.00  0.00    +0.000 A 
ATOM     25  C   UNL     1       6.146   3.697  14.012  0.00  0.00    +0.000 A 
ATOM     26  C   UNL     1       6.300   3.674  12.634  0.00  0.00    +0.000 A 
ATOM     27  F   UNL     1       5.550   2.843  11.900  0.00  0.00    +0.000 F 
ATOM     28  C   UNL     1       7.228   4.485  12.005  0.00  0.00    +0.000 A 
ATOM     29  C   UNL     1       7.975   5.323  12.806  0.00  0.00    +0.000 A 
ATOM     30  N   UNL     1       7.858   5.379  14.154  0.00  0.00    +0.000 NA
ENDBRANCH  23  24
ENDBRANCH  21  23
ENDBRANCH  18  19
BRANCH  18  32
ATOM     31  C   UNL     1       4.237   2.472  20.000  0.00  0.00    +0.000 C 
ATOM     32  C   UNL     1       3.447   3.776  19.813  0.00  0.00    +0.000 C 
ATOM     33  C   UNL     1       1.944   3.493  19.908  0.00  0.00    +0.000 C 
ENDBRANCH  18  32
ENDBRANCH   1  18
TORSDOF 8
ENDMDL
MODEL 4
REMARK VINA RESULT:      -8.2      0.931      1.277
REMARK  Name = 
REMARK  10 active torsions:
REMARK  status: ('A' for Active; 'I' for Inactive)
REMARK    1  A    between atoms: C_1  and  C_2
REMARK    2  A    between atoms: C_2  and  C_3
REMARK    3  A    between atoms: C_2  and  C_4
REMARK    4  A    between atoms: C_4  and  C_5
REMARK    5  A    between atoms: C_4  and  N_16
REMARK    6  A    between atoms: N_7  and  C_8
REMARK    7  A    between atoms: C_8  and  C_9
REMARK    8  A    between atoms: C_18  and  C_19
REMARK    9  A    between atoms: C_22  and  S_23
REMARK   10  A    between atoms: S_23  and  N_24
REMARK                            x       y       z     vdW  Elec       q    Type
REMARK                         _______ _______ _______ _____ _____    ______ ____
ROOT
ATOM      1  N   UNL     1       2.768   5.158  18.918  0.00  0.00    +0.000 N 
ATOM      2  C   UNL     1       2.317   6.383  18.523  0.00  0.00    +0.000 A 
ATOM      3  C   UNL     1       2.053   7.040  19.703  0.00  0.00    +0.000 A 
ATOM      4  N   UNL     1       2.270   6.184  20.750  0.00  0.00    +0.000 NA
ATOM      5  N   UNL     1       2.713   5.031  20.258  0.00  0.00    +0.000 NA
ENDROOT
BRANCH   3   6
ATOM      6  C   UNL     1       1.564   8.398  19.826  0.00  0.00    +0.000 A 
ATOM      7  C   UNL     1       1.567   9.245  18.711  0.00  0.00    +0.000 A 
ATOM      8  C   UNL     1       1.211  10.592  18.845  0.00  0.00    +0.000 A 
ATOM      9  C   UNL     1       0.827  11.084  20.095  0.00  0.00    +0.000 A 
ATOM     10  C   UNL     1       0.767  10.239  21.204  0.00  0.00    +0.000 A 
ATOM     11  C   UNL     1       1.129   8.897  21.065  0.00  0.00    +0.000 A 
BRANCH   9  12
ATOM     12  S   UNL     1       0.514  12.812  20.297  0.00  0.00    +0.000 S 
ATOM     13  O   UNL     1      -0.901  13.061  20.152  0.00  0.00    +0.000 OA
ATOM     14  O   UNL     1       1.270  13.299  21.430  0.00  0.00    +0.000 OA
BRANCH  12  15
ATOM     15  N   UNL     1       1.239  13.464  18.935  0.00  0.00    +0.000 NA
ATOM     16  H   UNL     1       2.243  13.553  19.090  0.00  0.00    +0.000 HD
ATOM     17  H   UNL     1       0.996  12.906  18.116  0.00  0.00    +0.000 HD
ENDBRANCH  12  15
ENDBRANCH   9  12
ENDBRANCH   3   6
BRANCH   1  18
ATOM     18  C   UNL     1       3.304   4.076  18.101  0.00  0.00    +0.000 C 
BRANCH  18  19
ATOM     19  C   UNL     1       4.801   4.288  17.836  0.00  0.00    +0.000 C 
ATOM     20  O   UNL     1       5.675   3.998  18.651  0.00  0.00    +0.000 OA
ATOM     21  N   UNL     1       5.123   4.796  16.597  0.00  0.00    +0.000 N 
ATOM     22  H   UNL     1       4.400   5.081  15.945  0.00  0.00    +0.000 HD
BRANCH  21  23
ATOM     23  C   UNL     1       6.504   4.984  16.186  0.00  0.00    +0.000 C 
BRANCH  23  24
ATOM     24  C   UNL     1       6.730   4.753  14.706  0.00  0.00    +0.000 A 
ATOM     25  C   UNL     1       5.981   3.809  14.013  0.00  0.00    +0.000 A 
ATOM     26  C   UNL     1       6.282   3.588  12.677  0.00  0.00    +0.000 A 
ATOM     27  F   UNL     1       5.595   2.667  11.989  0.00  0.00    +0.000 F 
ATOM     28  C   UNL     1       7.292   4.292  12.047  0.00  0.00    +0.000 A 
ATOM     29  C   UNL     1       7.969   5.229  12.798  0.00  0.00    +0.000 A 
ATOM     30  N   UNL     1       7.710   5.478  14.103  0.00  0.00    +0.000 NA
ENDBRANCH  23  24
ENDBRANCH  21  23
ENDBRANCH  18  19
BRANCH  18  32
ATOM     31  C   UNL     1       3.687   1.494  18.079  0.00  0.00    +0.000 C 
ATOM     32  C   UNL     1       2.915   2.682  18.672  0.00  0.00    +0.000 C 
ATOM     33  C   UNL     1       1.407   2.427  18.571  0.00  0.00    +0.000 C 
ENDBRANCH  18  32
ENDBRANCH   1  18
TORSDOF 8
ENDMDL
MODEL 5
REMARK VINA RESULT:      -8.2      1.203      1.356
REMARK  Name = 
REMARK  10 active torsions:
REMARK  status: ('A' for Active; 'I' for Inactive)
REMARK    1  A    between atoms: C_1  and  C_2
REMARK    2  A    between atoms: C_2  and  C_3
REMARK    3  A    between atoms: C_2  and  C_4
REMARK    4  A    between atoms: C_4  and  C_5
REMARK    5  A    between atoms: C_4  and  N_16
REMARK    6  A    between atoms: N_7  and  C_8
REMARK    7  A    between atoms: C_8  and  C_9
REMARK    8  A    between atoms: C_18  and  C_19
REMARK    9  A    between atoms: C_22  and  S_23
REMARK   10  A    between atoms: S_23  and  N_24
REMARK                            x       y       z     vdW  Elec       q    Type
REMARK                         _______ _______ _______ _____ _____    ______ ____
ROOT
ATOM      1  N   UNL     1       2.709   5.126  19.223  0.00  0.00    +0.000 N 
ATOM      2  C   UNL     1       2.535   6.458  18.986  0.00  0.00    +0.000 A 
ATOM      3  C   UNL     1       1.884   6.916  20.107  0.00  0.00    +0.000 A 
ATOM      4  N   UNL     1       1.618   5.858  20.935  0.00  0.00    +0.000 NA
ATOM      5  N   UNL     1       2.132   4.763  20.384  0.00  0.00    +0.000 NA
ENDROOT
BRANCH   3   6
ATOM      6  C   UNL     1       1.485   8.287  20.354  0.00  0.00    +0.000 A 
ATOM      7  C   UNL     1       1.175   8.701  21.656  0.00  0.00    +0.000 A 
ATOM      8  C   UNL     1       0.673   9.986  21.889  0.00  0.00    +0.000 A 
ATOM      9  C   UNL     1       0.505  10.867  20.817  0.00  0.00    +0.000 A 
ATOM     10  C   UNL     1       0.860  10.487  19.521  0.00  0.00    +0.000 A 
ATOM     11  C   UNL     1       1.356   9.201  19.295  0.00  0.00    +0.000 A 
BRANCH   9  12
ATOM     12  S   UNL     1      -0.260  12.438  21.087  0.00  0.00    +0.000 S 
ATOM     13  O   UNL     1      -1.648  12.239  21.431  0.00  0.00    +0.000 OA
ATOM     14  O   UNL     1       0.622  13.262  21.883  0.00  0.00    +0.000 OA
BRANCH  12  15
ATOM     15  N   UNL     1      -0.257  13.099  19.548  0.00  0.00    +0.000 NA
ATOM     16  H   UNL     1       0.423  13.858  19.502  0.00  0.00    +0.000 HD
ATOM     17  H   UNL     1      -0.104  12.364  18.858  0.00  0.00    +0.000 HD
ENDBRANCH  12  15
ENDBRANCH   9  12
ENDBRANCH   3   6
BRANCH   1  18
ATOM     18  C   UNL     1       3.439   4.145  18.430  0.00  0.00    +0.000 C 
BRANCH  18  19
ATOM     19  C   UNL     1       4.836   4.670  18.070  0.00  0.00    +0.000 C 
ATOM     20  O   UNL     1       5.574   5.226  18.882  0.00  0.00    +0.000 OA
ATOM     21  N   UNL     1       5.243   4.448  16.774  0.00  0.00    +0.000 N 
ATOM     22  H   UNL     1       4.616   4.034  16.092  0.00  0.00    +0.000 HD
BRANCH  21  23
ATOM     23  C   UNL     1       6.568   4.831  16.315  0.00  0.00    +0.000 C 
BRANCH  23  24
ATOM     24  C   UNL     1       6.754   4.686  14.818  0.00  0.00    +0.000 A 
ATOM     25  C   UNL     1       5.983   3.786  14.092  0.00  0.00    +0.000 A 
ATOM     26  C   UNL     1       6.248   3.642  12.738  0.00  0.00    +0.000 A 
ATOM     27  F   UNL     1       5.539   2.764  12.016  0.00  0.00    +0.000 F 
ATOM     28  C   UNL     1       7.244   4.379  12.123  0.00  0.00    +0.000 A 
ATOM     29  C   UNL     1       7.944   5.270  12.909  0.00  0.00    +0.000 A 
ATOM     30  N   UNL     1       7.720   5.443  14.233  0.00  0.00    +0.000 NA
ENDBRANCH  23  24
ENDBRANCH  21  23
ENDBRANCH  18  19
BRANCH  18  32
ATOM     31  C   UNL     1       4.568   2.424  20.036  0.00  0.00    +0.000 C 
ATOM     32  C   UNL     1       3.401   2.736  19.087  0.00  0.00    +0.000 C 
ATOM     33  C   UNL     1       3.270   1.623  18.040  0.00  0.00    +0.000 C 
ENDBRANCH  18  32
ENDBRANCH   1  18
TORSDOF 8
ENDMDL
MODEL 6
REMARK VINA RESULT:      -8.1      1.963      2.301
REMARK  Name = 
REMARK  10 active torsions:
REMARK  status: ('A' for Active; 'I' for Inactive)
REMARK    1  A    between atoms: C_1  and  C_2
REMARK    2  A    between atoms: C_2  and  C_3
REMARK    3  A    between atoms: C_2  and  C_4
REMARK    4  A    between atoms: C_4  and  C_5
REMARK    5  A    between atoms: C_4  and  N_16
REMARK    6  A    between atoms: N_7  and  C_8
REMARK    7  A    between atoms: C_8  and  C_9
REMARK    8  A    between atoms: C_18  and  C_19
REMARK    9  A    between atoms: C_22  and  S_23
REMARK   10  A    between atoms: S_23  and  N_24
REMARK                            x       y       z     vdW  Elec       q    Type
REMARK                         _______ _______ _______ _____ _____    ______ ____
ROOT
ATOM      1  N   UNL     1       2.585   6.989  18.331  0.00  0.00    +0.000 N 
ATOM      2  C   UNL     1       2.011   7.416  19.492  0.00  0.00    +0.000 A 
ATOM      3  C   UNL     1       1.700   8.734  19.248  0.00  0.00    +0.000 A 
ATOM      4  N   UNL     1       2.157   9.078  18.004  0.00  0.00    +0.000 NA
ATOM      5  N   UNL     1       2.696   7.998  17.447  0.00  0.00    +0.000 NA
ENDROOT
BRANCH   3   6
ATOM      6  C   UNL     1       1.049   9.636  20.175  0.00  0.00    +0.000 A 
ATOM      7  C   UNL     1       0.391   9.127  21.302  0.00  0.00    +0.000 A 
ATOM      8  C   UNL     1      -0.343   9.975  22.137  0.00  0.00    +0.000 A 
ATOM      9  C   UNL     1      -0.396  11.343  21.858  0.00  0.00    +0.000 A 
ATOM     10  C   UNL     1       0.300  11.874  20.769  0.00  0.00    +0.000 A 
ATOM     11  C   UNL     1       1.026  11.021  19.936  0.00  0.00    +0.000 A 
BRANCH   9  12
ATOM     12  S   UNL     1      -1.434  12.396  22.827  0.00  0.00    +0.000 S 
ATOM     13  O   UNL     1      -2.430  11.595  23.499  0.00  0.00    +0.000 OA
ATOM     14  O   UNL     1      -0.610  13.353  23.531  0.00  0.00    +0.000 OA
BRANCH  12  15
ATOM     15  N   UNL     1      -2.255  13.261  21.651  0.00  0.00    +0.000 NA
ATOM     16  H   UNL     1      -2.128  14.260  21.809  0.00  0.00    +0.000 HD
ATOM     17  H   UNL     1      -1.960  12.948  20.725  0.00  0.00    +0.000 HD
ENDBRANCH  12  15
ENDBRANCH   9  12
ENDBRANCH   3   6
BRANCH   1  18
ATOM     18  C   UNL     1       3.013   5.645  17.965  0.00  0.00    +0.000 C 
BRANCH  18  19
ATOM     19  C   UNL     1       4.533   5.598  17.755  0.00  0.00    +0.000 C 
ATOM     20  O   UNL     1       5.342   5.842  18.648  0.00  0.00    +0.000 OA
ATOM     21  N   UNL     1       4.951   5.225  16.497  0.00  0.00    +0.000 N 
ATOM     22  H   UNL     1       4.285   5.072  15.748  0.00  0.00    +0.000 HD
BRANCH  21  23
ATOM     23  C   UNL     1       6.361   5.074  16.177  0.00  0.00    +0.000 C 
BRANCH  23  24
ATOM     24  C   UNL     1       6.621   4.789  14.712  0.00  0.00    +0.000 A 
ATOM     25  C   UNL     1       5.883   3.823  14.036  0.00  0.00    +0.000 A 
ATOM     26  C   UNL     1       6.214   3.553  12.717  0.00  0.00    +0.000 A 
ATOM     27  F   UNL     1       5.539   2.610  12.047  0.00  0.00    +0.000 F 
ATOM     28  C   UNL     1       7.242   4.229  12.085  0.00  0.00    +0.000 A 
ATOM     29  C   UNL     1       7.906   5.190  12.818  0.00  0.00    +0.000 A 
ATOM     30  N   UNL     1       7.617   5.487  14.107  0.00  0.00    +0.000 NA
ENDBRANCH  23  24
ENDBRANCH  21  23
ENDBRANCH  18  19
BRANCH  18  32
ATOM     31  C   UNL     1       3.487   3.738  19.684  0.00  0.00    +0.000 C 
ATOM     32  C   UNL     1       2.438   4.576  18.939  0.00  0.00    +0.000 C 
ATOM     33  C   UNL     1       1.434   3.652  18.241  0.00  0.00    +0.000 C 
ENDBRANCH  18  32
ENDBRANCH   1  18
TORSDOF 8
ENDMDL
MODEL 7
REMARK VINA RESULT:      -8.1      1.523      1.778
REMARK  Name = 
REMARK  10 active torsions:
REMARK  status: ('A' for Active; 'I' for Inactive)
REMARK    1  A    between atoms: C_1  and  C_2
REMARK    2  A    between atoms: C_2  and  C_3
REMARK    3  A    between atoms: C_2  and  C_4
REMARK    4  A    between atoms: C_4  and  C_5
REMARK    5  A    between atoms: C_4  and  N_16
REMARK    6  A    between atoms: N_7  and  C_8
REMARK    7  A    between atoms: C_8  and  C_9
REMARK    8  A    between atoms: C_18  and  C_19
REMARK    9  A    between atoms: C_22  and  S_23
REMARK   10  A    between atoms: S_23  and  N_24
REMARK                            x       y       z     vdW  Elec       q    Type
REMARK                         _______ _______ _______ _____ _____    ______ ____
ROOT
ATOM      1  N   UNL     1       2.790   4.707  19.085  0.00  0.00    +0.000 N 
ATOM      2  C   UNL     1       2.818   6.066  18.970  0.00  0.00    +0.000 A 
ATOM      3  C   UNL     1       1.962   6.504  19.953  0.00  0.00    +0.000 A 
ATOM      4  N   UNL     1       1.392   5.420  20.567  0.00  0.00    +0.000 NA
ATOM      5  N   UNL     1       1.910   4.320  20.029  0.00  0.00    +0.000 NA
ENDROOT
BRANCH   3   6
ATOM      6  C   UNL     1       1.657   7.888  20.257  0.00  0.00    +0.000 A 
ATOM      7  C   UNL     1       1.400   8.273  21.579  0.00  0.00    +0.000 A 
ATOM      8  C   UNL     1       0.988   9.578  21.868  0.00  0.00    +0.000 A 
ATOM      9  C   UNL     1       0.857  10.507  20.832  0.00  0.00    +0.000 A 
ATOM     10  C   UNL     1       1.162  10.152  19.516  0.00  0.00    +0.000 A 
ATOM     11  C   UNL     1       1.568   8.846  19.234  0.00  0.00    +0.000 A 
BRANCH   9  12
ATOM     12  S   UNL     1       0.201  12.113  21.173  0.00  0.00    +0.000 S 
ATOM     13  O   UNL     1       1.290  13.050  21.324  0.00  0.00    +0.000 OA
ATOM     14  O   UNL     1      -0.915  12.364  20.290  0.00  0.00    +0.000 OA
BRANCH  12  15
ATOM     15  N   UNL     1      -0.448  11.911  22.703  0.00  0.00    +0.000 NA
ATOM     16  H   UNL     1      -1.162  11.183  22.680  0.00  0.00    +0.000 HD
ATOM     17  H   UNL     1       0.300  11.734  23.374  0.00  0.00    +0.000 HD
ENDBRANCH  12  15
ENDBRANCH   9  12
ENDBRANCH   3   6
BRANCH   1  18
ATOM     18  C   UNL     1       3.587   3.714  18.377  0.00  0.00    +0.000 C 
BRANCH  18  19
ATOM     19  C   UNL     1       4.962   4.288  18.006  0.00  0.00    +0.000 C 
ATOM     20  O   UNL     1       5.911   4.318  18.788  0.00  0.00    +0.000 OA
ATOM     21  N   UNL     1       5.091   4.742  16.712  0.00  0.00    +0.000 N 
ATOM     22  H   UNL     1       4.296   4.762  16.083  0.00  0.00    +0.000 HD
BRANCH  21  23
ATOM     23  C   UNL     1       6.356   5.248  16.205  0.00  0.00    +0.000 C 
BRANCH  23  24
ATOM     24  C   UNL     1       6.604   4.904  14.751  0.00  0.00    +0.000 A 
ATOM     25  C   UNL     1       5.772   4.015  14.080  0.00  0.00    +0.000 A 
ATOM     26  C   UNL     1       6.091   3.680  12.773  0.00  0.00    +0.000 A 
ATOM     27  F   UNL     1       5.323   2.807  12.109  0.00  0.00    +0.000 F 
ATOM     28  C   UNL     1       7.199   4.222  12.146  0.00  0.00    +0.000 A 
ATOM     29  C   UNL     1       7.957   5.117  12.872  0.00  0.00    +0.000 A 
ATOM     30  N   UNL     1       7.683   5.472  14.150  0.00  0.00    +0.000 NA
ENDBRANCH  23  24
ENDBRANCH  21  23
ENDBRANCH  18  19
BRANCH  18  32
ATOM     31  C   UNL     1       4.548   2.296  20.347  0.00  0.00    +0.000 C 
ATOM     32  C   UNL     1       3.610   2.355  19.132  0.00  0.00    +0.000 C 
ATOM     33  C   UNL     1       3.909   1.185  18.187  0.00  0.00    +0.000 C 
ENDBRANCH  18  32
ENDBRANCH   1  18
TORSDOF 8
ENDMDL
MODEL 8
REMARK VINA RESULT:      -8.0      5.177     10.792
REMARK  Name = 
REMARK  10 active torsions:
REMARK  status: ('A' for Active; 'I' for Inactive)
REMARK    1  A    between atoms: C_1  and  C_2
REMARK    2  A    between atoms: C_2  and  C_3
REMARK    3  A    between atoms: C_2  and  C_4
REMARK    4  A    between atoms: C_4  and  C_5
REMARK    5  A    between atoms: C_4  and  N_16
REMARK    6  A    between atoms: N_7  and  C_8
REMARK    7  A    between atoms: C_8  and  C_9
REMARK    8  A    between atoms: C_18  and  C_19
REMARK    9  A    between atoms: C_22  and  S_23
REMARK   10  A    between atoms: S_23  and  N_24
REMARK                            x       y       z     vdW  Elec       q    Type
REMARK                         _______ _______ _______ _____ _____    ______ ____
ROOT
ATOM      1  N   UNL     1       0.149  10.434  18.858  0.00  0.00    +0.000 N 
ATOM      2  C   UNL     1       0.939   9.552  18.182  0.00  0.00    +0.000 A 
ATOM      3  C   UNL     1       1.432   8.722  19.162  0.00  0.00    +0.000 A 
ATOM      4  N   UNL     1       0.999   9.166  20.384  0.00  0.00    +0.000 NA
ATOM      5  N   UNL     1       0.208  10.216  20.186  0.00  0.00    +0.000 NA
ENDROOT
BRANCH   3   6
ATOM      6  C   UNL     1       2.318   7.595  18.952  0.00  0.00    +0.000 A 
ATOM      7  C   UNL     1       2.332   6.537  19.869  0.00  0.00    +0.000 A 
ATOM      8  C   UNL     1       3.266   5.503  19.743  0.00  0.00    +0.000 A 
ATOM      9  C   UNL     1       4.173   5.518  18.680  0.00  0.00    +0.000 A 
ATOM     10  C   UNL     1       4.136   6.538  17.728  0.00  0.00    +0.000 A 
ATOM     11  C   UNL     1       3.204   7.570  17.863  0.00  0.00    +0.000 A 
BRANCH   9  12
ATOM     12  S   UNL     1       5.444   4.292  18.596  0.00  0.00    +0.000 S 
ATOM     13  O   UNL     1       6.734   4.937  18.681  0.00  0.00    +0.000 OA
ATOM     14  O   UNL     1       5.083   3.178  19.444  0.00  0.00    +0.000 OA
BRANCH  12  15
ATOM     15  N   UNL     1       5.304   3.746  17.020  0.00  0.00    +0.000 NA
ATOM     16  H   UNL     1       5.764   2.841  16.928  0.00  0.00    +0.000 HD
ATOM     17  H   UNL     1       4.322   3.740  16.744  0.00  0.00    +0.000 HD
ENDBRANCH  12  15
ENDBRANCH   9  12
ENDBRANCH   3   6
BRANCH   1  18
ATOM     18  C   UNL     1      -0.720  11.475  18.325  0.00  0.00    +0.000 C 
BRANCH  18  19
ATOM     19  C   UNL     1      -2.014  10.867  17.764  0.00  0.00    +0.000 C 
ATOM     20  O   UNL     1      -2.388   9.725  18.026  0.00  0.00    +0.000 OA
ATOM     21  N   UNL     1      -2.768  11.697  16.966  0.00  0.00    +0.000 N 
ATOM     22  H   UNL     1      -2.435  12.621  16.710  0.00  0.00    +0.000 HD
BRANCH  21  23
ATOM     23  C   UNL     1      -4.048  11.276  16.423  0.00  0.00    +0.000 C 
BRANCH  23  24
ATOM     24  C   UNL     1      -5.230  11.672  17.284  0.00  0.00    +0.000 A 
ATOM     25  C   UNL     1      -5.632  10.871  18.347  0.00  0.00    +0.000 A 
ATOM     26  C   UNL     1      -6.765  11.244  19.055  0.00  0.00    +0.000 A 
ATOM     27  F   UNL     1      -7.192  10.479  20.068  0.00  0.00    +0.000 F 
ATOM     28  C   UNL     1      -7.471  12.386  18.722  0.00  0.00    +0.000 A 
ATOM     29  C   UNL     1      -6.990  13.140  17.672  0.00  0.00    +0.000 A 
ATOM     30  N   UNL     1      -5.889  12.814  16.953  0.00  0.00    +0.000 NA
ENDBRANCH  23  24
ENDBRANCH  21  23
ENDBRANCH  18  19
BRANCH  18  32
ATOM     31  C   UNL     1      -2.318  12.748  19.951  0.00  0.00    +0.000 C 
ATOM     32  C   UNL     1      -0.912  12.636  19.342  0.00  0.00    +0.000 C 
ATOM     33  C   UNL     1      -0.492  13.986  18.750  0.00  0.00    +0.000 C 
ENDBRANCH  18  32
ENDBRANCH   1  18
TORSDOF 8
ENDMDL
MODEL 9
REMARK VINA RESULT:      -7.8      2.081      2.544
REMARK  Name = 
REMARK  10 active torsions:
REMARK  status: ('A' for Active; 'I' for Inactive)
REMARK    1  A    between atoms: C_1  and  C_2
REMARK    2  A    between atoms: C_2  and  C_3
REMARK    3  A    between atoms: C_2  and  C_4
REMARK    4  A    between atoms: C_4  and  C_5
REMARK    5  A    between atoms: C_4  and  N_16
REMARK    6  A    between atoms: N_7  and  C_8
REMARK    7  A    between atoms: C_8  and  C_9
REMARK    8  A    between atoms: C_18  and  C_19
REMARK    9  A    between atoms: C_22  and  S_23
REMARK   10  A    between atoms: S_23  and  N_24
REMARK                            x       y       z     vdW  Elec       q    Type
REMARK                         _______ _______ _______ _____ _____    ______ ____
ROOT
ATOM      1  N   UNL     1       2.667   7.233  18.117  0.00  0.00    +0.000 N 
ATOM      2  C   UNL     1       1.995   7.674  19.218  0.00  0.00    +0.000 A 
ATOM      3  C   UNL     1       1.515   8.909  18.847  0.00  0.00    +0.000 A 
ATOM      4  N   UNL     1       1.969   9.206  17.589  0.00  0.00    +0.000 NA
ATOM      5  N   UNL     1       2.673   8.169  17.147  0.00  0.00    +0.000 NA
ENDROOT
BRANCH   3   6
ATOM      6  C   UNL     1       0.710   9.788  19.670  0.00  0.00    +0.000 A 
ATOM      7  C   UNL     1       0.333  11.047  19.187  0.00  0.00    +0.000 A 
ATOM      8  C   UNL     1      -0.340  11.950  20.016  0.00  0.00    +0.000 A 
ATOM      9  C   UNL     1      -0.659  11.581  21.326  0.00  0.00    +0.000 A 
ATOM     10  C   UNL     1      -0.337  10.309  21.804  0.00  0.00    +0.000 A 
ATOM     11  C   UNL     1       0.339   9.414  20.973  0.00  0.00    +0.000 A 
BRANCH   9  12
ATOM     12  S   UNL     1      -1.381  12.768  22.420  0.00  0.00    +0.000 S 
ATOM     13  O   UNL     1      -0.416  13.134  23.429  0.00  0.00    +0.000 OA
ATOM     14  O   UNL     1      -2.095  13.755  21.640  0.00  0.00    +0.000 OA
BRANCH  12  15
ATOM     15  N   UNL     1      -2.547  11.858  23.205  0.00  0.00    +0.000 NA
ATOM     16  H   UNL     1      -3.473  12.229  22.992  0.00  0.00    +0.000 HD
ATOM     17  H   UNL     1      -2.432  10.873  22.968  0.00  0.00    +0.000 HD
ENDBRANCH  12  15
ENDBRANCH   9  12
ENDBRANCH   3   6
BRANCH   1  18
ATOM     18  C   UNL     1       3.291   5.936  17.886  0.00  0.00    +0.000 C 
BRANCH  18  19
ATOM     19  C   UNL     1       4.742   6.108  17.416  0.00  0.00    +0.000 C 
ATOM     20  O   UNL     1       5.477   7.008  17.819  0.00  0.00    +0.000 OA
ATOM     21  N   UNL     1       5.199   5.160  16.529  0.00  0.00    +0.000 N 
ATOM     22  H   UNL     1       4.579   4.447  16.159  0.00  0.00    +0.000 HD
BRANCH  21  23
ATOM     23  C   UNL     1       6.573   5.161  16.054  0.00  0.00    +0.000 C 
BRANCH  23  24
ATOM     24  C   UNL     1       6.701   4.855  14.575  0.00  0.00    +0.000 A 
ATOM     25  C   UNL     1       5.865   3.924  13.969  0.00  0.00    +0.000 A 
ATOM     26  C   UNL     1       6.077   3.630  12.630  0.00  0.00    +0.000 A 
ATOM     27  F   UNL     1       5.304   2.719  12.025  0.00  0.00    +0.000 F 
ATOM     28  C   UNL     1       7.083   4.251  11.913  0.00  0.00    +0.000 A 
ATOM     29  C   UNL     1       7.850   5.181  12.582  0.00  0.00    +0.000 A 
ATOM     30  N   UNL     1       7.680   5.500  13.887  0.00  0.00    +0.000 NA
ENDBRANCH  23  24
ENDBRANCH  21  23
ENDBRANCH  18  19
BRANCH  18  32
ATOM     31  C   UNL     1       4.294   4.096  19.443  0.00  0.00    +0.000 C 
ATOM     32  C   UNL     1       3.087   4.981  19.097  0.00  0.00    +0.000 C 
ATOM     33  C   UNL     1       1.835   4.111  18.930  0.00  0.00    +0.000 C 
ENDBRANCH  18  32
ENDBRANCH   1  18
TORSDOF 8
ENDMDL
