MODEL 1
REMARK VINA RESULT:      -6.9      0.000      0.000
REMARK  Name = 
REMARK  20 active torsions:
REMARK  status: ('A' for Active; 'I' for Inactive)
REMARK    1  A    between atoms: C_1  and  N_2
REMARK    2  A    between atoms: N_2  and  C_3
REMARK    3  A    between atoms: C_3  and  C_4
REMARK    4  A    between atoms: C_3  and  C_22
REMARK    5  A    between atoms: N_6  and  C_7
REMARK    6  A    between atoms: C_7  and  C_8
REMARK    7  A    between atoms: C_7  and  C_18
REMARK    8  A    between atoms: N_10  and  C_11
REMARK    9  A    between atoms: N_10  and  C_12
REMARK   10  A    between atoms: C_12  and  C_13
REMARK   11  A    between atoms: C_13  and  C_14
REMARK   12  A    between atoms: C_14  and  C_15
REMARK   13  A    between atoms: C_15  and  O_17
REMARK   14  A    between atoms: C_18  and  C_19
REMARK   15  A    between atoms: C_18  and  C_20
REMARK   16  A    between atoms: C_18  and  C_21
REMARK   17  A    between atoms: C_22  and  C_23
REMARK   18  A    between atoms: C_22  and  C_24
REMARK   19  A    between atoms: C_22  and  C_25
REMARK   20  A    between atoms: N_27  and  C_28
REMARK                            x       y       z     vdW  Elec       q    Type
REMARK                         _______ _______ _______ _____ _____    ______ ____
ROOT
ATOM      1  C   UNL     1       1.827   8.681  18.172  0.00  0.00    +0.000 C 
ATOM      2  O   UNL     1       0.984   8.317  17.355  0.00  0.00    +0.000 OA
ATOM      3  N   UNL     1       2.926   7.917  18.485  0.00  0.00    +0.000 N 
ATOM      4  H   UNL     1       3.585   8.350  19.115  0.00  0.00    +0.000 HD
ENDROOT
BRANCH   1   5
ATOM      5  C   UNL     1       1.666  10.041  18.953  0.00  0.00    +0.000 C 
BRANCH   5   7
ATOM      6  C   UNL     1       2.353  12.335  18.241  0.00  0.00    +0.000 C 
ATOM      7  N   UNL     1       1.462  11.215  18.059  0.00  0.00    +0.000 NA
ATOM      8  H   UNL     1       1.350  10.936  17.089  0.00  0.00    +0.000 HD
ENDBRANCH   5   7
BRANCH   5   9
ATOM      9  C   UNL     1       0.570  10.032  20.093  0.00  0.00    +0.000 C 
ATOM     10  C   UNL     1       0.184   8.577  20.463  0.00  0.00    +0.000 C 
ATOM     11  C   UNL     1       1.181  10.575  21.427  0.00  0.00    +0.000 C 
BRANCH   9  12
ATOM     12  C   UNL     1      -0.646  10.910  19.734  0.00  0.00    +0.000 A 
ATOM     13  C   UNL     1      -1.153  11.948  20.511  0.00  0.00    +0.000 A 
ATOM     14  N   UNL     1      -2.311  12.411  19.953  0.00  0.00    +0.000 N 
ATOM     15  C   UNL     1      -3.159  13.426  20.538  0.00  0.00    +0.000 C 
ATOM     16  C   UNL     1      -2.633  11.649  18.856  0.00  0.00    +0.000 A 
ATOM     17  C   UNL     1      -3.783  11.651  18.054  0.00  0.00    +0.000 A 
ATOM     18  C   UNL     1      -3.923  10.622  17.120  0.00  0.00    +0.000 A 
ATOM     19  C   UNL     1      -2.889   9.728  16.887  0.00  0.00    +0.000 A 
ATOM     20  C   UNL     1      -1.686   9.847  17.578  0.00  0.00    +0.000 A 
ATOM     21  C   UNL     1      -1.586  10.742  18.660  0.00  0.00    +0.000 A 
ENDBRANCH   9  12
ENDBRANCH   5   9
ENDBRANCH   1   5
BRANCH   3  22
ATOM     22  C   UNL     1       3.143   6.493  18.178  0.00  0.00    +0.000 C 
BRANCH  22  23
ATOM     23  C   UNL     1       2.474   5.504  19.186  0.00  0.00    +0.000 C 
ATOM     24  O   UNL     1       2.717   5.587  20.393  0.00  0.00    +0.000 OA
ATOM     25  N   UNL     1       1.575   4.535  18.734  0.00  0.00    +0.000 N 
ATOM     26  C   UNL     1       1.246   4.199  17.354  0.00  0.00    +0.000 C 
BRANCH  25  27
ATOM     27  C   UNL     1       1.016   3.626  19.746  0.00  0.00    +0.000 C 
BRANCH  27  28
ATOM     28  C   UNL     1       1.509   2.185  19.610  0.00  0.00    +0.000 C 
BRANCH  28  29
ATOM     29  C   UNL     1       2.982   2.094  19.244  0.00  0.00    +0.000 C 
BRANCH  29  30
ATOM     30  C   UNL     1       3.908   2.208  20.424  0.00  0.00    +0.000 C 
ATOM     31  O   UNL     1       5.126   2.183  20.343  0.00  0.00    +0.000 OA
BRANCH  30  32
ATOM     32  O   UNL     1       3.277   2.398  21.595  0.00  0.00    +0.000 OA
ATOM     33  H   UNL     1       2.307   2.460  21.482  0.00  0.00    +0.000 HD
ENDBRANCH  30  32
ENDBRANCH  29  30
ENDBRANCH  28  29
ENDBRANCH  27  28
ENDBRANCH  25  27
ENDBRANCH  22  23
BRANCH  22  34
ATOM     34  C   UNL     1       4.611   6.049  17.771  0.00  0.00    +0.000 C 
ATOM     35  C   UNL     1       5.313   5.501  19.040  0.00  0.00    +0.000 C 
ATOM     36  C   UNL     1       4.574   4.897  16.747  0.00  0.00    +0.000 C 
ATOM     37  C   UNL     1       5.503   7.149  17.168  0.00  0.00    +0.000 C 
ENDBRANCH  22  34
ENDBRANCH   3  22
TORSDOF 12
ENDMDL
MODEL 2
REMARK VINA RESULT:      -6.8      1.194      1.859
REMARK  Name = 
REMARK  20 active torsions:
REMARK  status: ('A' for Active; 'I' for Inactive)
REMARK    1  A    between atoms: C_1  and  N_2
REMARK    2  A    between atoms: N_2  and  C_3
REMARK    3  A    between atoms: C_3  and  C_4
REMARK    4  A    between atoms: C_3  and  C_22
REMARK    5  A    between atoms: N_6  and  C_7
REMARK    6  A    between atoms: C_7  and  C_8
REMARK    7  A    between atoms: C_7  and  C_18
REMARK    8  A    between atoms: N_10  and  C_11
REMARK    9  A    between atoms: N_10  and  C_12
REMARK   10  A    between atoms: C_12  and  C_13
REMARK   11  A    between atoms: C_13  and  C_14
REMARK   12  A    between atoms: C_14  and  C_15
REMARK   13  A    between atoms: C_15  and  O_17
REMARK   14  A    between atoms: C_18  and  C_19
REMARK   15  A    between atoms: C_18  and  C_20
REMARK   16  A    between atoms: C_18  and  C_21
REMARK   17  A    between atoms: C_22  and  C_23
REMARK   18  A    between atoms: C_22  and  C_24
REMARK   19  A    between atoms: C_22  and  C_25
REMARK   20  A    between atoms: N_27  and  C_28
REMARK                            x       y       z     vdW  Elec       q    Type
REMARK                         _______ _______ _______ _____ _____    ______ ____
ROOT
ATOM      1  C   UNL     1       1.640   8.688  18.598  0.00  0.00    +0.000 C 
ATOM      2  O   UNL     1       1.709   9.143  17.459  0.00  0.00    +0.000 OA
ATOM      3  N   UNL     1       2.149   7.454  18.930  0.00  0.00    +0.000 N 
ATOM      4  H   UNL     1       2.097   7.216  19.909  0.00  0.00    +0.000 HD
ENDROOT
BRANCH   1   5
ATOM      5  C   UNL     1       0.908   9.481  19.746  0.00  0.00    +0.000 C 
BRANCH   5   7
ATOM      6  C   UNL     1       0.401   8.792  22.094  0.00  0.00    +0.000 C 
ATOM      7  N   UNL     1       1.399   9.134  21.109  0.00  0.00    +0.000 NA
ATOM      8  H   UNL     1       2.178   8.484  21.075  0.00  0.00    +0.000 HD
ENDBRANCH   5   7
BRANCH   5   9
ATOM      9  C   UNL     1       0.883  11.052  19.564  0.00  0.00    +0.000 C 
ATOM     10  C   UNL     1       1.652  11.744  20.719  0.00  0.00    +0.000 C 
ATOM     11  C   UNL     1       1.716  11.457  18.303  0.00  0.00    +0.000 C 
BRANCH   9  12
ATOM     12  C   UNL     1      -0.551  11.591  19.382  0.00  0.00    +0.000 A 
ATOM     13  C   UNL     1      -1.186  12.501  20.222  0.00  0.00    +0.000 A 
ATOM     14  N   UNL     1      -2.488  12.645  19.835  0.00  0.00    +0.000 N 
ATOM     15  C   UNL     1      -3.472  13.442  20.533  0.00  0.00    +0.000 C 
ATOM     16  C   UNL     1      -2.761  11.788  18.797  0.00  0.00    +0.000 A 
ATOM     17  C   UNL     1      -3.975  11.478  18.167  0.00  0.00    +0.000 A 
ATOM     18  C   UNL     1      -3.984  10.412  17.265  0.00  0.00    +0.000 A 
ATOM     19  C   UNL     1      -2.803   9.791  16.888  0.00  0.00    +0.000 A 
ATOM     20  C   UNL     1      -1.583  10.226  17.399  0.00  0.00    +0.000 A 
ATOM     21  C   UNL     1      -1.559  11.158  18.454  0.00  0.00    +0.000 A 
ENDBRANCH   9  12
ENDBRANCH   5   9
ENDBRANCH   1   5
BRANCH   3  22
ATOM     22  C   UNL     1       2.563   6.380  18.010  0.00  0.00    +0.000 C 
BRANCH  22  23
ATOM     23  C   UNL     1       1.857   5.009  18.258  0.00  0.00    +0.000 C 
ATOM     24  O   UNL     1       1.431   4.346  17.309  0.00  0.00    +0.000 OA
ATOM     25  N   UNL     1       1.726   4.506  19.555  0.00  0.00    +0.000 N 
ATOM     26  C   UNL     1       2.053   5.177  20.809  0.00  0.00    +0.000 C 
BRANCH  25  27
ATOM     27  C   UNL     1       1.022   3.224  19.702  0.00  0.00    +0.000 C 
BRANCH  27  28
ATOM     28  C   UNL     1       1.917   2.090  20.206  0.00  0.00    +0.000 C 
BRANCH  28  29
ATOM     29  C   UNL     1       3.133   1.858  19.325  0.00  0.00    +0.000 C 
BRANCH  29  30
ATOM     30  C   UNL     1       4.440   2.163  20.003  0.00  0.00    +0.000 C 
ATOM     31  O   UNL     1       4.722   1.809  21.137  0.00  0.00    +0.000 OA
BRANCH  30  32
ATOM     32  O   UNL     1       5.315   2.826  19.227  0.00  0.00    +0.000 OA
ATOM     33  H   UNL     1       5.799   3.513  19.727  0.00  0.00    +0.000 HD
ENDBRANCH  30  32
ENDBRANCH  29  30
ENDBRANCH  28  29
ENDBRANCH  27  28
ENDBRANCH  25  27
ENDBRANCH  22  23
BRANCH  22  34
ATOM     34  C   UNL     1       4.115   6.224  17.721  0.00  0.00    +0.000 C 
ATOM     35  C   UNL     1       4.836   6.028  19.079  0.00  0.00    +0.000 C 
ATOM     36  C   UNL     1       4.395   4.963  16.880  0.00  0.00    +0.000 C 
ATOM     37  C   UNL     1       4.785   7.402  16.990  0.00  0.00    +0.000 C 
ENDBRANCH  22  34
ENDBRANCH   3  22
TORSDOF 12
ENDMDL
MODEL 3
REMARK VINA RESULT:      -6.7      2.469      4.009
REMARK  Name = 
REMARK  20 active torsions:
REMARK  status: ('A' for Active; 'I' for Inactive)
REMARK    1  A    between atoms: C_1  and  N_2
REMARK    2  A    between atoms: N_2  and  C_3
REMARK    3  A    between atoms: C_3  and  C_4
REMARK    4  A    between atoms: C_3  and  C_22
REMARK    5  A    between atoms: N_6  and  C_7
REMARK    6  A    between atoms: C_7  and  C_8
REMARK    7  A    between atoms: C_7  and  C_18
REMARK    8  A    between atoms: N_10  and  C_11
REMARK    9  A    between atoms: N_10  and  C_12
REMARK   10  A    between atoms: C_12  and  C_13
REMARK   11  A    between atoms: C_13  and  C_14
REMARK   12  A    between atoms: C_14  and  C_15
REMARK   13  A    between atoms: C_15  and  O_17
REMARK   14  A    between atoms: C_18  and  C_19
REMARK   15  A    between atoms: C_18  and  C_20
REMARK   16  A    between atoms: C_18  and  C_21
REMARK   17  A    between atoms: C_22  and  C_23
REMARK   18  A    between atoms: C_22  and  C_24
REMARK   19  A    between atoms: C_22  and  C_25
REMARK   20  A    between atoms: N_27  and  C_28
REMARK                            x       y       z     vdW  Elec       q    Type
REMARK                         _______ _______ _______ _____ _____    ______ ____
ROOT
ATOM      1  C   UNL     1       1.568   8.262  19.298  0.00  0.00    +0.000 C 
ATOM      2  O   UNL     1       1.438   8.242  18.077  0.00  0.00    +0.000 OA
ATOM      3  N   UNL     1       2.442   7.431  19.958  0.00  0.00    +0.000 N 
ATOM      4  H   UNL     1       2.516   7.586  20.953  0.00  0.00    +0.000 HD
ENDROOT
BRANCH   1   5
ATOM      5  C   UNL     1       0.692   9.219  20.193  0.00  0.00    +0.000 C 
BRANCH   5   7
ATOM      6  C   UNL     1      -0.203   8.988  22.514  0.00  0.00    +0.000 C 
ATOM      7  N   UNL     1       0.952   9.064  21.652  0.00  0.00    +0.000 NA
ATOM      8  H   UNL     1       1.648   8.350  21.838  0.00  0.00    +0.000 HD
ENDBRANCH   5   7
BRANCH   5   9
ATOM      9  C   UNL     1       0.748  10.747  19.792  0.00  0.00    +0.000 C 
ATOM     10  C   UNL     1       1.527  11.559  20.859  0.00  0.00    +0.000 C 
ATOM     11  C   UNL     1       1.626  10.932  18.510  0.00  0.00    +0.000 C 
BRANCH   9  12
ATOM     12  C   UNL     1      -0.653  11.321  19.498  0.00  0.00    +0.000 A 
ATOM     13  C   UNL     1      -1.367  12.179  20.329  0.00  0.00    +0.000 A 
ATOM     14  N   UNL     1      -2.619  12.371  19.817  0.00  0.00    +0.000 N 
ATOM     15  C   UNL     1      -3.666  13.132  20.463  0.00  0.00    +0.000 C 
ATOM     16  C   UNL     1      -2.786  11.593  18.697  0.00  0.00    +0.000 A 
ATOM     17  C   UNL     1      -3.928  11.348  17.921  0.00  0.00    +0.000 A 
ATOM     18  C   UNL     1      -3.849  10.349  16.949  0.00  0.00    +0.000 A 
ATOM     19  C   UNL     1      -2.640   9.737  16.656  0.00  0.00    +0.000 A 
ATOM     20  C   UNL     1      -1.478  10.116  17.323  0.00  0.00    +0.000 A 
ATOM     21  C   UNL     1      -1.559  10.971  18.439  0.00  0.00    +0.000 A 
ENDBRANCH   9  12
ENDBRANCH   5   9
ENDBRANCH   1   5
BRANCH   3  22
ATOM     22  C   UNL     1       3.112   6.231  19.426  0.00  0.00    +0.000 C 
BRANCH  22  23
ATOM     23  C   UNL     1       4.026   6.497  18.187  0.00  0.00    +0.000 C 
ATOM     24  O   UNL     1       3.584   7.100  17.205  0.00  0.00    +0.000 OA
ATOM     25  N   UNL     1       5.359   6.080  18.190  0.00  0.00    +0.000 N 
ATOM     26  C   UNL     1       6.035   5.261  19.190  0.00  0.00    +0.000 C 
BRANCH  25  27
ATOM     27  C   UNL     1       6.139   6.343  16.971  0.00  0.00    +0.000 C 
BRANCH  27  28
ATOM     28  C   UNL     1       5.678   5.527  15.763  0.00  0.00    +0.000 C 
BRANCH  28  29
ATOM     29  C   UNL     1       6.724   4.534  15.284  0.00  0.00    +0.000 C 
BRANCH  29  30
ATOM     30  C   UNL     1       7.205   4.789  13.882  0.00  0.00    +0.000 C 
ATOM     31  O   UNL     1       8.051   5.619  13.590  0.00  0.00    +0.000 OA
BRANCH  30  32
ATOM     32  O   UNL     1       6.657   3.977  12.962  0.00  0.00    +0.000 OA
ATOM     33  H   UNL     1       6.853   4.273  12.051  0.00  0.00    +0.000 HD
ENDBRANCH  30  32
ENDBRANCH  29  30
ENDBRANCH  28  29
ENDBRANCH  27  28
ENDBRANCH  25  27
ENDBRANCH  22  23
BRANCH  22  34
ATOM     34  C   UNL     1       2.239   4.916  19.269  0.00  0.00    +0.000 C 
ATOM     35  C   UNL     1       3.156   3.698  19.548  0.00  0.00    +0.000 C 
ATOM     36  C   UNL     1       1.111   4.875  20.318  0.00  0.00    +0.000 C 
ATOM     37  C   UNL     1       1.575   4.709  17.896  0.00  0.00    +0.000 C 
ENDBRANCH  22  34
ENDBRANCH   3  22
TORSDOF 12
ENDMDL
MODEL 4
REMARK VINA RESULT:      -6.6      2.826      4.967
REMARK  Name = 
REMARK  20 active torsions:
REMARK  status: ('A' for Active; 'I' for Inactive)
REMARK    1  A    between atoms: C_1  and  N_2
REMARK    2  A    between atoms: N_2  and  C_3
REMARK    3  A    between atoms: C_3  and  C_4
REMARK    4  A    between atoms: C_3  and  C_22
REMARK    5  A    between atoms: N_6  and  C_7
REMARK    6  A    between atoms: C_7  and  C_8
REMARK    7  A    between atoms: C_7  and  C_18
REMARK    8  A    between atoms: N_10  and  C_11
REMARK    9  A    between atoms: N_10  and  C_12
REMARK   10  A    between atoms: C_12  and  C_13
REMARK   11  A    between atoms: C_13  and  C_14
REMARK   12  A    between atoms: C_14  and  C_15
REMARK   13  A    between atoms: C_15  and  O_17
REMARK   14  A    between atoms: C_18  and  C_19
REMARK   15  A    between atoms: C_18  and  C_20
REMARK   16  A    between atoms: C_18  and  C_21
REMARK   17  A    between atoms: C_22  and  C_23
REMARK   18  A    between atoms: C_22  and  C_24
REMARK   19  A    between atoms: C_22  and  C_25
REMARK   20  A    between atoms: N_27  and  C_28
REMARK                            x       y       z     vdW  Elec       q    Type
REMARK                         _______ _______ _______ _____ _____    ______ ____
ROOT
ATOM      1  C   UNL     1       1.979   7.216  20.163  0.00  0.00    +0.000 C 
ATOM      2  O   UNL     1       1.481   6.510  21.037  0.00  0.00    +0.000 OA
ATOM      3  N   UNL     1       2.893   6.730  19.258  0.00  0.00    +0.000 N 
ATOM      4  H   UNL     1       3.179   7.383  18.543  0.00  0.00    +0.000 HD
ENDROOT
BRANCH   1   5
ATOM      5  C   UNL     1       1.630   8.750  20.061  0.00  0.00    +0.000 C 
BRANCH   5   7
ATOM      6  C   UNL     1       1.797   9.570  17.707  0.00  0.00    +0.000 C 
ATOM      7  N   UNL     1       0.952   9.117  18.786  0.00  0.00    +0.000 NA
ATOM      8  H   UNL     1       0.271   8.419  18.506  0.00  0.00    +0.000 HD
ENDBRANCH   5   7
BRANCH   5   9
ATOM      9  C   UNL     1       0.828   9.337  21.290  0.00  0.00    +0.000 C 
ATOM     10  C   UNL     1      -0.492   8.551  21.502  0.00  0.00    +0.000 C 
ATOM     11  C   UNL     1       1.608   9.064  22.619  0.00  0.00    +0.000 C 
BRANCH   9  12
ATOM     12  C   UNL     1       0.614  10.860  21.168  0.00  0.00    +0.000 A 
ATOM     13  C   UNL     1       1.468  11.748  20.520  0.00  0.00    +0.000 A 
ATOM     14  N   UNL     1       1.037  13.027  20.728  0.00  0.00    +0.000 N 
ATOM     15  C   UNL     1       1.732  14.214  20.280  0.00  0.00    +0.000 C 
ATOM     16  C   UNL     1      -0.049  13.019  21.570  0.00  0.00    +0.000 A 
ATOM     17  C   UNL     1      -0.739  14.079  22.174  0.00  0.00    +0.000 A 
ATOM     18  C   UNL     1      -1.688  13.763  23.148  0.00  0.00    +0.000 A 
ATOM     19  C   UNL     1      -2.046  12.446  23.390  0.00  0.00    +0.000 A 
ATOM     20  C   UNL     1      -1.468  11.412  22.657  0.00  0.00    +0.000 A 
ATOM     21  C   UNL     1      -0.372  11.680  21.815  0.00  0.00    +0.000 A 
ENDBRANCH   9  12
ENDBRANCH   5   9
ENDBRANCH   1   5
BRANCH   3  22
ATOM     22  C   UNL     1       3.642   5.464  19.334  0.00  0.00    +0.000 C 
BRANCH  22  23
ATOM     23  C   UNL     1       5.158   5.586  18.981  0.00  0.00    +0.000 C 
ATOM     24  O   UNL     1       6.017   5.189  19.773  0.00  0.00    +0.000 OA
ATOM     25  N   UNL     1       5.557   6.121  17.754  0.00  0.00    +0.000 N 
ATOM     26  C   UNL     1       4.717   6.747  16.738  0.00  0.00    +0.000 C 
BRANCH  25  27
ATOM     27  C   UNL     1       7.004   6.229  17.516  0.00  0.00    +0.000 C 
BRANCH  27  28
ATOM     28  C   UNL     1       7.500   7.672  17.411  0.00  0.00    +0.000 C 
BRANCH  28  29
ATOM     29  C   UNL     1       8.508   8.033  18.489  0.00  0.00    +0.000 C 
BRANCH  29  30
ATOM     30  C   UNL     1       8.705   9.513  18.665  0.00  0.00    +0.000 C 
ATOM     31  O   UNL     1       9.352  10.015  19.570  0.00  0.00    +0.000 OA
BRANCH  30  32
ATOM     32  O   UNL     1       8.144  10.256  17.695  0.00  0.00    +0.000 OA
ATOM     33  H   UNL     1       7.362   9.817  17.305  0.00  0.00    +0.000 HD
ENDBRANCH  30  32
ENDBRANCH  29  30
ENDBRANCH  28  29
ENDBRANCH  27  28
ENDBRANCH  25  27
ENDBRANCH  22  23
BRANCH  22  34
ATOM     34  C   UNL     1       2.968   4.178  18.692  0.00  0.00    +0.000 C 
ATOM     35  C   UNL     1       2.376   3.325  19.844  0.00  0.00    +0.000 C 
ATOM     36  C   UNL     1       1.791   4.572  17.777  0.00  0.00    +0.000 C 
ATOM     37  C   UNL     1       3.896   3.277  17.859  0.00  0.00    +0.000 C 
ENDBRANCH  22  34
ENDBRANCH   3  22
TORSDOF 12
ENDMDL
MODEL 5
REMARK VINA RESULT:      -6.6      2.515      4.398
REMARK  Name = 
REMARK  20 active torsions:
REMARK  status: ('A' for Active; 'I' for Inactive)
REMARK    1  A    between atoms: C_1  and  N_2
REMARK    2  A    between atoms: N_2  and  C_3
REMARK    3  A    between atoms: C_3  and  C_4
REMARK    4  A    between atoms: C_3  and  C_22
REMARK    5  A    between atoms: N_6  and  C_7
REMARK    6  A    between atoms: C_7  and  C_8
REMARK    7  A    between atoms: C_7  and  C_18
REMARK    8  A    between atoms: N_10  and  C_11
REMARK    9  A    between atoms: N_10  and  C_12
REMARK   10  A    between atoms: C_12  and  C_13
REMARK   11  A    between atoms: C_13  and  C_14
REMARK   12  A    between atoms: C_14  and  C_15
REMARK   13  A    between atoms: C_15  and  O_17
REMARK   14  A    between atoms: C_18  and  C_19
REMARK   15  A    between atoms: C_18  and  C_20
REMARK   16  A    between atoms: C_18  and  C_21
REMARK   17  A    between atoms: C_22  and  C_23
REMARK   18  A    between atoms: C_22  and  C_24
REMARK   19  A    between atoms: C_22  and  C_25
REMARK   20  A    between atoms: N_27  and  C_28
REMARK                            x       y       z     vdW  Elec       q    Type
REMARK                         _______ _______ _______ _____ _____    ______ ____
ROOT
ATOM      1  C   UNL     1       2.030   7.554  19.904  0.00  0.00    +0.000 C 
ATOM      2  O   UNL     1       3.105   7.912  19.429  0.00  0.00    +0.000 OA
ATOM      3  N   UNL     1       1.777   6.247  20.248  0.00  0.00    +0.000 N 
ATOM      4  H   UNL     1       0.886   6.085  20.694  0.00  0.00    +0.000 HD
ENDROOT
BRANCH   1   5
ATOM      5  C   UNL     1       0.848   8.578  20.102  0.00  0.00    +0.000 C 
BRANCH   5   7
ATOM      6  C   UNL     1      -0.321   8.754  22.303  0.00  0.00    +0.000 C 
ATOM      7  N   UNL     1       0.791   9.155  21.474  0.00  0.00    +0.000 NA
ATOM      8  H   UNL     1       1.690   9.103  21.944  0.00  0.00    +0.000 HD
ENDBRANCH   5   7
BRANCH   5   9
ATOM      9  C   UNL     1       0.777   9.734  19.026  0.00  0.00    +0.000 C 
ATOM     10  C   UNL     1       1.658  10.934  19.459  0.00  0.00    +0.000 C 
ATOM     11  C   UNL     1       1.458   9.270  17.696  0.00  0.00    +0.000 C 
BRANCH   9  12
ATOM     12  C   UNL     1      -0.677  10.135  18.702  0.00  0.00    +0.000 A 
ATOM     13  C   UNL     1      -1.353   9.842  17.520  0.00  0.00    +0.000 A 
ATOM     14  N   UNL     1      -2.568  10.468  17.525  0.00  0.00    +0.000 N 
ATOM     15  C   UNL     1      -3.502  10.461  16.421  0.00  0.00    +0.000 C 
ATOM     16  C   UNL     1      -2.688  11.239  18.655  0.00  0.00    +0.000 A 
ATOM     17  C   UNL     1      -3.678  12.158  19.028  0.00  0.00    +0.000 A 
ATOM     18  C   UNL     1      -3.437  12.951  20.151  0.00  0.00    +0.000 A 
ATOM     19  C   UNL     1      -2.332  12.724  20.957  0.00  0.00    +0.000 A 
ATOM     20  C   UNL     1      -1.445  11.692  20.663  0.00  0.00    +0.000 A 
ATOM     21  C   UNL     1      -1.550  11.008  19.436  0.00  0.00    +0.000 A 
ENDBRANCH   9  12
ENDBRANCH   5   9
ENDBRANCH   1   5
BRANCH   3  22
ATOM     22  C   UNL     1       2.549   5.054  19.861  0.00  0.00    +0.000 C 
BRANCH  22  23
ATOM     23  C   UNL     1       3.014   5.040  18.369  0.00  0.00    +0.000 C 
ATOM     24  O   UNL     1       2.184   4.961  17.459  0.00  0.00    +0.000 OA
ATOM     25  N   UNL     1       4.370   5.144  18.051  0.00  0.00    +0.000 N 
ATOM     26  C   UNL     1       5.505   5.130  18.966  0.00  0.00    +0.000 C 
BRANCH  25  27
ATOM     27  C   UNL     1       4.722   5.091  16.624  0.00  0.00    +0.000 C 
BRANCH  27  28
ATOM     28  C   UNL     1       6.108   5.660  16.316  0.00  0.00    +0.000 C 
BRANCH  28  29
ATOM     29  C   UNL     1       7.051   4.631  15.713  0.00  0.00    +0.000 C 
BRANCH  29  30
ATOM     30  C   UNL     1       7.004   4.572  14.211  0.00  0.00    +0.000 C 
ATOM     31  O   UNL     1       7.527   5.396  13.477  0.00  0.00    +0.000 OA
BRANCH  30  32
ATOM     32  O   UNL     1       6.370   3.490  13.728  0.00  0.00    +0.000 OA
ATOM     33  H   UNL     1       6.012   3.646  12.832  0.00  0.00    +0.000 HD
ENDBRANCH  30  32
ENDBRANCH  29  30
ENDBRANCH  28  29
ENDBRANCH  27  28
ENDBRANCH  25  27
ENDBRANCH  22  23
BRANCH  22  34
ATOM     34  C   UNL     1       2.005   3.644  20.344  0.00  0.00    +0.000 C 
ATOM     35  C   UNL     1       2.232   3.544  21.874  0.00  0.00    +0.000 C 
ATOM     36  C   UNL     1       0.486   3.529  20.108  0.00  0.00    +0.000 C 
ATOM     37  C   UNL     1       2.650   2.412  19.684  0.00  0.00    +0.000 C 
ENDBRANCH  22  34
ENDBRANCH   3  22
TORSDOF 12
ENDMDL
MODEL 6
REMARK VINA RESULT:      -6.4      2.726      4.916
REMARK  Name = 
REMARK  20 active torsions:
REMARK  status: ('A' for Active; 'I' for Inactive)
REMARK    1  A    between atoms: C_1  and  N_2
REMARK    2  A    between atoms: N_2  and  C_3
REMARK    3  A    between atoms: C_3  and  C_4
REMARK    4  A    between atoms: C_3  and  C_22
REMARK    5  A    between atoms: N_6  and  C_7
REMARK    6  A    between atoms: C_7  and  C_8
REMARK    7  A    between atoms: C_7  and  C_18
REMARK    8  A    between atoms: N_10  and  C_11
REMARK    9  A    between atoms: N_10  and  C_12
REMARK   10  A    between atoms: C_12  and  C_13
REMARK   11  A    between atoms: C_13  and  C_14
REMARK   12  A    between atoms: C_14  and  C_15
REMARK   13  A    between atoms: C_15  and  O_17
REMARK   14  A    between atoms: C_18  and  C_19
REMARK   15  A    between atoms: C_18  and  C_20
REMARK   16  A    between atoms: C_18  and  C_21
REMARK   17  A    between atoms: C_22  and  C_23
REMARK   18  A    between atoms: C_22  and  C_24
REMARK   19  A    between atoms: C_22  and  C_25
REMARK   20  A    between atoms: N_27  and  C_28
REMARK                            x       y       z     vdW  Elec       q    Type
REMARK                         _______ _______ _______ _____ _____    ______ ____
ROOT
ATOM      1  C   UNL     1       1.749   7.232  20.017  0.00  0.00    +0.000 C 
ATOM      2  O   UNL     1       1.632   6.359  20.873  0.00  0.00    +0.000 OA
ATOM      3  N   UNL     1       2.517   7.061  18.890  0.00  0.00    +0.000 N 
ATOM      4  H   UNL     1       2.481   7.819  18.225  0.00  0.00    +0.000 HD
ENDROOT
BRANCH   1   5
ATOM      5  C   UNL     1       1.054   8.637  20.191  0.00  0.00    +0.000 C 
BRANCH   5   7
ATOM      6  C   UNL     1       0.973   9.286  22.602  0.00  0.00    +0.000 C 
ATOM      7  N   UNL     1       1.613   9.436  21.318  0.00  0.00    +0.000 NA
ATOM      8  H   UNL     1       2.626   9.376  21.357  0.00  0.00    +0.000 HD
ENDBRANCH   5   7
BRANCH   5   9
ATOM      9  C   UNL     1       0.991   9.519  18.881  0.00  0.00    +0.000 C 
ATOM     10  C   UNL     1       2.001  10.693  18.968  0.00  0.00    +0.000 C 
ATOM     11  C   UNL     1       1.521   8.700  17.658  0.00  0.00    +0.000 C 
BRANCH   9  12
ATOM     12  C   UNL     1      -0.446   9.978  18.560  0.00  0.00    +0.000 A 
ATOM     13  C   UNL     1      -1.115   9.764  17.358  0.00  0.00    +0.000 A 
ATOM     14  N   UNL     1      -2.311  10.424  17.379  0.00  0.00    +0.000 N 
ATOM     15  C   UNL     1      -3.230  10.499  16.265  0.00  0.00    +0.000 C 
ATOM     16  C   UNL     1      -2.424  11.142  18.545  0.00  0.00    +0.000 A 
ATOM     17  C   UNL     1      -3.392  12.071  18.952  0.00  0.00    +0.000 A 
ATOM     18  C   UNL     1      -3.143  12.800  20.115  0.00  0.00    +0.000 A 
ATOM     19  C   UNL     1      -2.055  12.501  20.922  0.00  0.00    +0.000 A 
ATOM     20  C   UNL     1      -1.194  11.459  20.587  0.00  0.00    +0.000 A 
ATOM     21  C   UNL     1      -1.303  10.840  19.327  0.00  0.00    +0.000 A 
ENDBRANCH   9  12
ENDBRANCH   5   9
ENDBRANCH   1   5
BRANCH   3  22
ATOM     22  C   UNL     1       3.526   6.015  18.645  0.00  0.00    +0.000 C 
BRANCH  22  23
ATOM     23  C   UNL     1       4.771   6.494  17.833  0.00  0.00    +0.000 C 
ATOM     24  O   UNL     1       4.626   7.168  16.809  0.00  0.00    +0.000 OA
ATOM     25  N   UNL     1       6.061   6.189  18.273  0.00  0.00    +0.000 N 
ATOM     26  C   UNL     1       6.444   5.318  19.378  0.00  0.00    +0.000 C 
BRANCH  25  27
ATOM     27  C   UNL     1       7.176   6.652  17.432  0.00  0.00    +0.000 C 
BRANCH  27  28
ATOM     28  C   UNL     1       8.108   7.635  18.142  0.00  0.00    +0.000 C 
BRANCH  28  29
ATOM     29  C   UNL     1       8.021   9.045  17.581  0.00  0.00    +0.000 C 
BRANCH  29  30
ATOM     30  C   UNL     1       8.745  10.072  18.408  0.00  0.00    +0.000 C 
ATOM     31  O   UNL     1       9.401   9.811  19.403  0.00  0.00    +0.000 OA
BRANCH  30  32
ATOM     32  O   UNL     1       8.653  11.323  17.925  0.00  0.00    +0.000 OA
ATOM     33  H   UNL     1       9.389  11.535  17.317  0.00  0.00    +0.000 HD
ENDBRANCH  30  32
ENDBRANCH  29  30
ENDBRANCH  28  29
ENDBRANCH  27  28
ENDBRANCH  25  27
ENDBRANCH  22  23
BRANCH  22  34
ATOM     34  C   UNL     1       3.003   4.592  18.177  0.00  0.00    +0.000 C 
ATOM     35  C   UNL     1       3.044   3.642  19.401  0.00  0.00    +0.000 C 
ATOM     36  C   UNL     1       1.532   4.669  17.720  0.00  0.00    +0.000 C 
ATOM     37  C   UNL     1       3.788   3.930  17.032  0.00  0.00    +0.000 C 
ENDBRANCH  22  34
ENDBRANCH   3  22
TORSDOF 12
ENDMDL
MODEL 7
REMARK VINA RESULT:      -6.4      2.399      4.258
REMARK  Name = 
REMARK  20 active torsions:
REMARK  status: ('A' for Active; 'I' for Inactive)
REMARK    1  A    between atoms: C_1  and  N_2
REMARK    2  A    between atoms: N_2  and  C_3
REMARK    3  A    between atoms: C_3  and  C_4
REMARK    4  A    between atoms: C_3  and  C_22
REMARK    5  A    between atoms: N_6  and  C_7
REMARK    6  A    between atoms: C_7  and  C_8
REMARK    7  A    between atoms: C_7  and  C_18
REMARK    8  A    between atoms: N_10  and  C_11
REMARK    9  A    between atoms: N_10  and  C_12
REMARK   10  A    between atoms: C_12  and  C_13
REMARK   11  A    between atoms: C_13  and  C_14
REMARK   12  A    between atoms: C_14  and  C_15
REMARK   13  A    between atoms: C_15  and  O_17
REMARK   14  A    between atoms: C_18  and  C_19
REMARK   15  A    between atoms: C_18  and  C_20
REMARK   16  A    between atoms: C_18  and  C_21
REMARK   17  A    between atoms: C_22  and  C_23
REMARK   18  A    between atoms: C_22  and  C_24
REMARK   19  A    between atoms: C_22  and  C_25
REMARK   20  A    between atoms: N_27  and  C_28
REMARK                            x       y       z     vdW  Elec       q    Type
REMARK                         _______ _______ _______ _____ _____    ______ ____
ROOT
ATOM      1  C   UNL     1       1.812   7.998  19.240  0.00  0.00    +0.000 C 
ATOM      2  O   UNL     1       1.652   7.934  18.023  0.00  0.00    +0.000 OA
ATOM      3  N   UNL     1       2.677   7.167  19.912  0.00  0.00    +0.000 N 
ATOM      4  H   UNL     1       2.779   7.358  20.898  0.00  0.00    +0.000 HD
ENDROOT
BRANCH   1   5
ATOM      5  C   UNL     1       0.987   9.016  20.115  0.00  0.00    +0.000 C 
BRANCH   5   7
ATOM      6  C   UNL     1       0.491   9.121  22.562  0.00  0.00    +0.000 C 
ATOM      7  N   UNL     1       1.485   9.129  21.515  0.00  0.00    +0.000 NA
ATOM      8  H   UNL     1       2.266   8.505  21.689  0.00  0.00    +0.000 HD
ENDBRANCH   5   7
BRANCH   5   9
ATOM      9  C   UNL     1       0.815  10.455  19.484  0.00  0.00    +0.000 C 
ATOM     10  C   UNL     1       1.359  11.540  20.450  0.00  0.00    +0.000 C 
ATOM     11  C   UNL     1       1.746  10.608  18.236  0.00  0.00    +0.000 C 
BRANCH   9  12
ATOM     12  C   UNL     1      -0.636  10.719  19.031  0.00  0.00    +0.000 A 
ATOM     13  C   UNL     1      -1.138  10.493  17.752  0.00  0.00    +0.000 A 
ATOM     14  N   UNL     1      -2.417  10.967  17.676  0.00  0.00    +0.000 N 
ATOM     15  C   UNL     1      -3.219  10.984  16.473  0.00  0.00    +0.000 C 
ATOM     16  C   UNL     1      -2.757  11.578  18.859  0.00  0.00    +0.000 A 
ATOM     17  C   UNL     1      -3.893  12.323  19.205  0.00  0.00    +0.000 A 
ATOM     18  C   UNL     1      -3.878  12.999  20.426  0.00  0.00    +0.000 A 
ATOM     19  C   UNL     1      -2.845  12.807  21.331  0.00  0.00    +0.000 A 
ATOM     20  C   UNL     1      -1.805  11.929  21.039  0.00  0.00    +0.000 A 
ATOM     21  C   UNL     1      -1.689  11.390  19.743  0.00  0.00    +0.000 A 
ENDBRANCH   9  12
ENDBRANCH   5   9
ENDBRANCH   1   5
BRANCH   3  22
ATOM     22  C   UNL     1       3.298   5.928  19.413  0.00  0.00    +0.000 C 
BRANCH  22  23
ATOM     23  C   UNL     1       4.253   6.129  18.194  0.00  0.00    +0.000 C 
ATOM     24  O   UNL     1       3.806   6.502  17.106  0.00  0.00    +0.000 OA
ATOM     25  N   UNL     1       5.627   5.915  18.330  0.00  0.00    +0.000 N 
ATOM     26  C   UNL     1       6.334   5.367  19.482  0.00  0.00    +0.000 C 
BRANCH  25  27
ATOM     27  C   UNL     1       6.450   6.097  17.124  0.00  0.00    +0.000 C 
BRANCH  27  28
ATOM     28  C   UNL     1       7.385   4.921  16.841  0.00  0.00    +0.000 C 
BRANCH  28  29
ATOM     29  C   UNL     1       6.829   3.957  15.806  0.00  0.00    +0.000 C 
BRANCH  29  30
ATOM     30  C   UNL     1       6.417   4.619  14.520  0.00  0.00    +0.000 C 
ATOM     31  O   UNL     1       5.285   4.582  14.063  0.00  0.00    +0.000 OA
BRANCH  30  32
ATOM     32  O   UNL     1       7.401   5.315  13.926  0.00  0.00    +0.000 OA
ATOM     33  H   UNL     1       7.762   6.010  14.512  0.00  0.00    +0.000 HD
ENDBRANCH  30  32
ENDBRANCH  29  30
ENDBRANCH  28  29
ENDBRANCH  27  28
ENDBRANCH  25  27
ENDBRANCH  22  23
BRANCH  22  34
ATOM     34  C   UNL     1       2.362   4.656  19.252  0.00  0.00    +0.000 C 
ATOM     35  C   UNL     1       3.242   3.391  19.426  0.00  0.00    +0.000 C 
ATOM     36  C   UNL     1       1.294   4.613  20.363  0.00  0.00    +0.000 C 
ATOM     37  C   UNL     1       1.614   4.536  17.913  0.00  0.00    +0.000 C 
ENDBRANCH  22  34
ENDBRANCH   3  22
TORSDOF 12
ENDMDL
MODEL 8
REMARK VINA RESULT:      -6.4      1.636      2.817
REMARK  Name = 
REMARK  20 active torsions:
REMARK  status: ('A' for Active; 'I' for Inactive)
REMARK    1  A    between atoms: C_1  and  N_2
REMARK    2  A    between atoms: N_2  and  C_3
REMARK    3  A    between atoms: C_3  and  C_4
REMARK    4  A    between atoms: C_3  and  C_22
REMARK    5  A    between atoms: N_6  and  C_7
REMARK    6  A    between atoms: C_7  and  C_8
REMARK    7  A    between atoms: C_7  and  C_18
REMARK    8  A    between atoms: N_10  and  C_11
REMARK    9  A    between atoms: N_10  and  C_12
REMARK   10  A    between atoms: C_12  and  C_13
REMARK   11  A    between atoms: C_13  and  C_14
REMARK   12  A    between atoms: C_14  and  C_15
REMARK   13  A    between atoms: C_15  and  O_17
REMARK   14  A    between atoms: C_18  and  C_19
REMARK   15  A    between atoms: C_18  and  C_20
REMARK   16  A    between atoms: C_18  and  C_21
REMARK   17  A    between atoms: C_22  and  C_23
REMARK   18  A    between atoms: C_22  and  C_24
REMARK   19  A    between atoms: C_22  and  C_25
REMARK   20  A    between atoms: N_27  and  C_28
REMARK                            x       y       z     vdW  Elec       q    Type
REMARK                         _______ _______ _______ _____ _____    ______ ____
ROOT
ATOM      1  C   UNL     1       1.717   8.930  18.159  0.00  0.00    +0.000 C 
ATOM      2  O   UNL     1       0.918   8.574  17.296  0.00  0.00    +0.000 OA
ATOM      3  N   UNL     1       2.750   8.126  18.581  0.00  0.00    +0.000 N 
ATOM      4  H   UNL     1       3.383   8.552  19.242  0.00  0.00    +0.000 HD
ENDROOT
BRANCH   1   5
ATOM      5  C   UNL     1       1.571  10.327  18.875  0.00  0.00    +0.000 C 
BRANCH   5   7
ATOM      6  C   UNL     1       2.902  12.051  17.651  0.00  0.00    +0.000 C 
ATOM      7  N   UNL     1       1.607  11.480  17.932  0.00  0.00    +0.000 NA
ATOM      8  H   UNL     1       1.049  11.306  17.102  0.00  0.00    +0.000 HD
ENDBRANCH   5   7
BRANCH   5   9
ATOM      9  C   UNL     1       0.326  10.456  19.841  0.00  0.00    +0.000 C 
ATOM     10  C   UNL     1      -0.987  10.145  19.078  0.00  0.00    +0.000 C 
ATOM     11  C   UNL     1       0.370   9.328  20.924  0.00  0.00    +0.000 C 
BRANCH   9  12
ATOM     12  C   UNL     1       0.298  11.816  20.569  0.00  0.00    +0.000 A 
ATOM     13  C   UNL     1       1.347  12.729  20.620  0.00  0.00    +0.000 A 
ATOM     14  N   UNL     1       1.019  13.753  21.462  0.00  0.00    +0.000 N 
ATOM     15  C   UNL     1       1.905  14.836  21.827  0.00  0.00    +0.000 C 
ATOM     16  C   UNL     1      -0.203  13.505  22.040  0.00  0.00    +0.000 A 
ATOM     17  C   UNL     1      -0.883  14.186  23.059  0.00  0.00    +0.000 A 
ATOM     18  C   UNL     1      -2.028  13.587  23.587  0.00  0.00    +0.000 A 
ATOM     19  C   UNL     1      -2.559  12.442  23.014  0.00  0.00    +0.000 A 
ATOM     20  C   UNL     1      -1.962  11.872  21.892  0.00  0.00    +0.000 A 
ATOM     21  C   UNL     1      -0.703  12.333  21.460  0.00  0.00    +0.000 A 
ENDBRANCH   9  12
ENDBRANCH   5   9
ENDBRANCH   1   5
BRANCH   3  22
ATOM     22  C   UNL     1       2.915   6.682  18.344  0.00  0.00    +0.000 C 
BRANCH  22  23
ATOM     23  C   UNL     1       2.226   5.769  19.409  0.00  0.00    +0.000 C 
ATOM     24  O   UNL     1       2.252   6.076  20.604  0.00  0.00    +0.000 OA
ATOM     25  N   UNL     1       1.549   4.612  19.015  0.00  0.00    +0.000 N 
ATOM     26  C   UNL     1       1.500   4.016  17.685  0.00  0.00    +0.000 C 
BRANCH  25  27
ATOM     27  C   UNL     1       0.957   3.794  20.084  0.00  0.00    +0.000 C 
BRANCH  27  28
ATOM     28  C   UNL     1       1.684   2.468  20.313  0.00  0.00    +0.000 C 
BRANCH  28  29
ATOM     29  C   UNL     1       2.954   2.622  21.134  0.00  0.00    +0.000 C 
BRANCH  29  30
ATOM     30  C   UNL     1       4.191   2.127  20.436  0.00  0.00    +0.000 C 
ATOM     31  O   UNL     1       5.181   1.708  21.014  0.00  0.00    +0.000 OA
BRANCH  30  32
ATOM     32  O   UNL     1       4.099   2.135  19.095  0.00  0.00    +0.000 OA
ATOM     33  H   UNL     1       4.407   1.293  18.703  0.00  0.00    +0.000 HD
ENDBRANCH  30  32
ENDBRANCH  29  30
ENDBRANCH  28  29
ENDBRANCH  27  28
ENDBRANCH  25  27
ENDBRANCH  22  23
BRANCH  22  34
ATOM     34  C   UNL     1       4.361   6.168  17.944  0.00  0.00    +0.000 C 
ATOM     35  C   UNL     1       4.990   5.494  19.191  0.00  0.00    +0.000 C 
ATOM     36  C   UNL     1       4.279   5.088  16.847  0.00  0.00    +0.000 C 
ATOM     37  C   UNL     1       5.340   7.241  17.437  0.00  0.00    +0.000 C 
ENDBRANCH  22  34
ENDBRANCH   3  22
TORSDOF 12
ENDMDL
MODEL 9
REMARK VINA RESULT:      -6.4      2.644      4.536
REMARK  Name = 
REMARK  20 active torsions:
REMARK  status: ('A' for Active; 'I' for Inactive)
REMARK    1  A    between atoms: C_1  and  N_2
REMARK    2  A    between atoms: N_2  and  C_3
REMARK    3  A    between atoms: C_3  and  C_4
REMARK    4  A    between atoms: C_3  and  C_22
REMARK    5  A    between atoms: N_6  and  C_7
REMARK    6  A    between atoms: C_7  and  C_8
REMARK    7  A    between atoms: C_7  and  C_18
REMARK    8  A    between atoms: N_10  and  C_11
REMARK    9  A    between atoms: N_10  and  C_12
REMARK   10  A    between atoms: C_12  and  C_13
REMARK   11  A    between atoms: C_13  and  C_14
REMARK   12  A    between atoms: C_14  and  C_15
REMARK   13  A    between atoms: C_15  and  O_17
REMARK   14  A    between atoms: C_18  and  C_19
REMARK   15  A    between atoms: C_18  and  C_20
REMARK   16  A    between atoms: C_18  and  C_21
REMARK   17  A    between atoms: C_22  and  C_23
REMARK   18  A    between atoms: C_22  and  C_24
REMARK   19  A    between atoms: C_22  and  C_25
REMARK   20  A    between atoms: N_27  and  C_28
REMARK                            x       y       z     vdW  Elec       q    Type
REMARK                         _______ _______ _______ _____ _____    ______ ____
ROOT
ATOM      1  C   UNL     1       1.836   6.857  20.214  0.00  0.00    +0.000 C 
ATOM      2  O   UNL     1       1.348   6.344  21.219  0.00  0.00    +0.000 OA
ATOM      3  N   UNL     1       2.588   6.140  19.315  0.00  0.00    +0.000 N 
ATOM      4  H   UNL     1       2.877   6.649  18.492  0.00  0.00    +0.000 HD
ENDROOT
BRANCH   1   5
ATOM      5  C   UNL     1       1.666   8.397  19.924  0.00  0.00    +0.000 C 
BRANCH   5   7
ATOM      6  C   UNL     1       2.508   9.407  17.800  0.00  0.00    +0.000 C 
ATOM      7  N   UNL     1       1.448   8.705  18.483  0.00  0.00    +0.000 NA
ATOM      8  H   UNL     1       1.097   7.900  17.974  0.00  0.00    +0.000 HD
ENDBRANCH   5   7
BRANCH   5   9
ATOM      9  C   UNL     1       0.575   9.127  20.805  0.00  0.00    +0.000 C 
ATOM     10  C   UNL     1      -0.460   8.106  21.344  0.00  0.00    +0.000 C 
ATOM     11  C   UNL     1       1.227   9.681  22.115  0.00  0.00    +0.000 C 
BRANCH   9  12
ATOM     12  C   UNL     1      -0.074  10.311  20.059  0.00  0.00    +0.000 A 
ATOM     13  C   UNL     1      -1.224  10.243  19.277  0.00  0.00    +0.000 A 
ATOM     14  N   UNL     1      -1.428  11.446  18.662  0.00  0.00    +0.000 N 
ATOM     15  C   UNL     1      -2.477  11.713  17.704  0.00  0.00    +0.000 C 
ATOM     16  C   UNL     1      -0.391  12.298  18.955  0.00  0.00    +0.000 A 
ATOM     17  C   UNL     1      -0.090  13.571  18.451  0.00  0.00    +0.000 A 
ATOM     18  C   UNL     1       1.148  14.124  18.785  0.00  0.00    +0.000 A 
ATOM     19  C   UNL     1       1.976  13.506  19.709  0.00  0.00    +0.000 A 
ATOM     20  C   UNL     1       1.583  12.322  20.328  0.00  0.00    +0.000 A 
ATOM     21  C   UNL     1       0.440  11.640  19.869  0.00  0.00    +0.000 A 
ENDBRANCH   9  12
ENDBRANCH   5   9
ENDBRANCH   1   5
BRANCH   3  22
ATOM     22  C   UNL     1       3.183   4.806  19.507  0.00  0.00    +0.000 C 
BRANCH  22  23
ATOM     23  C   UNL     1       4.671   4.688  19.046  0.00  0.00    +0.000 C 
ATOM     24  O   UNL     1       5.475   4.018  19.700  0.00  0.00    +0.000 OA
ATOM     25  N   UNL     1       5.099   5.315  17.873  0.00  0.00    +0.000 N 
ATOM     26  C   UNL     1       4.346   6.237  17.029  0.00  0.00    +0.000 C 
BRANCH  25  27
ATOM     27  C   UNL     1       6.522   5.179  17.529  0.00  0.00    +0.000 C 
BRANCH  27  28
ATOM     28  C   UNL     1       6.846   5.600  16.095  0.00  0.00    +0.000 C 
BRANCH  28  29
ATOM     29  C   UNL     1       6.775   4.446  15.108  0.00  0.00    +0.000 C 
BRANCH  29  30
ATOM     30  C   UNL     1       7.258   4.797  13.728  0.00  0.00    +0.000 C 
ATOM     31  O   UNL     1       8.081   5.667  13.492  0.00  0.00    +0.000 OA
BRANCH  30  32
ATOM     32  O   UNL     1       6.741   4.025  12.757  0.00  0.00    +0.000 OA
ATOM     33  H   UNL     1       6.699   3.084  13.022  0.00  0.00    +0.000 HD
ENDBRANCH  30  32
ENDBRANCH  29  30
ENDBRANCH  28  29
ENDBRANCH  27  28
ENDBRANCH  25  27
ENDBRANCH  22  23
BRANCH  22  34
ATOM     34  C   UNL     1       2.311   3.550  19.083  0.00  0.00    +0.000 C 
ATOM     35  C   UNL     1       1.488   3.942  17.829  0.00  0.00    +0.000 C 
ATOM     36  C   UNL     1       3.211   2.367  18.675  0.00  0.00    +0.000 C 
ATOM     37  C   UNL     1       1.335   3.017  20.147  0.00  0.00    +0.000 C 
ENDBRANCH  22  34
ENDBRANCH   3  22
TORSDOF 12
ENDMDL
