MODEL 1
REMARK VINA RESULT:      -8.1      0.000      0.000
REMARK  Name = 
REMARK  7 active torsions:
REMARK  status: ('A' for Active; 'I' for Inactive)
REMARK    1  A    between atoms: N_3  and  C_4
REMARK    2  A    between atoms: C_9  and  O_10
REMARK    3  A    between atoms: O_10  and  C_11
REMARK    4  A    between atoms: C_11  and  C_12
REMARK    5  A    between atoms: C_12  and  C_13
REMARK    6  A    between atoms: C_13  and  N_14
REMARK    7  A    between atoms: N_20  and  C_21
REMARK                            x       y       z     vdW  Elec       q    Type
REMARK                         _______ _______ _______ _____ _____    ______ ____
ROOT
ATOM      1  C   UNL     1       0.885   9.564  21.633  0.00  0.00    +0.000 A 
ATOM      2  C   UNL     1       0.153   9.133  22.727  0.00  0.00    +0.000 A 
ATOM      3  C   UNL     1      -0.782   9.937  23.369  0.00  0.00    +0.000 A 
ATOM      4  C   UNL     1      -0.973  11.238  22.934  0.00  0.00    +0.000 A 
ATOM      5  C   UNL     1      -0.231  11.721  21.857  0.00  0.00    +0.000 A 
ATOM      6  C   UNL     1       0.688  10.892  21.179  0.00  0.00    +0.000 A 
ENDROOT
BRANCH   1   9
ATOM      7  O   UNL     1       0.512   6.810  20.658  0.00  0.00    +0.000 OA
ATOM      8  C   UNL     1       1.591   7.382  20.642  0.00  0.00    +0.000 C 
ATOM      9  N   UNL     1       1.856   8.671  21.083  0.00  0.00    +0.000 N 
ATOM     10  N   UNL     1       2.695   6.786  20.077  0.00  0.00    +0.000 N 
ATOM     11  H   UNL     1       2.821   8.947  21.185  0.00  0.00    +0.000 HD
ATOM     12  H   UNL     1       3.570   7.242  20.275  0.00  0.00    +0.000 HD
BRANCH  10  13
ATOM     13  C   UNL     1       2.778   5.346  19.780  0.00  0.00    +0.000 C 
ATOM     14  C   UNL     1       2.203   4.383  20.862  0.00  0.00    +0.000 C 
ATOM     15  C   UNL     1       2.318   2.908  20.386  0.00  0.00    +0.000 C 
ATOM     16  C   UNL     1       1.545   2.713  19.071  0.00  0.00    +0.000 C 
ATOM     17  C   UNL     1       2.086   3.670  17.999  0.00  0.00    +0.000 C 
ATOM     18  C   UNL     1       3.573   3.380  17.742  0.00  0.00    +0.000 C 
ATOM     19  C   UNL     1       4.367   3.500  19.050  0.00  0.00    +0.000 C 
ATOM     20  C   UNL     1       3.793   2.561  20.125  0.00  0.00    +0.000 C 
ATOM     21  C   UNL     1       4.258   4.950  19.536  0.00  0.00    +0.000 C 
ATOM     22  C   UNL     1       1.941   5.111  18.498  0.00  0.00    +0.000 C 
ENDBRANCH  10  13
ENDBRANCH   1   9
BRANCH   6  23
ATOM     23  O   UNL     1       1.250  11.514  20.086  0.00  0.00    +0.000 OA
BRANCH  23  24
ATOM     24  C   UNL     1       0.544  11.306  18.863  0.00  0.00    +0.000 C 
BRANCH  24  25
ATOM     25  C   UNL     1      -0.394  12.469  18.540  0.00  0.00    +0.000 C 
BRANCH  25  26
ATOM     26  C   UNL     1      -1.552  12.142  17.575  0.00  0.00    +0.000 C 
BRANCH  26  27
ATOM     27  N   UNL     1      -2.286  10.897  17.876  0.00  0.00    +0.000 NA
ATOM     28  C   UNL     1      -3.733  11.100  18.065  0.00  0.00    +0.000 C 
ATOM     29  C   UNL     1      -4.486  11.534  16.795  0.00  0.00    +0.000 C 
ATOM     30  N   UNL     1      -4.280  10.672  15.628  0.00  0.00    +0.000 NA
ATOM     31  C   UNL     1      -2.919  10.134  15.499  0.00  0.00    +0.000 C 
ATOM     32  C   UNL     1      -2.127   9.885  16.808  0.00  0.00    +0.000 C 
ATOM     33  H   UNL     1      -4.514  11.194  14.783  0.00  0.00    +0.000 HD
ENDBRANCH  26  27
ENDBRANCH  25  26
ENDBRANCH  24  25
ENDBRANCH  23  24
ENDBRANCH   6  23
TORSDOF 7
ENDMDL
MODEL 2
REMARK VINA RESULT:      -8.0      0.692      1.797
REMARK  Name = 
REMARK  7 active torsions:
REMARK  status: ('A' for Active; 'I' for Inactive)
REMARK    1  A    between atoms: N_3  and  C_4
REMARK    2  A    between atoms: C_9  and  O_10
REMARK    3  A    between atoms: O_10  and  C_11
REMARK    4  A    between atoms: C_11  and  C_12
REMARK    5  A    between atoms: C_12  and  C_13
REMARK    6  A    between atoms: C_13  and  N_14
REMARK    7  A    between atoms: N_20  and  C_21
REMARK                            x       y       z     vdW  Elec       q    Type
REMARK                         _______ _______ _______ _____ _____    ______ ____
ROOT
ATOM      1  C   UNL     1       0.889   9.520  21.585  0.00  0.00    +0.000 A 
ATOM      2  C   UNL     1       0.169   9.163  22.714  0.00  0.00    +0.000 A 
ATOM      3  C   UNL     1      -0.769  10.002  23.303  0.00  0.00    +0.000 A 
ATOM      4  C   UNL     1      -0.976  11.266  22.777  0.00  0.00    +0.000 A 
ATOM      5  C   UNL     1      -0.245  11.678  21.663  0.00  0.00    +0.000 A 
ATOM      6  C   UNL     1       0.676  10.811  21.038  0.00  0.00    +0.000 A 
ENDROOT
BRANCH   1   9
ATOM      7  O   UNL     1       0.492   6.785  20.568  0.00  0.00    +0.000 OA
ATOM      8  C   UNL     1       1.588   7.321  20.627  0.00  0.00    +0.000 C 
ATOM      9  N   UNL     1       1.865   8.599  21.094  0.00  0.00    +0.000 N 
ATOM     10  N   UNL     1       2.707   6.692  20.130  0.00  0.00    +0.000 N 
ATOM     11  H   UNL     1       2.829   8.842  21.261  0.00  0.00    +0.000 HD
ATOM     12  H   UNL     1       3.581   7.119  20.389  0.00  0.00    +0.000 HD
BRANCH  10  13
ATOM     13  C   UNL     1       2.762   5.252  19.829  0.00  0.00    +0.000 C 
ATOM     14  C   UNL     1       4.179   4.648  19.595  0.00  0.00    +0.000 C 
ATOM     15  C   UNL     1       4.077   3.119  19.337  0.00  0.00    +0.000 C 
ATOM     16  C   UNL     1       3.421   2.421  20.540  0.00  0.00    +0.000 C 
ATOM     17  C   UNL     1       2.031   3.019  20.798  0.00  0.00    +0.000 C 
ATOM     18  C   UNL     1       1.137   2.815  19.565  0.00  0.00    +0.000 C 
ATOM     19  C   UNL     1       1.794   3.442  18.327  0.00  0.00    +0.000 C 
ATOM     20  C   UNL     1       3.199   2.859  18.101  0.00  0.00    +0.000 C 
ATOM     21  C   UNL     1       1.908   4.952  18.570  0.00  0.00    +0.000 C 
ATOM     22  C   UNL     1       2.175   4.521  21.062  0.00  0.00    +0.000 C 
ENDBRANCH  10  13
ENDBRANCH   1   9
BRANCH   6  23
ATOM     23  O   UNL     1       1.225  11.357  19.899  0.00  0.00    +0.000 OA
BRANCH  23  24
ATOM     24  C   UNL     1       0.351  11.365  18.771  0.00  0.00    +0.000 C 
BRANCH  24  25
ATOM     25  C   UNL     1      -0.325  10.010  18.563  0.00  0.00    +0.000 C 
BRANCH  25  26
ATOM     26  C   UNL     1      -1.778  10.063  18.049  0.00  0.00    +0.000 C 
BRANCH  26  27
ATOM     27  N   UNL     1      -2.279  11.413  17.721  0.00  0.00    +0.000 NA
ATOM     28  C   UNL     1      -2.580  11.596  16.291  0.00  0.00    +0.000 C 
ATOM     29  C   UNL     1      -3.766  10.758  15.778  0.00  0.00    +0.000 C 
ATOM     30  N   UNL     1      -5.007  10.907  16.545  0.00  0.00    +0.000 NA
ATOM     31  C   UNL     1      -4.814  11.057  17.994  0.00  0.00    +0.000 C 
ATOM     32  C   UNL     1      -3.511  11.746  18.470  0.00  0.00    +0.000 C 
ATOM     33  H   UNL     1      -5.605  10.099  16.369  0.00  0.00    +0.000 HD
ENDBRANCH  26  27
ENDBRANCH  25  26
ENDBRANCH  24  25
ENDBRANCH  23  24
ENDBRANCH   6  23
TORSDOF 7
ENDMDL
MODEL 3
REMARK VINA RESULT:      -8.0      0.687      1.153
REMARK  Name = 
REMARK  7 active torsions:
REMARK  status: ('A' for Active; 'I' for Inactive)
REMARK    1  A    between atoms: N_3  and  C_4
REMARK    2  A    between atoms: C_9  and  O_10
REMARK    3  A    between atoms: O_10  and  C_11
REMARK    4  A    between atoms: C_11  and  C_12
REMARK    5  A    between atoms: C_12  and  C_13
REMARK    6  A    between atoms: C_13  and  N_14
REMARK    7  A    between atoms: N_20  and  C_21
REMARK                            x       y       z     vdW  Elec       q    Type
REMARK                         _______ _______ _______ _____ _____    ______ ____
ROOT
ATOM      1  C   UNL     1       0.940   9.579  21.674  0.00  0.00    +0.000 A 
ATOM      2  C   UNL     1       0.191   9.321  22.810  0.00  0.00    +0.000 A 
ATOM      3  C   UNL     1      -0.742  10.219  23.315  0.00  0.00    +0.000 A 
ATOM      4  C   UNL     1      -0.912  11.445  22.692  0.00  0.00    +0.000 A 
ATOM      5  C   UNL     1      -0.151  11.758  21.566  0.00  0.00    +0.000 A 
ATOM      6  C   UNL     1       0.765  10.829  21.028  0.00  0.00    +0.000 A 
ENDROOT
BRANCH   1   9
ATOM      7  O   UNL     1       0.509   7.021  20.281  0.00  0.00    +0.000 OA
ATOM      8  C   UNL     1       1.614   7.420  20.614  0.00  0.00    +0.000 C 
ATOM      9  N   UNL     1       1.906   8.606  21.274  0.00  0.00    +0.000 N 
ATOM     10  N   UNL     1       2.748   6.719  20.270  0.00  0.00    +0.000 N 
ATOM     11  H   UNL     1       2.835   8.719  21.651  0.00  0.00    +0.000 HD
ATOM     12  H   UNL     1       3.587   7.016  20.741  0.00  0.00    +0.000 HD
BRANCH  10  13
ATOM     13  C   UNL     1       2.730   5.318  19.816  0.00  0.00    +0.000 C 
ATOM     14  C   UNL     1       1.941   4.312  20.707  0.00  0.00    +0.000 C 
ATOM     15  C   UNL     1       1.974   2.893  20.076  0.00  0.00    +0.000 C 
ATOM     16  C   UNL     1       1.351   2.923  18.671  0.00  0.00    +0.000 C 
ATOM     17  C   UNL     1       2.104   3.926  17.784  0.00  0.00    +0.000 C 
ATOM     18  C   UNL     1       3.577   3.508  17.659  0.00  0.00    +0.000 C 
ATOM     19  C   UNL     1       4.216   3.402  19.051  0.00  0.00    +0.000 C 
ATOM     20  C   UNL     1       3.431   2.421  19.938  0.00  0.00    +0.000 C 
ATOM     21  C   UNL     1       4.185   4.796  19.690  0.00  0.00    +0.000 C 
ATOM     22  C   UNL     1       2.035   5.312  18.432  0.00  0.00    +0.000 C 
ENDBRANCH  10  13
ENDBRANCH   1   9
BRANCH   6  23
ATOM     23  O   UNL     1       1.348  11.278  19.864  0.00  0.00    +0.000 OA
BRANCH  23  24
ATOM     24  C   UNL     1       0.435  11.457  18.781  0.00  0.00    +0.000 C 
BRANCH  24  25
ATOM     25  C   UNL     1      -0.259  10.151  18.397  0.00  0.00    +0.000 C 
BRANCH  25  26
ATOM     26  C   UNL     1      -1.797  10.219  18.303  0.00  0.00    +0.000 C 
BRANCH  26  27
ATOM     27  N   UNL     1      -2.344  11.524  17.880  0.00  0.00    +0.000 NA
ATOM     28  C   UNL     1      -2.568  11.624  16.428  0.00  0.00    +0.000 C 
ATOM     29  C   UNL     1      -3.678  10.702  15.891  0.00  0.00    +0.000 C 
ATOM     30  N   UNL     1      -4.968  10.822  16.577  0.00  0.00    +0.000 NA
ATOM     31  C   UNL     1      -4.870  11.050  18.025  0.00  0.00    +0.000 C 
ATOM     32  C   UNL     1      -3.633  11.827  18.541  0.00  0.00    +0.000 C 
ATOM     33  H   UNL     1      -5.515   9.977  16.408  0.00  0.00    +0.000 HD
ENDBRANCH  26  27
ENDBRANCH  25  26
ENDBRANCH  24  25
ENDBRANCH  23  24
ENDBRANCH   6  23
TORSDOF 7
ENDMDL
MODEL 4
REMARK VINA RESULT:      -7.9      0.465      1.477
REMARK  Name = 
REMARK  7 active torsions:
REMARK  status: ('A' for Active; 'I' for Inactive)
REMARK    1  A    between atoms: N_3  and  C_4
REMARK    2  A    between atoms: C_9  and  O_10
REMARK    3  A    between atoms: O_10  and  C_11
REMARK    4  A    between atoms: C_11  and  C_12
REMARK    5  A    between atoms: C_12  and  C_13
REMARK    6  A    between atoms: C_13  and  N_14
REMARK    7  A    between atoms: N_20  and  C_21
REMARK                            x       y       z     vdW  Elec       q    Type
REMARK                         _______ _______ _______ _____ _____    ______ ____
ROOT
ATOM      1  C   UNL     1       0.853   9.341  21.495  0.00  0.00    +0.000 A 
ATOM      2  C   UNL     1       0.492   9.091  22.808  0.00  0.00    +0.000 A 
ATOM      3  C   UNL     1      -0.415   9.883  23.502  0.00  0.00    +0.000 A 
ATOM      4  C   UNL     1      -0.959  10.996  22.882  0.00  0.00    +0.000 A 
ATOM      5  C   UNL     1      -0.594  11.303  21.571  0.00  0.00    +0.000 A 
ATOM      6  C   UNL     1       0.294  10.475  20.852  0.00  0.00    +0.000 A 
ENDROOT
BRANCH   1   9
ATOM      7  O   UNL     1       0.588   6.530  20.657  0.00  0.00    +0.000 OA
ATOM      8  C   UNL     1       1.620   7.169  20.527  0.00  0.00    +0.000 C 
ATOM      9  N   UNL     1       1.833   8.490  20.896  0.00  0.00    +0.000 N 
ATOM     10  N   UNL     1       2.711   6.622  19.890  0.00  0.00    +0.000 N 
ATOM     11  H   UNL     1       2.782   8.832  20.904  0.00  0.00    +0.000 HD
ATOM     12  H   UNL     1       3.567   7.143  19.995  0.00  0.00    +0.000 HD
BRANCH  10  13
ATOM     13  C   UNL     1       2.867   5.179  19.641  0.00  0.00    +0.000 C 
ATOM     14  C   UNL     1       4.310   4.683  19.327  0.00  0.00    +0.000 C 
ATOM     15  C   UNL     1       4.319   3.141  19.135  0.00  0.00    +0.000 C 
ATOM     16  C   UNL     1       3.809   2.446  20.408  0.00  0.00    +0.000 C 
ATOM     17  C   UNL     1       2.395   2.939  20.744  0.00  0.00    +0.000 C 
ATOM     18  C   UNL     1       1.438   2.610  19.588  0.00  0.00    +0.000 C 
ATOM     19  C   UNL     1       1.953   3.233  18.283  0.00  0.00    +0.000 C 
ATOM     20  C   UNL     1       3.383   2.756  17.978  0.00  0.00    +0.000 C 
ATOM     21  C   UNL     1       1.955   4.757  18.459  0.00  0.00    +0.000 C 
ATOM     22  C   UNL     1       2.431   4.458  20.940  0.00  0.00    +0.000 C 
ENDBRANCH  10  13
ENDBRANCH   1   9
BRANCH   6  23
ATOM     23  O   UNL     1       0.456  10.884  19.547  0.00  0.00    +0.000 OA
BRANCH  23  24
ATOM     24  C   UNL     1       0.421  12.299  19.366  0.00  0.00    +0.000 C 
BRANCH  24  25
ATOM     25  C   UNL     1      -0.941  12.778  18.866  0.00  0.00    +0.000 C 
BRANCH  25  26
ATOM     26  C   UNL     1      -1.502  12.025  17.642  0.00  0.00    +0.000 C 
BRANCH  26  27
ATOM     27  N   UNL     1      -2.349  10.857  17.957  0.00  0.00    +0.000 NA
ATOM     28  C   UNL     1      -3.782  11.180  18.055  0.00  0.00    +0.000 C 
ATOM     29  C   UNL     1      -4.430  11.607  16.725  0.00  0.00    +0.000 C 
ATOM     30  N   UNL     1      -4.232  10.674  15.612  0.00  0.00    +0.000 NA
ATOM     31  C   UNL     1      -2.913  10.027  15.586  0.00  0.00    +0.000 C 
ATOM     32  C   UNL     1      -2.214   9.784  16.947  0.00  0.00    +0.000 C 
ATOM     33  H   UNL     1      -4.378  11.170  14.732  0.00  0.00    +0.000 HD
ENDBRANCH  26  27
ENDBRANCH  25  26
ENDBRANCH  24  25
ENDBRANCH  23  24
ENDBRANCH   6  23
TORSDOF 7
ENDMDL
MODEL 5
REMARK VINA RESULT:      -7.9      6.248      9.687
REMARK  Name = 
REMARK  7 active torsions:
REMARK  status: ('A' for Active; 'I' for Inactive)
REMARK    1  A    between atoms: N_3  and  C_4
REMARK    2  A    between atoms: C_9  and  O_10
REMARK    3  A    between atoms: O_10  and  C_11
REMARK    4  A    between atoms: C_11  and  C_12
REMARK    5  A    between atoms: C_12  and  C_13
REMARK    6  A    between atoms: C_13  and  N_14
REMARK    7  A    between atoms: N_20  and  C_21
REMARK                            x       y       z     vdW  Elec       q    Type
REMARK                         _______ _______ _______ _____ _____    ______ ____
ROOT
ATOM      1  C   UNL     1       6.724   6.994  17.300  0.00  0.00    +0.000 A 
ATOM      2  C   UNL     1       7.707   6.059  17.580  0.00  0.00    +0.000 A 
ATOM      3  C   UNL     1       7.439   4.700  17.697  0.00  0.00    +0.000 A 
ATOM      4  C   UNL     1       6.135   4.251  17.571  0.00  0.00    +0.000 A 
ATOM      5  C   UNL     1       5.111   5.165  17.324  0.00  0.00    +0.000 A 
ATOM      6  C   UNL     1       5.388   6.539  17.163  0.00  0.00    +0.000 A 
ENDROOT
BRANCH   1   9
ATOM      7  O   UNL     1       8.882   8.362  18.764  0.00  0.00    +0.000 OA
ATOM      8  C   UNL     1       8.144   8.934  17.978  0.00  0.00    +0.000 C 
ATOM      9  N   UNL     1       7.104   8.370  17.252  0.00  0.00    +0.000 N 
ATOM     10  N   UNL     1       8.341  10.260  17.665  0.00  0.00    +0.000 N 
ATOM     11  H   UNL     1       6.461   8.993  16.787  0.00  0.00    +0.000 HD
ATOM     12  H   UNL     1       7.584  10.694  17.163  0.00  0.00    +0.000 HD
BRANCH  10  13
ATOM     13  C   UNL     1       9.180  11.168  18.467  0.00  0.00    +0.000 C 
ATOM     14  C   UNL     1       9.357  10.797  19.970  0.00  0.00    +0.000 C 
ATOM     15  C   UNL     1      10.300  11.816  20.668  0.00  0.00    +0.000 C 
ATOM     16  C   UNL     1      11.676  11.822  19.980  0.00  0.00    +0.000 C 
ATOM     17  C   UNL     1      11.517  12.165  18.492  0.00  0.00    +0.000 C 
ATOM     18  C   UNL     1      10.887  13.558  18.342  0.00  0.00    +0.000 C 
ATOM     19  C   UNL     1       9.540  13.610  19.075  0.00  0.00    +0.000 C 
ATOM     20  C   UNL     1       9.709  13.231  20.556  0.00  0.00    +0.000 C 
ATOM     21  C   UNL     1       8.599  12.604  18.401  0.00  0.00    +0.000 C 
ATOM     22  C   UNL     1      10.595  11.131  17.839  0.00  0.00    +0.000 C 
ENDBRANCH  10  13
ENDBRANCH   1   9
BRANCH   6  23
ATOM     23  O   UNL     1       4.268   7.266  16.828  0.00  0.00    +0.000 OA
BRANCH  23  24
ATOM     24  C   UNL     1       3.420   7.582  17.932  0.00  0.00    +0.000 C 
BRANCH  24  25
ATOM     25  C   UNL     1       2.373   6.496  18.177  0.00  0.00    +0.000 C 
BRANCH  25  26
ATOM     26  C   UNL     1       2.472   5.771  19.534  0.00  0.00    +0.000 C 
BRANCH  26  27
ATOM     27  N   UNL     1       1.470   4.709  19.753  0.00  0.00    +0.000 NA
ATOM     28  C   UNL     1       1.325   3.794  18.608  0.00  0.00    +0.000 C 
ATOM     29  C   UNL     1       2.561   2.918  18.333  0.00  0.00    +0.000 C 
ATOM     30  N   UNL     1       3.049   2.156  19.487  0.00  0.00    +0.000 NA
ATOM     31  C   UNL     1       2.948   2.863  20.771  0.00  0.00    +0.000 C 
ATOM     32  C   UNL     1       1.788   3.878  20.935  0.00  0.00    +0.000 C 
ATOM     33  H   UNL     1       4.022   1.895  19.326  0.00  0.00    +0.000 HD
ENDBRANCH  26  27
ENDBRANCH  25  26
ENDBRANCH  24  25
ENDBRANCH  23  24
ENDBRANCH   6  23
TORSDOF 7
ENDMDL
MODEL 6
REMARK VINA RESULT:      -7.9      6.025      9.683
REMARK  Name = 
REMARK  7 active torsions:
REMARK  status: ('A' for Active; 'I' for Inactive)
REMARK    1  A    between atoms: N_3  and  C_4
REMARK    2  A    between atoms: C_9  and  O_10
REMARK    3  A    between atoms: O_10  and  C_11
REMARK    4  A    between atoms: C_11  and  C_12
REMARK    5  A    between atoms: C_12  and  C_13
REMARK    6  A    between atoms: C_13  and  N_14
REMARK    7  A    between atoms: N_20  and  C_21
REMARK                            x       y       z     vdW  Elec       q    Type
REMARK                         _______ _______ _______ _____ _____    ______ ____
ROOT
ATOM      1  C   UNL     1       6.956   6.321  17.063  0.00  0.00    +0.000 A 
ATOM      2  C   UNL     1       7.537   5.589  16.041  0.00  0.00    +0.000 A 
ATOM      3  C   UNL     1       6.806   4.751  15.208  0.00  0.00    +0.000 A 
ATOM      4  C   UNL     1       5.446   4.599  15.421  0.00  0.00    +0.000 A 
ATOM      5  C   UNL     1       4.829   5.292  16.462  0.00  0.00    +0.000 A 
ATOM      6  C   UNL     1       5.563   6.176  17.281  0.00  0.00    +0.000 A 
ENDROOT
BRANCH   1   9
ATOM      7  O   UNL     1       7.294   9.247  17.098  0.00  0.00    +0.000 OA
ATOM      8  C   UNL     1       7.907   8.497  17.842  0.00  0.00    +0.000 C 
ATOM      9  N   UNL     1       7.812   7.113  17.890  0.00  0.00    +0.000 N 
ATOM     10  N   UNL     1       8.742   8.997  18.815  0.00  0.00    +0.000 N 
ATOM     11  H   UNL     1       8.509   6.610  18.417  0.00  0.00    +0.000 HD
ATOM     12  H   UNL     1       9.342   8.315  19.249  0.00  0.00    +0.000 HD
BRANCH  10  13
ATOM     13  C   UNL     1       9.238  10.384  18.824  0.00  0.00    +0.000 C 
ATOM     14  C   UNL     1       8.247  11.476  18.321  0.00  0.00    +0.000 C 
ATOM     15  C   UNL     1       8.893  12.884  18.435  0.00  0.00    +0.000 C 
ATOM     16  C   UNL     1       9.272  13.177  19.897  0.00  0.00    +0.000 C 
ATOM     17  C   UNL     1      10.234  12.098  20.415  0.00  0.00    +0.000 C 
ATOM     18  C   UNL     1      11.515  12.089  19.568  0.00  0.00    +0.000 C 
ATOM     19  C   UNL     1      11.169  11.866  18.089  0.00  0.00    +0.000 C 
ATOM     20  C   UNL     1      10.179  12.934  17.594  0.00  0.00    +0.000 C 
ATOM     21  C   UNL     1      10.523  10.481  17.962  0.00  0.00    +0.000 C 
ATOM     22  C   UNL     1       9.554  10.729  20.300  0.00  0.00    +0.000 C 
ENDBRANCH  10  13
ENDBRANCH   1   9
BRANCH   6  23
ATOM     23  O   UNL     1       4.766   6.840  18.186  0.00  0.00    +0.000 OA
BRANCH  23  24
ATOM     24  C   UNL     1       3.463   7.160  17.698  0.00  0.00    +0.000 C 
BRANCH  24  25
ATOM     25  C   UNL     1       2.414   7.130  18.809  0.00  0.00    +0.000 C 
BRANCH  25  26
ATOM     26  C   UNL     1       2.529   5.953  19.801  0.00  0.00    +0.000 C 
BRANCH  26  27
ATOM     27  N   UNL     1       1.815   4.724  19.402  0.00  0.00    +0.000 NA
ATOM     28  C   UNL     1       2.693   3.700  18.811  0.00  0.00    +0.000 C 
ATOM     29  C   UNL     1       3.710   3.091  19.794  0.00  0.00    +0.000 C 
ATOM     30  N   UNL     1       3.132   2.560  21.032  0.00  0.00    +0.000 NA
ATOM     31  C   UNL     1       2.007   3.341  21.565  0.00  0.00    +0.000 C 
ATOM     32  C   UNL     1       1.116   4.092  20.543  0.00  0.00    +0.000 C 
ATOM     33  H   UNL     1       3.863   2.501  21.742  0.00  0.00    +0.000 HD
ENDBRANCH  26  27
ENDBRANCH  25  26
ENDBRANCH  24  25
ENDBRANCH  23  24
ENDBRANCH   6  23
TORSDOF 7
ENDMDL
MODEL 7
REMARK VINA RESULT:      -7.8      6.275      9.604
REMARK  Name = 
REMARK  7 active torsions:
REMARK  status: ('A' for Active; 'I' for Inactive)
REMARK    1  A    between atoms: N_3  and  C_4
REMARK    2  A    between atoms: C_9  and  O_10
REMARK    3  A    between atoms: O_10  and  C_11
REMARK    4  A    between atoms: C_11  and  C_12
REMARK    5  A    between atoms: C_12  and  C_13
REMARK    6  A    between atoms: C_13  and  N_14
REMARK    7  A    between atoms: N_20  and  C_21
REMARK                            x       y       z     vdW  Elec       q    Type
REMARK                         _______ _______ _______ _____ _____    ______ ____
ROOT
ATOM      1  C   UNL     1       6.775   7.032  17.343  0.00  0.00    +0.000 A 
ATOM      2  C   UNL     1       7.768   6.120  17.661  0.00  0.00    +0.000 A 
ATOM      3  C   UNL     1       7.531   4.755  17.763  0.00  0.00    +0.000 A 
ATOM      4  C   UNL     1       6.245   4.273  17.582  0.00  0.00    +0.000 A 
ATOM      5  C   UNL     1       5.209   5.162  17.296  0.00  0.00    +0.000 A 
ATOM      6  C   UNL     1       5.458   6.544  17.150  0.00  0.00    +0.000 A 
ENDROOT
BRANCH   1   9
ATOM      7  O   UNL     1       8.952   8.416  18.764  0.00  0.00    +0.000 OA
ATOM      8  C   UNL     1       8.173   8.989  18.018  0.00  0.00    +0.000 C 
ATOM      9  N   UNL     1       7.121   8.418  17.315  0.00  0.00    +0.000 N 
ATOM     10  N   UNL     1       8.329  10.326  17.730  0.00  0.00    +0.000 N 
ATOM     11  H   UNL     1       6.448   9.035  16.888  0.00  0.00    +0.000 HD
ATOM     12  H   UNL     1       7.545  10.753  17.265  0.00  0.00    +0.000 HD
BRANCH  10  13
ATOM     13  C   UNL     1       9.174  11.234  18.523  0.00  0.00    +0.000 C 
ATOM     14  C   UNL     1       9.368  10.863  20.024  0.00  0.00    +0.000 C 
ATOM     15  C   UNL     1      10.317  11.883  20.713  0.00  0.00    +0.000 C 
ATOM     16  C   UNL     1      11.685  11.891  20.011  0.00  0.00    +0.000 C 
ATOM     17  C   UNL     1      11.511  12.235  18.525  0.00  0.00    +0.000 C 
ATOM     18  C   UNL     1      10.877  13.627  18.382  0.00  0.00    +0.000 C 
ATOM     19  C   UNL     1       9.538  13.677  19.129  0.00  0.00    +0.000 C 
ATOM     20  C   UNL     1       9.723  13.297  20.608  0.00  0.00    +0.000 C 
ATOM     21  C   UNL     1       8.591  12.670  18.464  0.00  0.00    +0.000 C 
ATOM     22  C   UNL     1      10.583  11.200  17.880  0.00  0.00    +0.000 C 
ENDBRANCH  10  13
ENDBRANCH   1   9
BRANCH   6  23
ATOM     23  O   UNL     1       4.334   7.244  16.771  0.00  0.00    +0.000 OA
BRANCH  23  24
ATOM     24  C   UNL     1       3.481   7.617  17.852  0.00  0.00    +0.000 C 
BRANCH  24  25
ATOM     25  C   UNL     1       2.368   6.595  18.081  0.00  0.00    +0.000 C 
BRANCH  25  26
ATOM     26  C   UNL     1       2.374   5.904  19.460  0.00  0.00    +0.000 C 
BRANCH  26  27
ATOM     27  N   UNL     1       2.917   4.531  19.472  0.00  0.00    +0.000 NA
ATOM     28  C   UNL     1       2.726   3.835  20.756  0.00  0.00    +0.000 C 
ATOM     29  C   UNL     1       1.257   3.526  21.099  0.00  0.00    +0.000 C 
ATOM     30  N   UNL     1       0.516   2.807  20.058  0.00  0.00    +0.000 NA
ATOM     31  C   UNL     1       0.859   3.199  18.684  0.00  0.00    +0.000 C 
ATOM     32  C   UNL     1       2.308   3.682  18.424  0.00  0.00    +0.000 C 
ATOM     33  H   UNL     1      -0.484   2.946  20.205  0.00  0.00    +0.000 HD
ENDBRANCH  26  27
ENDBRANCH  25  26
ENDBRANCH  24  25
ENDBRANCH  23  24
ENDBRANCH   6  23
TORSDOF 7
ENDMDL
MODEL 8
REMARK VINA RESULT:      -7.8      6.288      8.864
REMARK  Name = 
REMARK  7 active torsions:
REMARK  status: ('A' for Active; 'I' for Inactive)
REMARK    1  A    between atoms: N_3  and  C_4
REMARK    2  A    between atoms: C_9  and  O_10
REMARK    3  A    between atoms: O_10  and  C_11
REMARK    4  A    between atoms: C_11  and  C_12
REMARK    5  A    between atoms: C_12  and  C_13
REMARK    6  A    between atoms: C_13  and  N_14
REMARK    7  A    between atoms: N_20  and  C_21
REMARK                            x       y       z     vdW  Elec       q    Type
REMARK                         _______ _______ _______ _____ _____    ______ ____
ROOT
ATOM      1  C   UNL     1       6.671   7.076  17.358  0.00  0.00    +0.000 A 
ATOM      2  C   UNL     1       7.595   6.051  17.475  0.00  0.00    +0.000 A 
ATOM      3  C   UNL     1       7.224   4.724  17.658  0.00  0.00    +0.000 A 
ATOM      4  C   UNL     1       5.882   4.402  17.770  0.00  0.00    +0.000 A 
ATOM      5  C   UNL     1       4.922   5.411  17.693  0.00  0.00    +0.000 A 
ATOM      6  C   UNL     1       5.295   6.752  17.465  0.00  0.00    +0.000 A 
ENDROOT
BRANCH   1   9
ATOM      7  O   UNL     1       8.769   8.430  18.921  0.00  0.00    +0.000 OA
ATOM      8  C   UNL     1       8.166   8.971  18.006  0.00  0.00    +0.000 C 
ATOM      9  N   UNL     1       7.166   8.410  17.224  0.00  0.00    +0.000 N 
ATOM     10  N   UNL     1       8.504  10.240  17.594  0.00  0.00    +0.000 N 
ATOM     11  H   UNL     1       6.628   9.026  16.633  0.00  0.00    +0.000 HD
ATOM     12  H   UNL     1       7.841  10.672  16.972  0.00  0.00    +0.000 HD
BRANCH  10  13
ATOM     13  C   UNL     1       9.325  11.162  18.396  0.00  0.00    +0.000 C 
ATOM     14  C   UNL     1       9.460  10.828  19.912  0.00  0.00    +0.000 C 
ATOM     15  C   UNL     1      10.389  11.859  20.610  0.00  0.00    +0.000 C 
ATOM     16  C   UNL     1      11.783  11.842  19.960  0.00  0.00    +0.000 C 
ATOM     17  C   UNL     1      11.666  12.150  18.461  0.00  0.00    +0.000 C 
ATOM     18  C   UNL     1      11.047  13.541  18.260  0.00  0.00    +0.000 C 
ATOM     19  C   UNL     1       9.681  13.618  18.955  0.00  0.00    +0.000 C 
ATOM     20  C   UNL     1       9.809  13.274  20.448  0.00  0.00    +0.000 C 
ATOM     21  C   UNL     1       8.753  12.600  18.280  0.00  0.00    +0.000 C 
ATOM     22  C   UNL     1      10.756  11.104  17.807  0.00  0.00    +0.000 C 
ENDBRANCH  10  13
ENDBRANCH   1   9
BRANCH   6  23
ATOM     23  O   UNL     1       4.207   7.585  17.322  0.00  0.00    +0.000 OA
BRANCH  23  24
ATOM     24  C   UNL     1       3.033   7.140  18.001  0.00  0.00    +0.000 C 
BRANCH  24  25
ATOM     25  C   UNL     1       1.890   8.148  17.884  0.00  0.00    +0.000 C 
BRANCH  25  26
ATOM     26  C   UNL     1       1.713   9.095  19.089  0.00  0.00    +0.000 C 
BRANCH  26  27
ATOM     27  N   UNL     1       0.507   9.946  19.046  0.00  0.00    +0.000 NA
ATOM     28  C   UNL     1      -0.316   9.858  20.264  0.00  0.00    +0.000 C 
ATOM     29  C   UNL     1       0.352  10.435  21.526  0.00  0.00    +0.000 C 
ATOM     30  N   UNL     1       0.850  11.807  21.391  0.00  0.00    +0.000 NA
ATOM     31  C   UNL     1       1.424  12.121  20.075  0.00  0.00    +0.000 C 
ATOM     32  C   UNL     1       0.840  11.374  18.849  0.00  0.00    +0.000 C 
ATOM     33  H   UNL     1       1.553  11.978  22.111  0.00  0.00    +0.000 HD
ENDBRANCH  26  27
ENDBRANCH  25  26
ENDBRANCH  24  25
ENDBRANCH  23  24
ENDBRANCH   6  23
TORSDOF 7
ENDMDL
MODEL 9
REMARK VINA RESULT:      -7.8      6.214      9.604
REMARK  Name = 
REMARK  7 active torsions:
REMARK  status: ('A' for Active; 'I' for Inactive)
REMARK    1  A    between atoms: N_3  and  C_4
REMARK    2  A    between atoms: C_9  and  O_10
REMARK    3  A    between atoms: O_10  and  C_11
REMARK    4  A    between atoms: C_11  and  C_12
REMARK    5  A    between atoms: C_12  and  C_13
REMARK    6  A    between atoms: C_13  and  N_14
REMARK    7  A    between atoms: N_20  and  C_21
REMARK                            x       y       z     vdW  Elec       q    Type
REMARK                         _______ _______ _______ _____ _____    ______ ____
ROOT
ATOM      1  C   UNL     1       6.625   7.109  17.339  0.00  0.00    +0.000 A 
ATOM      2  C   UNL     1       7.590   6.116  17.381  0.00  0.00    +0.000 A 
ATOM      3  C   UNL     1       7.277   4.769  17.512  0.00  0.00    +0.000 A 
ATOM      4  C   UNL     1       5.952   4.389  17.646  0.00  0.00    +0.000 A 
ATOM      5  C   UNL     1       4.952   5.361  17.644  0.00  0.00    +0.000 A 
ATOM      6  C   UNL     1       5.266   6.725  17.469  0.00  0.00    +0.000 A 
ENDROOT
BRANCH   1   9
ATOM      7  O   UNL     1       8.865   8.413  18.737  0.00  0.00    +0.000 OA
ATOM      8  C   UNL     1       8.138   9.000  17.950  0.00  0.00    +0.000 C 
ATOM      9  N   UNL     1       7.063   8.466  17.253  0.00  0.00    +0.000 N 
ATOM     10  N   UNL     1       8.388  10.309  17.603  0.00  0.00    +0.000 N 
ATOM     11  H   UNL     1       6.440   9.106  16.784  0.00  0.00    +0.000 HD
ATOM     12  H   UNL     1       7.642  10.764  17.104  0.00  0.00    +0.000 HD
BRANCH  10  13
ATOM     13  C   UNL     1       9.278  11.196  18.371  0.00  0.00    +0.000 C 
ATOM     14  C   UNL     1      10.756  11.282  17.885  0.00  0.00    +0.000 C 
ATOM     15  C   UNL     1      11.554  12.287  18.761  0.00  0.00    +0.000 C 
ATOM     16  C   UNL     1      10.912  13.683  18.683  0.00  0.00    +0.000 C 
ATOM     17  C   UNL     1       9.448  13.613  19.139  0.00  0.00    +0.000 C 
ATOM     18  C   UNL     1       9.376  13.120  20.592  0.00  0.00    +0.000 C 
ATOM     19  C   UNL     1      10.068  11.757  20.722  0.00  0.00    +0.000 C 
ATOM     20  C   UNL     1      11.523  11.834  20.230  0.00  0.00    +0.000 C 
ATOM     21  C   UNL     1       9.295  10.753  19.857  0.00  0.00    +0.000 C 
ATOM     22  C   UNL     1       8.694  12.625  18.243  0.00  0.00    +0.000 C 
ENDBRANCH  10  13
ENDBRANCH   1   9
BRANCH   6  23
ATOM     23  O   UNL     1       4.144   7.519  17.395  0.00  0.00    +0.000 OA
BRANCH  23  24
ATOM     24  C   UNL     1       2.931   6.859  17.759  0.00  0.00    +0.000 C 
BRANCH  24  25
ATOM     25  C   UNL     1       2.508   7.191  19.190  0.00  0.00    +0.000 C 
BRANCH  25  26
ATOM     26  C   UNL     1       2.084   5.987  20.055  0.00  0.00    +0.000 C 
BRANCH  26  27
ATOM     27  N   UNL     1       2.585   4.676  19.595  0.00  0.00    +0.000 NA
ATOM     28  C   UNL     1       3.175   3.862  20.671  0.00  0.00    +0.000 C 
ATOM     29  C   UNL     1       2.167   3.386  21.733  0.00  0.00    +0.000 C 
ATOM     30  N   UNL     1       0.993   2.687  21.203  0.00  0.00    +0.000 NA
ATOM     31  C   UNL     1       0.487   3.222  19.932  0.00  0.00    +0.000 C 
ATOM     32  C   UNL     1       1.519   3.862  18.969  0.00  0.00    +0.000 C 
ATOM     33  H   UNL     1       0.246   2.717  21.898  0.00  0.00    +0.000 HD
ENDBRANCH  26  27
ENDBRANCH  25  26
ENDBRANCH  24  25
ENDBRANCH  23  24
ENDBRANCH   6  23
TORSDOF 7
ENDMDL
