MODEL 1
REMARK VINA RESULT:      -7.7      0.000      0.000
REMARK  Name = 
REMARK  3 active torsions:
REMARK  status: ('A' for Active; 'I' for Inactive)
REMARK    1  A    between atoms: C_2  and  C_15
REMARK    2  A    between atoms: N_3  and  C_4
REMARK    3  A    between atoms: C_4  and  C_5
REMARK                            x       y       z     vdW  Elec       q    Type
REMARK                         _______ _______ _______ _____ _____    ______ ____
ROOT
ATOM      1  O   UNL     1       1.581   5.539  20.558  0.00  0.00    +0.000 OA
ATOM      2  C   UNL     1       2.146   6.522  20.094  0.00  0.00    +0.000 C 
ATOM      3  N   UNL     1       1.771   7.822  20.354  0.00  0.00    +0.000 N 
ATOM      4  H   UNL     1       2.186   8.575  19.818  0.00  0.00    +0.000 HD
ENDROOT
BRANCH   2   5
ATOM      5  C   UNL     1       3.307   6.345  19.173  0.00  0.00    +0.000 A 
ATOM      6  C   UNL     1       3.313   7.030  17.957  0.00  0.00    +0.000 A 
ATOM      7  C   UNL     1       4.376   6.893  17.054  0.00  0.00    +0.000 A 
ATOM      8  C   UNL     1       5.431   6.036  17.402  0.00  0.00    +0.000 A 
ATOM      9  S   UNL     1       6.862   5.655  16.518  0.00  0.00    +0.000 S 
ATOM     10  C   UNL     1       7.350   4.603  17.778  0.00  0.00    +0.000 A 
ATOM     11  N   UNL     1       6.542   4.510  18.809  0.00  0.00    +0.000 NA
ATOM     12  C   UNL     1       5.441   5.327  18.606  0.00  0.00    +0.000 A 
ATOM     13  C   UNL     1       4.362   5.480  19.499  0.00  0.00    +0.000 A 
ENDBRANCH   2   5
BRANCH   3  14
ATOM     14  C   UNL     1       0.693   8.176  21.263  0.00  0.00    +0.000 C 
BRANCH  14  15
ATOM     15  C   UNL     1       0.324   9.680  21.255  0.00  0.00    +0.000 C 
ATOM     16  C   UNL     1      -0.189  10.106  22.641  0.00  0.00    +0.000 C 
ATOM     17  C   UNL     1      -0.605  11.568  22.642  0.00  0.00    +0.000 C 
ATOM     18  C   UNL     1      -1.643  11.827  21.556  0.00  0.00    +0.000 C 
ATOM     19  N   UNL     1      -1.119  11.491  20.227  0.00  0.00    +0.000 NA
ATOM     20  C   UNL     1      -2.145  11.791  19.209  0.00  0.00    +0.000 C 
ATOM     21  C   UNL     1      -1.656  11.520  17.786  0.00  0.00    +0.000 C 
ATOM     22  C   UNL     1      -1.087  10.117  17.651  0.00  0.00    +0.000 C 
ATOM     23  C   UNL     1      -0.051   9.874  18.740  0.00  0.00    +0.000 C 
ATOM     24  C   UNL     1      -0.680  10.073  20.135  0.00  0.00    +0.000 C 
ENDBRANCH  14  15
ENDBRANCH   3  14
TORSDOF 3
ENDMDL
MODEL 2
REMARK VINA RESULT:      -7.7      3.351      7.997
REMARK  Name = 
REMARK  3 active torsions:
REMARK  status: ('A' for Active; 'I' for Inactive)
REMARK    1  A    between atoms: C_2  and  C_15
REMARK    2  A    between atoms: N_3  and  C_4
REMARK    3  A    between atoms: C_4  and  C_5
REMARK                            x       y       z     vdW  Elec       q    Type
REMARK                         _______ _______ _______ _____ _____    ______ ____
ROOT
ATOM      1  O   UNL     1       2.211   9.858  17.462  0.00  0.00    +0.000 OA
ATOM      2  C   UNL     1       1.604   9.280  18.356  0.00  0.00    +0.000 C 
ATOM      3  N   UNL     1       1.728   7.935  18.627  0.00  0.00    +0.000 N 
ATOM      4  H   UNL     1       1.086   7.499  19.279  0.00  0.00    +0.000 HD
ENDROOT
BRANCH   2   5
ATOM      5  C   UNL     1       0.651  10.039  19.217  0.00  0.00    +0.000 A 
ATOM      6  C   UNL     1      -0.305  10.852  18.607  0.00  0.00    +0.000 A 
ATOM      7  C   UNL     1      -1.219  11.591  19.371  0.00  0.00    +0.000 A 
ATOM      8  C   UNL     1      -1.138  11.500  20.769  0.00  0.00    +0.000 A 
ATOM      9  S   UNL     1      -2.101  12.277  21.969  0.00  0.00    +0.000 S 
ATOM     10  C   UNL     1      -1.177  11.515  23.192  0.00  0.00    +0.000 A 
ATOM     11  N   UNL     1      -0.210  10.724  22.787  0.00  0.00    +0.000 NA
ATOM     12  C   UNL     1      -0.179  10.706  21.402  0.00  0.00    +0.000 A 
ATOM     13  C   UNL     1       0.730   9.972  20.616  0.00  0.00    +0.000 A 
ENDBRANCH   2   5
BRANCH   3  14
ATOM     14  C   UNL     1       2.645   7.057  17.918  0.00  0.00    +0.000 C 
BRANCH  14  15
ATOM     15  C   UNL     1       3.504   6.158  18.841  0.00  0.00    +0.000 C 
ATOM     16  C   UNL     1       4.887   5.922  18.210  0.00  0.00    +0.000 C 
ATOM     17  C   UNL     1       5.730   4.999  19.076  0.00  0.00    +0.000 C 
ATOM     18  C   UNL     1       4.996   3.687  19.327  0.00  0.00    +0.000 C 
ATOM     19  N   UNL     1       3.712   3.914  19.999  0.00  0.00    +0.000 NA
ATOM     20  C   UNL     1       3.057   2.615  20.250  0.00  0.00    +0.000 C 
ATOM     21  C   UNL     1       1.733   2.761  21.001  0.00  0.00    +0.000 C 
ATOM     22  C   UNL     1       0.813   3.760  20.317  0.00  0.00    +0.000 C 
ATOM     23  C   UNL     1       1.559   5.065  20.076  0.00  0.00    +0.000 C 
ATOM     24  C   UNL     1       2.820   4.815  19.221  0.00  0.00    +0.000 C 
ENDBRANCH  14  15
ENDBRANCH   3  14
TORSDOF 3
ENDMDL
MODEL 3
REMARK VINA RESULT:      -7.7      3.327      8.072
REMARK  Name = 
REMARK  3 active torsions:
REMARK  status: ('A' for Active; 'I' for Inactive)
REMARK    1  A    between atoms: C_2  and  C_15
REMARK    2  A    between atoms: N_3  and  C_4
REMARK    3  A    between atoms: C_4  and  C_5
REMARK                            x       y       z     vdW  Elec       q    Type
REMARK                         _______ _______ _______ _____ _____    ______ ____
ROOT
ATOM      1  O   UNL     1       1.760   9.249  17.391  0.00  0.00    +0.000 OA
ATOM      2  C   UNL     1       1.856   8.719  18.492  0.00  0.00    +0.000 C 
ATOM      3  N   UNL     1       2.620   7.601  18.746  0.00  0.00    +0.000 N 
ATOM      4  H   UNL     1       2.532   7.133  19.640  0.00  0.00    +0.000 HD
ENDROOT
BRANCH   2   5
ATOM      5  C   UNL     1       1.102   9.277  19.652  0.00  0.00    +0.000 A 
ATOM      6  C   UNL     1       1.134   8.593  20.868  0.00  0.00    +0.000 A 
ATOM      7  C   UNL     1       0.437   9.071  21.986  0.00  0.00    +0.000 A 
ATOM      8  C   UNL     1      -0.306  10.254  21.846  0.00  0.00    +0.000 A 
ATOM      9  S   UNL     1      -1.261  11.086  23.015  0.00  0.00    +0.000 S 
ATOM     10  C   UNL     1      -1.666  12.260  21.836  0.00  0.00    +0.000 A 
ATOM     11  N   UNL     1      -1.149  12.091  20.641  0.00  0.00    +0.000 NA
ATOM     12  C   UNL     1      -0.367  10.947  20.635  0.00  0.00    +0.000 A 
ATOM     13  C   UNL     1       0.341  10.449  19.524  0.00  0.00    +0.000 A 
ENDBRANCH   2   5
BRANCH   3  14
ATOM     14  C   UNL     1       3.453   6.958  17.743  0.00  0.00    +0.000 C 
BRANCH  14  15
ATOM     15  C   UNL     1       3.846   5.500  18.086  0.00  0.00    +0.000 C 
ATOM     16  C   UNL     1       4.488   4.824  16.861  0.00  0.00    +0.000 C 
ATOM     17  C   UNL     1       4.837   3.375  17.160  0.00  0.00    +0.000 C 
ATOM     18  C   UNL     1       3.602   2.618  17.635  0.00  0.00    +0.000 C 
ATOM     19  N   UNL     1       3.040   3.222  18.849  0.00  0.00    +0.000 NA
ATOM     20  C   UNL     1       1.871   2.436  19.289  0.00  0.00    +0.000 C 
ATOM     21  C   UNL     1       1.258   2.970  20.583  0.00  0.00    +0.000 C 
ATOM     22  C   UNL     1       0.962   4.458  20.486  0.00  0.00    +0.000 C 
ATOM     23  C   UNL     1       2.204   5.200  20.014  0.00  0.00    +0.000 C 
ATOM     24  C   UNL     1       2.673   4.650  18.649  0.00  0.00    +0.000 C 
ENDBRANCH  14  15
ENDBRANCH   3  14
TORSDOF 3
ENDMDL
MODEL 4
REMARK VINA RESULT:      -7.7      3.426      8.041
REMARK  Name = 
REMARK  3 active torsions:
REMARK  status: ('A' for Active; 'I' for Inactive)
REMARK    1  A    between atoms: C_2  and  C_15
REMARK    2  A    between atoms: N_3  and  C_4
REMARK    3  A    between atoms: C_4  and  C_5
REMARK                            x       y       z     vdW  Elec       q    Type
REMARK                         _______ _______ _______ _____ _____    ______ ____
ROOT
ATOM      1  O   UNL     1       2.304   8.163  19.160  0.00  0.00    +0.000 OA
ATOM      2  C   UNL     1       1.561   8.117  20.133  0.00  0.00    +0.000 C 
ATOM      3  N   UNL     1       1.489   7.046  20.997  0.00  0.00    +0.000 N 
ATOM      4  H   UNL     1       0.748   7.016  21.688  0.00  0.00    +0.000 HD
ENDROOT
BRANCH   2   5
ATOM      5  C   UNL     1       0.653   9.263  20.429  0.00  0.00    +0.000 A 
ATOM      6  C   UNL     1       0.184  10.041  19.370  0.00  0.00    +0.000 A 
ATOM      7  C   UNL     1      -0.666  11.132  19.594  0.00  0.00    +0.000 A 
ATOM      8  C   UNL     1      -1.023  11.431  20.919  0.00  0.00    +0.000 A 
ATOM      9  S   UNL     1      -2.034  12.692  21.517  0.00  0.00    +0.000 S 
ATOM     10  C   UNL     1      -1.758  12.144  23.115  0.00  0.00    +0.000 A 
ATOM     11  N   UNL     1      -0.978  11.095  23.248  0.00  0.00    +0.000 NA
ATOM     12  C   UNL     1      -0.553  10.677  21.997  0.00  0.00    +0.000 A 
ATOM     13  C   UNL     1       0.300   9.584  21.748  0.00  0.00    +0.000 A 
ENDBRANCH   2   5
BRANCH   3  14
ATOM     14  C   UNL     1       2.334   5.870  20.884  0.00  0.00    +0.000 C 
BRANCH  14  15
ATOM     15  C   UNL     1       1.920   4.897  19.753  0.00  0.00    +0.000 C 
ATOM     16  C   UNL     1       1.054   3.760  20.323  0.00  0.00    +0.000 C 
ATOM     17  C   UNL     1       0.678   2.766  19.237  0.00  0.00    +0.000 C 
ATOM     18  C   UNL     1       1.928   2.228  18.550  0.00  0.00    +0.000 C 
ATOM     19  N   UNL     1       2.709   3.311  17.941  0.00  0.00    +0.000 NA
ATOM     20  C   UNL     1       3.887   2.739  17.261  0.00  0.00    +0.000 C 
ATOM     21  C   UNL     1       4.727   3.800  16.550  0.00  0.00    +0.000 C 
ATOM     22  C   UNL     1       5.087   4.943  17.486  0.00  0.00    +0.000 C 
ATOM     23  C   UNL     1       3.828   5.471  18.161  0.00  0.00    +0.000 C 
ATOM     24  C   UNL     1       3.118   4.339  18.935  0.00  0.00    +0.000 C 
ENDBRANCH  14  15
ENDBRANCH   3  14
TORSDOF 3
ENDMDL
MODEL 5
REMARK VINA RESULT:      -7.6      2.584      3.401
REMARK  Name = 
REMARK  3 active torsions:
REMARK  status: ('A' for Active; 'I' for Inactive)
REMARK    1  A    between atoms: C_2  and  C_15
REMARK    2  A    between atoms: N_3  and  C_4
REMARK    3  A    between atoms: C_4  and  C_5
REMARK                            x       y       z     vdW  Elec       q    Type
REMARK                         _______ _______ _______ _____ _____    ______ ____
ROOT
ATOM      1  O   UNL     1       2.529   8.766  17.261  0.00  0.00    +0.000 OA
ATOM      2  C   UNL     1       2.263   8.034  18.207  0.00  0.00    +0.000 C 
ATOM      3  N   UNL     1       1.634   8.458  19.357  0.00  0.00    +0.000 N 
ATOM      4  H   UNL     1       1.583   7.834  20.153  0.00  0.00    +0.000 HD
ENDROOT
BRANCH   2   5
ATOM      5  C   UNL     1       2.639   6.592  18.157  0.00  0.00    +0.000 A 
ATOM      6  C   UNL     1       3.828   6.227  17.523  0.00  0.00    +0.000 A 
ATOM      7  C   UNL     1       4.224   4.885  17.444  0.00  0.00    +0.000 A 
ATOM      8  C   UNL     1       3.383   3.913  18.009  0.00  0.00    +0.000 A 
ATOM      9  S   UNL     1       3.582   2.202  18.071  0.00  0.00    +0.000 S 
ATOM     10  C   UNL     1       2.088   2.066  18.895  0.00  0.00    +0.000 A 
ATOM     11  N   UNL     1       1.448   3.187  19.134  0.00  0.00    +0.000 NA
ATOM     12  C   UNL     1       2.180   4.252  18.633  0.00  0.00    +0.000 A 
ATOM     13  C   UNL     1       1.802   5.607  18.703  0.00  0.00    +0.000 A 
ENDBRANCH   2   5
BRANCH   3  14
ATOM     14  C   UNL     1       1.158   9.818  19.552  0.00  0.00    +0.000 C 
BRANCH  14  15
ATOM     15  C   UNL     1       0.828  10.169  21.024  0.00  0.00    +0.000 C 
ATOM     16  C   UNL     1      -0.011   9.046  21.659  0.00  0.00    +0.000 C 
ATOM     17  C   UNL     1      -0.389   9.393  23.091  0.00  0.00    +0.000 C 
ATOM     18  C   UNL     1      -1.116  10.732  23.139  0.00  0.00    +0.000 C 
ATOM     19  N   UNL     1      -0.281  11.812  22.602  0.00  0.00    +0.000 NA
ATOM     20  C   UNL     1      -1.013  13.090  22.702  0.00  0.00    +0.000 C 
ATOM     21  C   UNL     1      -0.186  14.279  22.213  0.00  0.00    +0.000 C 
ATOM     22  C   UNL     1       0.375  14.032  20.822  0.00  0.00    +0.000 C 
ATOM     23  C   UNL     1       1.100  12.693  20.790  0.00  0.00    +0.000 C 
ATOM     24  C   UNL     1       0.143  11.553  21.200  0.00  0.00    +0.000 C 
ENDBRANCH  14  15
ENDBRANCH   3  14
TORSDOF 3
ENDMDL
MODEL 6
REMARK VINA RESULT:      -7.6      3.321      8.296
REMARK  Name = 
REMARK  3 active torsions:
REMARK  status: ('A' for Active; 'I' for Inactive)
REMARK    1  A    between atoms: C_2  and  C_15
REMARK    2  A    between atoms: N_3  and  C_4
REMARK    3  A    between atoms: C_4  and  C_5
REMARK                            x       y       z     vdW  Elec       q    Type
REMARK                         _______ _______ _______ _____ _____    ______ ____
ROOT
ATOM      1  O   UNL     1       1.680   9.886  17.858  0.00  0.00    +0.000 OA
ATOM      2  C   UNL     1       1.448   9.280  18.897  0.00  0.00    +0.000 C 
ATOM      3  N   UNL     1       1.885   7.999  19.156  0.00  0.00    +0.000 N 
ATOM      4  H   UNL     1       1.529   7.509  19.968  0.00  0.00    +0.000 HD
ENDROOT
BRANCH   2   5
ATOM      5  C   UNL     1       0.633   9.925  19.966  0.00  0.00    +0.000 A 
ATOM      6  C   UNL     1       0.789   9.495  21.285  0.00  0.00    +0.000 A 
ATOM      7  C   UNL     1       0.043  10.064  22.325  0.00  0.00    +0.000 A 
ATOM      8  C   UNL     1      -0.879  11.073  22.003  0.00  0.00    +0.000 A 
ATOM      9  S   UNL     1      -1.935  11.956  23.040  0.00  0.00    +0.000 S 
ATOM     10  C   UNL     1      -2.537  12.811  21.684  0.00  0.00    +0.000 A 
ATOM     11  N   UNL     1      -2.017  12.502  20.519  0.00  0.00    +0.000 NA
ATOM     12  C   UNL     1      -1.065  11.508  20.689  0.00  0.00    +0.000 A 
ATOM     13  C   UNL     1      -0.304  10.923  19.658  0.00  0.00    +0.000 A 
ENDBRANCH   2   5
BRANCH   3  14
ATOM     14  C   UNL     1       2.727   7.243  18.245  0.00  0.00    +0.000 C 
BRANCH  14  15
ATOM     15  C   UNL     1       3.605   6.170  18.935  0.00  0.00    +0.000 C 
ATOM     16  C   UNL     1       4.874   5.911  18.105  0.00  0.00    +0.000 C 
ATOM     17  C   UNL     1       5.727   4.824  18.740  0.00  0.00    +0.000 C 
ATOM     18  C   UNL     1       4.911   3.550  18.928  0.00  0.00    +0.000 C 
ATOM     19  N   UNL     1       3.743   3.786  19.785  0.00  0.00    +0.000 NA
ATOM     20  C   UNL     1       3.007   2.520  19.966  0.00  0.00    +0.000 C 
ATOM     21  C   UNL     1       1.803   2.670  20.895  0.00  0.00    +0.000 C 
ATOM     22  C   UNL     1       0.903   3.815  20.459  0.00  0.00    +0.000 C 
ATOM     23  C   UNL     1       1.731   5.080  20.278  0.00  0.00    +0.000 C 
ATOM     24  C   UNL     1       2.851   4.845  19.242  0.00  0.00    +0.000 C 
ENDBRANCH  14  15
ENDBRANCH   3  14
TORSDOF 3
ENDMDL
MODEL 7
REMARK VINA RESULT:      -7.6      1.653      2.963
REMARK  Name = 
REMARK  3 active torsions:
REMARK  status: ('A' for Active; 'I' for Inactive)
REMARK    1  A    between atoms: C_2  and  C_15
REMARK    2  A    between atoms: N_3  and  C_4
REMARK    3  A    between atoms: C_4  and  C_5
REMARK                            x       y       z     vdW  Elec       q    Type
REMARK                         _______ _______ _______ _____ _____    ______ ____
ROOT
ATOM      1  O   UNL     1       1.505   5.033  19.957  0.00  0.00    +0.000 OA
ATOM      2  C   UNL     1       2.346   5.761  19.442  0.00  0.00    +0.000 C 
ATOM      3  N   UNL     1       2.498   7.096  19.746  0.00  0.00    +0.000 N 
ATOM      4  H   UNL     1       3.110   7.667  19.175  0.00  0.00    +0.000 HD
ENDROOT
BRANCH   2   5
ATOM      5  C   UNL     1       3.270   5.212  18.408  0.00  0.00    +0.000 A 
ATOM      6  C   UNL     1       3.422   3.829  18.306  0.00  0.00    +0.000 A 
ATOM      7  C   UNL     1       4.282   3.263  17.356  0.00  0.00    +0.000 A 
ATOM      8  C   UNL     1       4.999   4.129  16.515  0.00  0.00    +0.000 A 
ATOM      9  S   UNL     1       6.124   3.750  15.264  0.00  0.00    +0.000 S 
ATOM     10  C   UNL     1       6.348   5.422  14.972  0.00  0.00    +0.000 A 
ATOM     11  N   UNL     1       5.654   6.246  15.722  0.00  0.00    +0.000 NA
ATOM     12  C   UNL     1       4.876   5.517  16.609  0.00  0.00    +0.000 A 
ATOM     13  C   UNL     1       4.005   6.064  17.571  0.00  0.00    +0.000 A 
ENDBRANCH   2   5
BRANCH   3  14
ATOM     14  C   UNL     1       1.715   7.779  20.762  0.00  0.00    +0.000 C 
BRANCH  14  15
ATOM     15  C   UNL     1       0.687   8.790  20.197  0.00  0.00    +0.000 C 
ATOM     16  C   UNL     1       1.213   9.403  18.888  0.00  0.00    +0.000 C 
ATOM     17  C   UNL     1       0.241  10.437  18.342  0.00  0.00    +0.000 C 
ATOM     18  C   UNL     1      -0.041  11.508  19.390  0.00  0.00    +0.000 C 
ATOM     19  N   UNL     1      -0.616  10.924  20.607  0.00  0.00    +0.000 NA
ATOM     20  C   UNL     1      -0.903  12.001  21.575  0.00  0.00    +0.000 C 
ATOM     21  C   UNL     1      -1.558  11.481  22.854  0.00  0.00    +0.000 C 
ATOM     22  C   UNL     1      -0.757  10.341  23.465  0.00  0.00    +0.000 C 
ATOM     23  C   UNL     1      -0.486   9.279  22.408  0.00  0.00    +0.000 C 
ATOM     24  C   UNL     1       0.270   9.893  21.210  0.00  0.00    +0.000 C 
ENDBRANCH  14  15
ENDBRANCH   3  14
TORSDOF 3
ENDMDL
MODEL 8
REMARK VINA RESULT:      -7.5      3.532      8.430
REMARK  Name = 
REMARK  3 active torsions:
REMARK  status: ('A' for Active; 'I' for Inactive)
REMARK    1  A    between atoms: C_2  and  C_15
REMARK    2  A    between atoms: N_3  and  C_4
REMARK    3  A    between atoms: C_4  and  C_5
REMARK                            x       y       z     vdW  Elec       q    Type
REMARK                         _______ _______ _______ _____ _____    ______ ____
ROOT
ATOM      1  O   UNL     1       0.948  10.251  19.860  0.00  0.00    +0.000 OA
ATOM      2  C   UNL     1       0.488   9.922  18.773  0.00  0.00    +0.000 C 
ATOM      3  N   UNL     1       1.189   9.211  17.823  0.00  0.00    +0.000 N 
ATOM      4  H   UNL     1       0.799   9.107  16.894  0.00  0.00    +0.000 HD
ENDROOT
BRANCH   2   5
ATOM      5  C   UNL     1      -0.905  10.310  18.408  0.00  0.00    +0.000 A 
ATOM      6  C   UNL     1      -1.454   9.816  17.224  0.00  0.00    +0.000 A 
ATOM      7  C   UNL     1      -2.756  10.155  16.833  0.00  0.00    +0.000 A 
ATOM      8  C   UNL     1      -3.491  11.019  17.660  0.00  0.00    +0.000 A 
ATOM      9  S   UNL     1      -5.094  11.620  17.458  0.00  0.00    +0.000 S 
ATOM     10  C   UNL     1      -4.937  12.503  18.916  0.00  0.00    +0.000 A 
ATOM     11  N   UNL     1      -3.793  12.388  19.550  0.00  0.00    +0.000 NA
ATOM     12  C   UNL     1      -2.957  11.540  18.841  0.00  0.00    +0.000 A 
ATOM     13  C   UNL     1      -1.646  11.185  19.216  0.00  0.00    +0.000 A 
ENDBRANCH   2   5
BRANCH   3  14
ATOM     14  C   UNL     1       2.539   8.714  18.032  0.00  0.00    +0.000 C 
BRANCH  14  15
ATOM     15  C   UNL     1       2.619   7.193  18.310  0.00  0.00    +0.000 C 
ATOM     16  C   UNL     1       2.115   6.888  19.732  0.00  0.00    +0.000 C 
ATOM     17  C   UNL     1       2.232   5.405  20.044  0.00  0.00    +0.000 C 
ATOM     18  C   UNL     1       3.667   4.930  19.844  0.00  0.00    +0.000 C 
ATOM     19  N   UNL     1       4.115   5.153  18.465  0.00  0.00    +0.000 NA
ATOM     20  C   UNL     1       5.493   4.647  18.312  0.00  0.00    +0.000 C 
ATOM     21  C   UNL     1       6.015   4.792  16.883  0.00  0.00    +0.000 C 
ATOM     22  C   UNL     1       5.852   6.214  16.372  0.00  0.00    +0.000 C 
ATOM     23  C   UNL     1       4.415   6.673  16.576  0.00  0.00    +0.000 C 
ATOM     24  C   UNL     1       4.028   6.584  18.068  0.00  0.00    +0.000 C 
ENDBRANCH  14  15
ENDBRANCH   3  14
TORSDOF 3
ENDMDL
MODEL 9
REMARK VINA RESULT:      -7.5      3.392      8.333
REMARK  Name = 
REMARK  3 active torsions:
REMARK  status: ('A' for Active; 'I' for Inactive)
REMARK    1  A    between atoms: C_2  and  C_15
REMARK    2  A    between atoms: N_3  and  C_4
REMARK    3  A    between atoms: C_4  and  C_5
REMARK                            x       y       z     vdW  Elec       q    Type
REMARK                         _______ _______ _______ _____ _____    ______ ____
ROOT
ATOM      1  O   UNL     1       2.212   9.391  17.525  0.00  0.00    +0.000 OA
ATOM      2  C   UNL     1       1.508   9.140  18.496  0.00  0.00    +0.000 C 
ATOM      3  N   UNL     1       1.739   8.096  19.365  0.00  0.00    +0.000 N 
ATOM      4  H   UNL     1       1.034   7.860  20.053  0.00  0.00    +0.000 HD
ENDROOT
BRANCH   2   5
ATOM      5  C   UNL     1       0.310   9.982  18.781  0.00  0.00    +0.000 A 
ATOM      6  C   UNL     1       0.322  10.811  19.904  0.00  0.00    +0.000 A 
ATOM      7  C   UNL     1      -0.781  11.616  20.221  0.00  0.00    +0.000 A 
ATOM      8  C   UNL     1      -1.905  11.556  19.382  0.00  0.00    +0.000 A 
ATOM      9  S   UNL     1      -3.400  12.407  19.501  0.00  0.00    +0.000 S 
ATOM     10  C   UNL     1      -3.957  11.606  18.095  0.00  0.00    +0.000 A 
ATOM     11  N   UNL     1      -3.126  10.758  17.535  0.00  0.00    +0.000 NA
ATOM     12  C   UNL     1      -1.947  10.722  18.263  0.00  0.00    +0.000 A 
ATOM     13  C   UNL     1      -0.827   9.921  17.963  0.00  0.00    +0.000 A 
ENDBRANCH   2   5
BRANCH   3  14
ATOM     14  C   UNL     1       2.885   7.208  19.262  0.00  0.00    +0.000 C 
BRANCH  14  15
ATOM     15  C   UNL     1       2.710   6.064  18.233  0.00  0.00    +0.000 C 
ATOM     16  C   UNL     1       1.880   4.923  18.847  0.00  0.00    +0.000 C 
ATOM     17  C   UNL     1       1.738   3.767  17.870  0.00  0.00    +0.000 C 
ATOM     18  C   UNL     1       3.111   3.282  17.417  0.00  0.00    +0.000 C 
ATOM     19  N   UNL     1       3.867   4.355  16.763  0.00  0.00    +0.000 NA
ATOM     20  C   UNL     1       5.170   3.829  16.313  0.00  0.00    +0.000 C 
ATOM     21  C   UNL     1       6.000   4.875  15.569  0.00  0.00    +0.000 C 
ATOM     22  C   UNL     1       6.132   6.157  16.375  0.00  0.00    +0.000 C 
ATOM     23  C   UNL     1       4.754   6.631  16.817  0.00  0.00    +0.000 C 
ATOM     24  C   UNL     1       4.050   5.537  17.648  0.00  0.00    +0.000 C 
ENDBRANCH  14  15
ENDBRANCH   3  14
TORSDOF 3
ENDMDL
