MODEL 1
REMARK VINA RESULT:      -8.3      0.000      0.000
REMARK  Name = 
REMARK  8 active torsions:
REMARK  status: ('A' for Active; 'I' for Inactive)
REMARK    1  A    between atoms: O_1  and  C_2
REMARK    2  A    between atoms: C_9  and  C_10
REMARK    3  A    between atoms: C_10  and  O_11
REMARK    4  A    between atoms: O_11  and  C_12
REMARK    5  A    between atoms: N_19  and  C_20
REMARK    6  A    between atoms: C_20  and  C_21
REMARK    7  A    between atoms: C_21  and  C_22
REMARK    8  A    between atoms: C_22  and  C_23
REMARK                            x       y       z     vdW  Elec       q    Type
REMARK                         _______ _______ _______ _____ _____    ______ ____
ROOT
ATOM      1  C   UNL     1       6.968   4.963  14.486  0.00  0.00    +0.000 A 
ATOM      2  C   UNL     1       6.157   3.847  14.243  0.00  0.00    +0.000 A 
ATOM      3  C   UNL     1       5.423   3.286  15.279  0.00  0.00    +0.000 A 
ATOM      4  C   UNL     1       5.468   3.820  16.571  0.00  0.00    +0.000 A 
ATOM      5  C   UNL     1       6.293   4.931  16.818  0.00  0.00    +0.000 A 
ATOM      6  C   UNL     1       7.036   5.511  15.788  0.00  0.00    +0.000 A 
ATOM      7  N   UNL     1       7.755   6.582  16.255  0.00  0.00    +0.000 NA
ATOM      8  C   UNL     1       7.465   6.705  17.535  0.00  0.00    +0.000 A 
ATOM      9  N   UNL     1       6.599   5.686  17.938  0.00  0.00    +0.000 N 
ENDROOT
BRANCH   1  10
ATOM     10  O   UNL     1       7.684   5.517  13.454  0.00  0.00    +0.000 OA
ATOM     11  H   UNL     1       8.444   5.991  13.823  0.00  0.00    +0.000 HD
ENDBRANCH   1  10
BRANCH   8  12
ATOM     12  C   UNL     1       8.060   7.755  18.434  0.00  0.00    +0.000 C 
BRANCH  12  13
ATOM     13  O   UNL     1       8.187   8.978  17.693  0.00  0.00    +0.000 OA
BRANCH  13  14
ATOM     14  C   UNL     1       8.735  10.029  18.385  0.00  0.00    +0.000 A 
ATOM     15  C   UNL     1       8.683  11.270  17.746  0.00  0.00    +0.000 A 
ATOM     16  C   UNL     1       9.197  12.418  18.371  0.00  0.00    +0.000 A 
ATOM     17  C   UNL     1       9.748  12.318  19.646  0.00  0.00    +0.000 A 
ATOM     18 CL   UNL     1      10.376  13.720  20.427  0.00  0.00    +0.000 Cl
ATOM     19  C   UNL     1       9.788  11.089  20.296  0.00  0.00    +0.000 A 
ATOM     20  C   UNL     1       9.285   9.945  19.668  0.00  0.00    +0.000 A 
ENDBRANCH  13  14
ENDBRANCH  12  13
ENDBRANCH   8  12
BRANCH   9  21
ATOM     21  C   UNL     1       6.067   5.524  19.287  0.00  0.00    +0.000 C 
BRANCH  21  22
ATOM     22  C   UNL     1       4.650   4.950  19.446  0.00  0.00    +0.000 C 
BRANCH  22  23
ATOM     23  C   UNL     1       3.581   5.963  19.040  0.00  0.00    +0.000 C 
BRANCH  23  24
ATOM     24  C   UNL     1       2.116   5.463  19.063  0.00  0.00    +0.000 C 
ATOM     25  C   UNL     1       1.634   5.050  20.467  0.00  0.00    +0.000 C 
ATOM     26  C   UNL     1       1.657   3.546  20.734  0.00  0.00    +0.000 C 
ATOM     27  C   UNL     1       1.081   2.766  19.564  0.00  0.00    +0.000 C 
ATOM     28  N   UNL     1       1.892   3.025  18.376  0.00  0.00    +0.000 NA
ATOM     29  C   UNL     1       1.777   4.425  17.970  0.00  0.00    +0.000 C 
ATOM     30  H   UNL     1       1.551   2.433  17.616  0.00  0.00    +0.000 HD
ENDBRANCH  23  24
ENDBRANCH  22  23
ENDBRANCH  21  22
ENDBRANCH   9  21
TORSDOF 8
ENDMDL
MODEL 2
REMARK VINA RESULT:      -8.2      4.348      6.447
REMARK  Name = 
REMARK  8 active torsions:
REMARK  status: ('A' for Active; 'I' for Inactive)
REMARK    1  A    between atoms: O_1  and  C_2
REMARK    2  A    between atoms: C_9  and  C_10
REMARK    3  A    between atoms: C_10  and  O_11
REMARK    4  A    between atoms: O_11  and  C_12
REMARK    5  A    between atoms: N_19  and  C_20
REMARK    6  A    between atoms: C_20  and  C_21
REMARK    7  A    between atoms: C_21  and  C_22
REMARK    8  A    between atoms: C_22  and  C_23
REMARK                            x       y       z     vdW  Elec       q    Type
REMARK                         _______ _______ _______ _____ _____    ______ ____
ROOT
ATOM      1  C   UNL     1       3.223   1.782  18.717  0.00  0.00    +0.000 A 
ATOM      2  C   UNL     1       1.840   1.581  18.643  0.00  0.00    +0.000 A 
ATOM      3  C   UNL     1       0.976   2.665  18.728  0.00  0.00    +0.000 A 
ATOM      4  C   UNL     1       1.462   3.967  18.879  0.00  0.00    +0.000 A 
ATOM      5  C   UNL     1       2.851   4.168  18.969  0.00  0.00    +0.000 A 
ATOM      6  C   UNL     1       3.734   3.090  18.882  0.00  0.00    +0.000 A 
ATOM      7  N   UNL     1       5.033   3.521  18.982  0.00  0.00    +0.000 NA
ATOM      8  C   UNL     1       4.990   4.833  19.103  0.00  0.00    +0.000 A 
ATOM      9  N   UNL     1       3.666   5.275  19.141  0.00  0.00    +0.000 N 
ENDROOT
BRANCH   1  10
ATOM     10  O   UNL     1       4.070   0.705  18.624  0.00  0.00    +0.000 OA
ATOM     11  H   UNL     1       4.022   0.199  19.449  0.00  0.00    +0.000 HD
ENDBRANCH   1  10
BRANCH   8  12
ATOM     12  C   UNL     1       6.208   5.702  19.261  0.00  0.00    +0.000 C 
BRANCH  12  13
ATOM     13  O   UNL     1       6.386   6.468  18.060  0.00  0.00    +0.000 OA
BRANCH  13  14
ATOM     14  C   UNL     1       6.358   5.744  16.894  0.00  0.00    +0.000 A 
ATOM     15  C   UNL     1       5.390   6.130  15.963  0.00  0.00    +0.000 A 
ATOM     16  C   UNL     1       5.284   5.472  14.727  0.00  0.00    +0.000 A 
ATOM     17  C   UNL     1       6.164   4.436  14.422  0.00  0.00    +0.000 A 
ATOM     18 CL   UNL     1       6.050   3.624  12.907  0.00  0.00    +0.000 Cl
ATOM     19  C   UNL     1       7.142   4.057  15.337  0.00  0.00    +0.000 A 
ATOM     20  C   UNL     1       7.240   4.708  16.571  0.00  0.00    +0.000 A 
ENDBRANCH  13  14
ENDBRANCH  12  13
ENDBRANCH   8  12
BRANCH   9  21
ATOM     21  C   UNL     1       3.251   6.668  19.258  0.00  0.00    +0.000 C 
BRANCH  21  22
ATOM     22  C   UNL     1       2.992   7.462  17.967  0.00  0.00    +0.000 C 
BRANCH  22  23
ATOM     23  C   UNL     1       1.702   8.276  18.052  0.00  0.00    +0.000 C 
BRANCH  23  24
ATOM     24  C   UNL     1       1.713   9.480  19.026  0.00  0.00    +0.000 C 
ATOM     25  C   UNL     1       0.692   9.348  20.172  0.00  0.00    +0.000 C 
ATOM     26  C   UNL     1      -0.604  10.129  19.965  0.00  0.00    +0.000 C 
ATOM     27  C   UNL     1      -0.330  11.536  19.462  0.00  0.00    +0.000 C 
ATOM     28  N   UNL     1       0.356  11.454  18.174  0.00  0.00    +0.000 NA
ATOM     29  C   UNL     1       1.683  10.862  18.335  0.00  0.00    +0.000 C 
ATOM     30  H   UNL     1       0.461  12.400  17.802  0.00  0.00    +0.000 HD
ENDBRANCH  23  24
ENDBRANCH  22  23
ENDBRANCH  21  22
ENDBRANCH   9  21
TORSDOF 8
ENDMDL
MODEL 3
REMARK VINA RESULT:      -8.2      3.555      5.636
REMARK  Name = 
REMARK  8 active torsions:
REMARK  status: ('A' for Active; 'I' for Inactive)
REMARK    1  A    between atoms: O_1  and  C_2
REMARK    2  A    between atoms: C_9  and  C_10
REMARK    3  A    between atoms: C_10  and  O_11
REMARK    4  A    between atoms: O_11  and  C_12
REMARK    5  A    between atoms: N_19  and  C_20
REMARK    6  A    between atoms: C_20  and  C_21
REMARK    7  A    between atoms: C_21  and  C_22
REMARK    8  A    between atoms: C_22  and  C_23
REMARK                            x       y       z     vdW  Elec       q    Type
REMARK                         _______ _______ _______ _____ _____    ______ ____
ROOT
ATOM      1  C   UNL     1       1.968   2.384  19.371  0.00  0.00    +0.000 A 
ATOM      2  C   UNL     1       1.169   2.805  20.440  0.00  0.00    +0.000 A 
ATOM      3  C   UNL     1       1.172   4.139  20.825  0.00  0.00    +0.000 A 
ATOM      4  C   UNL     1       1.957   5.084  20.156  0.00  0.00    +0.000 A 
ATOM      5  C   UNL     1       2.771   4.659  19.091  0.00  0.00    +0.000 A 
ATOM      6  C   UNL     1       2.778   3.321  18.689  0.00  0.00    +0.000 A 
ATOM      7  N   UNL     1       3.633   3.140  17.631  0.00  0.00    +0.000 NA
ATOM      8  C   UNL     1       4.139   4.323  17.344  0.00  0.00    +0.000 A 
ATOM      9  N   UNL     1       3.669   5.284  18.242  0.00  0.00    +0.000 N 
ENDROOT
BRANCH   1  10
ATOM     10  O   UNL     1       1.953   1.065  18.992  0.00  0.00    +0.000 OA
ATOM     11  H   UNL     1       1.469   0.987  18.155  0.00  0.00    +0.000 HD
ENDBRANCH   1  10
BRANCH   8  12
ATOM     12  C   UNL     1       5.144   4.564  16.251  0.00  0.00    +0.000 C 
BRANCH  12  13
ATOM     13  O   UNL     1       6.460   4.329  16.773  0.00  0.00    +0.000 OA
BRANCH  13  14
ATOM     14  C   UNL     1       7.069   5.419  17.343  0.00  0.00    +0.000 A 
ATOM     15  C   UNL     1       7.059   6.589  16.578  0.00  0.00    +0.000 A 
ATOM     16  C   UNL     1       7.636   7.770  17.071  0.00  0.00    +0.000 A 
ATOM     17  C   UNL     1       8.209   7.777  18.341  0.00  0.00    +0.000 A 
ATOM     18 CL   UNL     1       8.915   9.221  18.961  0.00  0.00    +0.000 Cl
ATOM     19  C   UNL     1       8.207   6.621  19.115  0.00  0.00    +0.000 A 
ATOM     20  C   UNL     1       7.640   5.443  18.619  0.00  0.00    +0.000 A 
ENDBRANCH  13  14
ENDBRANCH  12  13
ENDBRANCH   8  12
BRANCH   9  21
ATOM     21  C   UNL     1       4.018   6.700  18.212  0.00  0.00    +0.000 C 
BRANCH  21  22
ATOM     22  C   UNL     1       3.174   7.639  17.335  0.00  0.00    +0.000 C 
BRANCH  22  23
ATOM     23  C   UNL     1       1.860   8.019  18.016  0.00  0.00    +0.000 C 
BRANCH  23  24
ATOM     24  C   UNL     1       1.897   9.267  18.932  0.00  0.00    +0.000 C 
ATOM     25  C   UNL     1       1.050   9.111  20.210  0.00  0.00    +0.000 C 
ATOM     26  C   UNL     1      -0.323   9.777  20.151  0.00  0.00    +0.000 C 
ATOM     27  C   UNL     1      -0.238  11.175  19.562  0.00  0.00    +0.000 C 
ATOM     28  N   UNL     1       0.277  11.084  18.197  0.00  0.00    +0.000 NA
ATOM     29  C   UNL     1       1.659  10.606  18.200  0.00  0.00    +0.000 C 
ATOM     30  H   UNL     1       0.252  12.015  17.779  0.00  0.00    +0.000 HD
ENDBRANCH  23  24
ENDBRANCH  22  23
ENDBRANCH  21  22
ENDBRANCH   9  21
TORSDOF 8
ENDMDL
MODEL 4
REMARK VINA RESULT:      -8.2      4.685      7.463
REMARK  Name = 
REMARK  8 active torsions:
REMARK  status: ('A' for Active; 'I' for Inactive)
REMARK    1  A    between atoms: O_1  and  C_2
REMARK    2  A    between atoms: C_9  and  C_10
REMARK    3  A    between atoms: C_10  and  O_11
REMARK    4  A    between atoms: O_11  and  C_12
REMARK    5  A    between atoms: N_19  and  C_20
REMARK    6  A    between atoms: C_20  and  C_21
REMARK    7  A    between atoms: C_21  and  C_22
REMARK    8  A    between atoms: C_22  and  C_23
REMARK                            x       y       z     vdW  Elec       q    Type
REMARK                         _______ _______ _______ _____ _____    ______ ____
ROOT
ATOM      1  C   UNL     1       1.420   3.051  20.196  0.00  0.00    +0.000 A 
ATOM      2  C   UNL     1       1.631   2.107  19.183  0.00  0.00    +0.000 A 
ATOM      3  C   UNL     1       2.084   2.518  17.937  0.00  0.00    +0.000 A 
ATOM      4  C   UNL     1       2.345   3.866  17.669  0.00  0.00    +0.000 A 
ATOM      5  C   UNL     1       2.120   4.815  18.681  0.00  0.00    +0.000 A 
ATOM      6  C   UNL     1       1.667   4.420  19.942  0.00  0.00    +0.000 A 
ATOM      7  N   UNL     1       1.530   5.507  20.768  0.00  0.00    +0.000 NA
ATOM      8  C   UNL     1       1.905   6.562  20.073  0.00  0.00    +0.000 A 
ATOM      9  N   UNL     1       2.239   6.193  18.768  0.00  0.00    +0.000 N 
ENDROOT
BRANCH   1  10
ATOM     10  O   UNL     1       0.981   2.635  21.429  0.00  0.00    +0.000 OA
ATOM     11  H   UNL     1       0.370   3.300  21.781  0.00  0.00    +0.000 HD
ENDBRANCH   1  10
BRANCH   8  12
ATOM     12  C   UNL     1       1.888   7.969  20.607  0.00  0.00    +0.000 C 
BRANCH  12  13
ATOM     13  O   UNL     1       0.714   8.634  20.118  0.00  0.00    +0.000 OA
BRANCH  13  14
ATOM     14  C   UNL     1       0.172   9.567  20.966  0.00  0.00    +0.000 A 
ATOM     15  C   UNL     1      -0.030  10.838  20.421  0.00  0.00    +0.000 A 
ATOM     16  C   UNL     1      -0.597  11.865  21.192  0.00  0.00    +0.000 A 
ATOM     17  C   UNL     1      -0.974  11.608  22.508  0.00  0.00    +0.000 A 
ATOM     18 CL   UNL     1      -1.676  12.857  23.464  0.00  0.00    +0.000 Cl
ATOM     19  C   UNL     1      -0.791  10.341  23.053  0.00  0.00    +0.000 A 
ATOM     20  C   UNL     1      -0.218   9.322  22.286  0.00  0.00    +0.000 A 
ENDBRANCH  13  14
ENDBRANCH  12  13
ENDBRANCH   8  12
BRANCH   9  21
ATOM     21  C   UNL     1       2.706   7.107  17.732  0.00  0.00    +0.000 C 
BRANCH  21  22
ATOM     22  C   UNL     1       4.221   7.263  17.528  0.00  0.00    +0.000 C 
BRANCH  22  23
ATOM     23  C   UNL     1       4.754   6.286  16.480  0.00  0.00    +0.000 C 
BRANCH  23  24
ATOM     24  C   UNL     1       6.027   5.493  16.864  0.00  0.00    +0.000 C 
ATOM     25  C   UNL     1       5.849   4.627  18.127  0.00  0.00    +0.000 C 
ATOM     26  C   UNL     1       6.414   5.240  19.406  0.00  0.00    +0.000 C 
ATOM     27  C   UNL     1       7.797   5.826  19.177  0.00  0.00    +0.000 C 
ATOM     28  N   UNL     1       7.703   6.886  18.175  0.00  0.00    +0.000 NA
ATOM     29  C   UNL     1       7.325   6.332  16.876  0.00  0.00    +0.000 C 
ATOM     30  H   UNL     1       8.618   7.331  18.088  0.00  0.00    +0.000 HD
ENDBRANCH  23  24
ENDBRANCH  22  23
ENDBRANCH  21  22
ENDBRANCH   9  21
TORSDOF 8
ENDMDL
MODEL 5
REMARK VINA RESULT:      -8.1      4.353      6.515
REMARK  Name = 
REMARK  8 active torsions:
REMARK  status: ('A' for Active; 'I' for Inactive)
REMARK    1  A    between atoms: O_1  and  C_2
REMARK    2  A    between atoms: C_9  and  C_10
REMARK    3  A    between atoms: C_10  and  O_11
REMARK    4  A    between atoms: O_11  and  C_12
REMARK    5  A    between atoms: N_19  and  C_20
REMARK    6  A    between atoms: C_20  and  C_21
REMARK    7  A    between atoms: C_21  and  C_22
REMARK    8  A    between atoms: C_22  and  C_23
REMARK                            x       y       z     vdW  Elec       q    Type
REMARK                         _______ _______ _______ _____ _____    ______ ____
ROOT
ATOM      1  C   UNL     1       3.081   1.737  18.711  0.00  0.00    +0.000 A 
ATOM      2  C   UNL     1       1.695   1.542  18.677  0.00  0.00    +0.000 A 
ATOM      3  C   UNL     1       0.839   2.624  18.826  0.00  0.00    +0.000 A 
ATOM      4  C   UNL     1       1.334   3.920  19.003  0.00  0.00    +0.000 A 
ATOM      5  C   UNL     1       2.726   4.114  19.052  0.00  0.00    +0.000 A 
ATOM      6  C   UNL     1       3.602   3.037  18.901  0.00  0.00    +0.000 A 
ATOM      7  N   UNL     1       4.905   3.462  18.972  0.00  0.00    +0.000 NA
ATOM      8  C   UNL     1       4.870   4.769  19.137  0.00  0.00    +0.000 A 
ATOM      9  N   UNL     1       3.550   5.213  19.233  0.00  0.00    +0.000 N 
ENDROOT
BRANCH   1  10
ATOM     10  O   UNL     1       3.921   0.662  18.554  0.00  0.00    +0.000 OA
ATOM     11  H   UNL     1       4.151   0.582  17.616  0.00  0.00    +0.000 HD
ENDBRANCH   1  10
BRANCH   8  12
ATOM     12  C   UNL     1       6.096   5.630  19.282  0.00  0.00    +0.000 C 
BRANCH  12  13
ATOM     13  O   UNL     1       6.164   6.527  18.164  0.00  0.00    +0.000 OA
BRANCH  13  14
ATOM     14  C   UNL     1       6.148   5.928  16.929  0.00  0.00    +0.000 A 
ATOM     15  C   UNL     1       7.150   4.981  16.700  0.00  0.00    +0.000 A 
ATOM     16  C   UNL     1       7.217   4.292  15.478  0.00  0.00    +0.000 A 
ATOM     17  C   UNL     1       6.266   4.546  14.493  0.00  0.00    +0.000 A 
ATOM     18 CL   UNL     1       6.333   3.703  12.993  0.00  0.00    +0.000 Cl
ATOM     19  C   UNL     1       5.255   5.475  14.720  0.00  0.00    +0.000 A 
ATOM     20  C   UNL     1       5.195   6.167  15.934  0.00  0.00    +0.000 A 
ENDBRANCH  13  14
ENDBRANCH  12  13
ENDBRANCH   8  12
BRANCH   9  21
ATOM     21  C   UNL     1       3.144   6.603  19.410  0.00  0.00    +0.000 C 
BRANCH  21  22
ATOM     22  C   UNL     1       2.634   7.374  18.181  0.00  0.00    +0.000 C 
BRANCH  22  23
ATOM     23  C   UNL     1       2.274   8.817  18.529  0.00  0.00    +0.000 C 
BRANCH  23  24
ATOM     24  C   UNL     1       0.919   9.035  19.244  0.00  0.00    +0.000 C 
ATOM     25  C   UNL     1       0.041  10.110  18.576  0.00  0.00    +0.000 C 
ATOM     26  C   UNL     1       0.082  11.479  19.252  0.00  0.00    +0.000 C 
ATOM     27  C   UNL     1      -0.031  11.356  20.761  0.00  0.00    +0.000 C 
ATOM     28  N   UNL     1       1.099  10.575  21.260  0.00  0.00    +0.000 NA
ATOM     29  C   UNL     1       1.023   9.197  20.778  0.00  0.00    +0.000 C 
ATOM     30  H   UNL     1       1.063  10.568  22.281  0.00  0.00    +0.000 HD
ENDBRANCH  23  24
ENDBRANCH  22  23
ENDBRANCH  21  22
ENDBRANCH   9  21
TORSDOF 8
ENDMDL
MODEL 6
REMARK VINA RESULT:      -8.1      4.388      6.606
REMARK  Name = 
REMARK  8 active torsions:
REMARK  status: ('A' for Active; 'I' for Inactive)
REMARK    1  A    between atoms: O_1  and  C_2
REMARK    2  A    between atoms: C_9  and  C_10
REMARK    3  A    between atoms: C_10  and  O_11
REMARK    4  A    between atoms: O_11  and  C_12
REMARK    5  A    between atoms: N_19  and  C_20
REMARK    6  A    between atoms: C_20  and  C_21
REMARK    7  A    between atoms: C_21  and  C_22
REMARK    8  A    between atoms: C_22  and  C_23
REMARK                            x       y       z     vdW  Elec       q    Type
REMARK                         _______ _______ _______ _____ _____    ______ ____
ROOT
ATOM      1  C   UNL     1       3.011   1.761  18.623  0.00  0.00    +0.000 A 
ATOM      2  C   UNL     1       1.632   1.522  18.607  0.00  0.00    +0.000 A 
ATOM      3  C   UNL     1       0.744   2.568  18.820  0.00  0.00    +0.000 A 
ATOM      4  C   UNL     1       1.201   3.870  19.046  0.00  0.00    +0.000 A 
ATOM      5  C   UNL     1       2.587   4.108  19.077  0.00  0.00    +0.000 A 
ATOM      6  C   UNL     1       3.494   3.068  18.861  0.00  0.00    +0.000 A 
ATOM      7  N   UNL     1       4.784   3.532  18.926  0.00  0.00    +0.000 NA
ATOM      8  C   UNL     1       4.710   4.829  19.150  0.00  0.00    +0.000 A 
ATOM      9  N   UNL     1       3.378   5.225  19.291  0.00  0.00    +0.000 N 
ENDROOT
BRANCH   1  10
ATOM     10  O   UNL     1       3.882   0.722  18.402  0.00  0.00    +0.000 OA
ATOM     11  H   UNL     1       3.452  -0.105  18.666  0.00  0.00    +0.000 HD
ENDBRANCH   1  10
BRANCH   8  12
ATOM     12  C   UNL     1       5.910   5.723  19.310  0.00  0.00    +0.000 C 
BRANCH  12  13
ATOM     13  O   UNL     1       5.975   6.613  18.186  0.00  0.00    +0.000 OA
BRANCH  13  14
ATOM     14  C   UNL     1       6.031   6.003  16.957  0.00  0.00    +0.000 A 
ATOM     15  C   UNL     1       7.077   5.094  16.777  0.00  0.00    +0.000 A 
ATOM     16  C   UNL     1       7.218   4.397  15.566  0.00  0.00    +0.000 A 
ATOM     17  C   UNL     1       6.297   4.606  14.542  0.00  0.00    +0.000 A 
ATOM     18 CL   UNL     1       6.454   3.754  13.053  0.00  0.00    +0.000 Cl
ATOM     19  C   UNL     1       5.243   5.497  14.720  0.00  0.00    +0.000 A 
ATOM     20  C   UNL     1       5.109   6.196  15.924  0.00  0.00    +0.000 A 
ENDBRANCH  13  14
ENDBRANCH  12  13
ENDBRANCH   8  12
BRANCH   9  21
ATOM     21  C   UNL     1       2.932   6.591  19.537  0.00  0.00    +0.000 C 
BRANCH  21  22
ATOM     22  C   UNL     1       1.811   6.817  20.564  0.00  0.00    +0.000 C 
BRANCH  22  23
ATOM     23  C   UNL     1       1.620   8.301  20.875  0.00  0.00    +0.000 C 
BRANCH  23  24
ATOM     24  C   UNL     1       0.168   8.764  21.145  0.00  0.00    +0.000 C 
ATOM     25  C   UNL     1      -0.250   9.986  20.305  0.00  0.00    +0.000 C 
ATOM     26  C   UNL     1      -0.186  11.322  21.043  0.00  0.00    +0.000 C 
ATOM     27  C   UNL     1      -0.792  11.217  22.432  0.00  0.00    +0.000 C 
ATOM     28  N   UNL     1      -0.034  10.237  23.208  0.00  0.00    +0.000 NA
ATOM     29  C   UNL     1      -0.194   8.899  22.641  0.00  0.00    +0.000 C 
ATOM     30  H   UNL     1      -0.393  10.234  24.165  0.00  0.00    +0.000 HD
ENDBRANCH  23  24
ENDBRANCH  22  23
ENDBRANCH  21  22
ENDBRANCH   9  21
TORSDOF 8
ENDMDL
MODEL 7
REMARK VINA RESULT:      -8.1      4.393      6.642
REMARK  Name = 
REMARK  8 active torsions:
REMARK  status: ('A' for Active; 'I' for Inactive)
REMARK    1  A    between atoms: O_1  and  C_2
REMARK    2  A    between atoms: C_9  and  C_10
REMARK    3  A    between atoms: C_10  and  O_11
REMARK    4  A    between atoms: O_11  and  C_12
REMARK    5  A    between atoms: N_19  and  C_20
REMARK    6  A    between atoms: C_20  and  C_21
REMARK    7  A    between atoms: C_21  and  C_22
REMARK    8  A    between atoms: C_22  and  C_23
REMARK                            x       y       z     vdW  Elec       q    Type
REMARK                         _______ _______ _______ _____ _____    ______ ____
ROOT
ATOM      1  C   UNL     1       3.096   1.778  18.676  0.00  0.00    +0.000 A 
ATOM      2  C   UNL     1       1.706   1.610  18.707  0.00  0.00    +0.000 A 
ATOM      3  C   UNL     1       0.882   2.700  18.956  0.00  0.00    +0.000 A 
ATOM      4  C   UNL     1       1.414   3.975  19.171  0.00  0.00    +0.000 A 
ATOM      5  C   UNL     1       2.810   4.141  19.155  0.00  0.00    +0.000 A 
ATOM      6  C   UNL     1       3.654   3.057  18.903  0.00  0.00    +0.000 A 
ATOM      7  N   UNL     1       4.967   3.453  18.925  0.00  0.00    +0.000 NA
ATOM      8  C   UNL     1       4.969   4.751  19.157  0.00  0.00    +0.000 A 
ATOM      9  N   UNL     1       3.665   5.214  19.346  0.00  0.00    +0.000 N 
ENDROOT
BRANCH   1  10
ATOM     10  O   UNL     1       3.903   0.697  18.420  0.00  0.00    +0.000 OA
ATOM     11  H   UNL     1       3.957   0.569  17.461  0.00  0.00    +0.000 HD
ENDBRANCH   1  10
BRANCH   8  12
ATOM     12  C   UNL     1       6.219   5.580  19.279  0.00  0.00    +0.000 C 
BRANCH  12  13
ATOM     13  O   UNL     1       6.290   6.474  18.158  0.00  0.00    +0.000 OA
BRANCH  13  14
ATOM     14  C   UNL     1       6.203   5.878  16.925  0.00  0.00    +0.000 A 
ATOM     15  C   UNL     1       7.173   4.909  16.649  0.00  0.00    +0.000 A 
ATOM     16  C   UNL     1       7.168   4.221  15.425  0.00  0.00    +0.000 A 
ATOM     17  C   UNL     1       6.177   4.496  14.486  0.00  0.00    +0.000 A 
ATOM     18 CL   UNL     1       6.155   3.655  12.984  0.00  0.00    +0.000 Cl
ATOM     19  C   UNL     1       5.198   5.446  14.760  0.00  0.00    +0.000 A 
ATOM     20  C   UNL     1       5.210   6.138  15.976  0.00  0.00    +0.000 A 
ENDBRANCH  13  14
ENDBRANCH  12  13
ENDBRANCH   8  12
BRANCH   9  21
ATOM     21  C   UNL     1       3.299   6.600  19.613  0.00  0.00    +0.000 C 
BRANCH  21  22
ATOM     22  C   UNL     1       2.618   7.402  18.493  0.00  0.00    +0.000 C 
BRANCH  22  23
ATOM     23  C   UNL     1       1.726   8.509  19.052  0.00  0.00    +0.000 C 
BRANCH  23  24
ATOM     24  C   UNL     1       1.275   9.600  18.050  0.00  0.00    +0.000 C 
ATOM     25  C   UNL     1       2.194  10.836  18.040  0.00  0.00    +0.000 C 
ATOM     26  C   UNL     1       1.675  12.026  18.844  0.00  0.00    +0.000 C 
ATOM     27  C   UNL     1       0.201  12.276  18.576  0.00  0.00    +0.000 C 
ATOM     28  N   UNL     1      -0.562  11.095  18.976  0.00  0.00    +0.000 NA
ATOM     29  C   UNL     1      -0.227   9.955  18.124  0.00  0.00    +0.000 C 
ATOM     30  H   UNL     1      -1.557  11.302  18.872  0.00  0.00    +0.000 HD
ENDBRANCH  23  24
ENDBRANCH  22  23
ENDBRANCH  21  22
ENDBRANCH   9  21
TORSDOF 8
ENDMDL
MODEL 8
REMARK VINA RESULT:      -7.9      4.764      7.449
REMARK  Name = 
REMARK  8 active torsions:
REMARK  status: ('A' for Active; 'I' for Inactive)
REMARK    1  A    between atoms: O_1  and  C_2
REMARK    2  A    between atoms: C_9  and  C_10
REMARK    3  A    between atoms: C_10  and  O_11
REMARK    4  A    between atoms: O_11  and  C_12
REMARK    5  A    between atoms: N_19  and  C_20
REMARK    6  A    between atoms: C_20  and  C_21
REMARK    7  A    between atoms: C_21  and  C_22
REMARK    8  A    between atoms: C_22  and  C_23
REMARK                            x       y       z     vdW  Elec       q    Type
REMARK                         _______ _______ _______ _____ _____    ______ ____
ROOT
ATOM      1  C   UNL     1       0.177  10.851  20.660  0.00  0.00    +0.000 A 
ATOM      2  C   UNL     1      -0.269  10.792  21.986  0.00  0.00    +0.000 A 
ATOM      3  C   UNL     1      -0.048   9.648  22.741  0.00  0.00    +0.000 A 
ATOM      4  C   UNL     1       0.625   8.545  22.205  0.00  0.00    +0.000 A 
ATOM      5  C   UNL     1       1.060   8.599  20.869  0.00  0.00    +0.000 A 
ATOM      6  C   UNL     1       0.849   9.742  20.095  0.00  0.00    +0.000 A 
ATOM      7  N   UNL     1       1.364   9.574  18.835  0.00  0.00    +0.000 NA
ATOM      8  C   UNL     1       1.910   8.375  18.805  0.00  0.00    +0.000 A 
ATOM      9  N   UNL     1       1.713   7.719  20.022  0.00  0.00    +0.000 N 
ENDROOT
BRANCH   1  10
ATOM     10  O   UNL     1      -0.038  11.989  19.923  0.00  0.00    +0.000 OA
ATOM     11  H   UNL     1       0.149  11.797  18.992  0.00  0.00    +0.000 HD
ENDBRANCH   1  10
BRANCH   8  12
ATOM     12  C   UNL     1       2.575   7.785  17.590  0.00  0.00    +0.000 C 
BRANCH  12  13
ATOM     13  O   UNL     1       3.868   7.289  17.967  0.00  0.00    +0.000 OA
BRANCH  13  14
ATOM     14  C   UNL     1       4.469   6.461  17.052  0.00  0.00    +0.000 A 
ATOM     15  C   UNL     1       4.205   5.097  17.203  0.00  0.00    +0.000 A 
ATOM     16  C   UNL     1       4.752   4.160  16.311  0.00  0.00    +0.000 A 
ATOM     17  C   UNL     1       5.551   4.599  15.258  0.00  0.00    +0.000 A 
ATOM     18 CL   UNL     1       6.223   3.462  14.153  0.00  0.00    +0.000 Cl
ATOM     19  C   UNL     1       5.804   5.957  15.091  0.00  0.00    +0.000 A 
ATOM     20  C   UNL     1       5.266   6.888  15.986  0.00  0.00    +0.000 A 
ENDBRANCH  13  14
ENDBRANCH  12  13
ENDBRANCH   8  12
BRANCH   9  21
ATOM     21  C   UNL     1       2.195   6.380  20.339  0.00  0.00    +0.000 C 
BRANCH  21  22
ATOM     22  C   UNL     1       1.579   5.188  19.589  0.00  0.00    +0.000 C 
BRANCH  22  23
ATOM     23  C   UNL     1       0.953   4.178  20.550  0.00  0.00    +0.000 C 
BRANCH  23  24
ATOM     24  C   UNL     1       1.424   2.710  20.407  0.00  0.00    +0.000 C 
ATOM     25  C   UNL     1       2.868   2.482  20.894  0.00  0.00    +0.000 C 
ATOM     26  C   UNL     1       3.916   2.432  19.784  0.00  0.00    +0.000 C 
ATOM     27  C   UNL     1       3.451   1.574  18.620  0.00  0.00    +0.000 C 
ATOM     28  N   UNL     1       2.231   2.154  18.060  0.00  0.00    +0.000 NA
ATOM     29  C   UNL     1       1.137   2.077  19.026  0.00  0.00    +0.000 C 
ATOM     30  H   UNL     1       1.973   1.622  17.227  0.00  0.00    +0.000 HD
ENDBRANCH  23  24
ENDBRANCH  22  23
ENDBRANCH  21  22
ENDBRANCH   9  21
TORSDOF 8
ENDMDL
MODEL 9
REMARK VINA RESULT:      -7.9      0.841      1.527
REMARK  Name = 
REMARK  8 active torsions:
REMARK  status: ('A' for Active; 'I' for Inactive)
REMARK    1  A    between atoms: O_1  and  C_2
REMARK    2  A    between atoms: C_9  and  C_10
REMARK    3  A    between atoms: C_10  and  O_11
REMARK    4  A    between atoms: O_11  and  C_12
REMARK    5  A    between atoms: N_19  and  C_20
REMARK    6  A    between atoms: C_20  and  C_21
REMARK    7  A    between atoms: C_21  and  C_22
REMARK    8  A    between atoms: C_22  and  C_23
REMARK                            x       y       z     vdW  Elec       q    Type
REMARK                         _______ _______ _______ _____ _____    ______ ____
ROOT
ATOM      1  C   UNL     1       7.150   4.973  14.272  0.00  0.00    +0.000 A 
ATOM      2  C   UNL     1       6.290   3.922  13.931  0.00  0.00    +0.000 A 
ATOM      3  C   UNL     1       5.348   3.473  14.847  0.00  0.00    +0.000 A 
ATOM      4  C   UNL     1       5.232   4.058  16.112  0.00  0.00    +0.000 A 
ATOM      5  C   UNL     1       6.104   5.104  16.459  0.00  0.00    +0.000 A 
ATOM      6  C   UNL     1       7.056   5.571  15.550  0.00  0.00    +0.000 A 
ATOM      7  N   UNL     1       7.785   6.596  16.097  0.00  0.00    +0.000 NA
ATOM      8  C   UNL     1       7.303   6.801  17.307  0.00  0.00    +0.000 A 
ATOM      9  N   UNL     1       6.293   5.879  17.592  0.00  0.00    +0.000 N 
ENDROOT
BRANCH   1  10
ATOM     10  O   UNL     1       8.073   5.417  13.357  0.00  0.00    +0.000 OA
ATOM     11  H   UNL     1       8.016   4.862  12.564  0.00  0.00    +0.000 HD
ENDBRANCH   1  10
BRANCH   8  12
ATOM     12  C   UNL     1       7.839   7.834  18.261  0.00  0.00    +0.000 C 
BRANCH  12  13
ATOM     13  O   UNL     1       8.157   9.022  17.521  0.00  0.00    +0.000 OA
BRANCH  13  14
ATOM     14  C   UNL     1       8.631  10.070  18.270  0.00  0.00    +0.000 A 
ATOM     15  C   UNL     1       9.090   9.744  19.550  0.00  0.00    +0.000 A 
ATOM     16  C   UNL     1       9.615  10.735  20.395  0.00  0.00    +0.000 A 
ATOM     17  C   UNL     1       9.691  12.051  19.946  0.00  0.00    +0.000 A 
ATOM     18 CL   UNL     1      10.338  13.276  20.971  0.00  0.00    +0.000 Cl
ATOM     19  C   UNL     1       9.252  12.381  18.668  0.00  0.00    +0.000 A 
ATOM     20  C   UNL     1       8.721  11.394  17.831  0.00  0.00    +0.000 A 
ENDBRANCH  13  14
ENDBRANCH  12  13
ENDBRANCH   8  12
BRANCH   9  21
ATOM     21  C   UNL     1       5.536   5.824  18.837  0.00  0.00    +0.000 C 
BRANCH  21  22
ATOM     22  C   UNL     1       4.002   5.767  18.755  0.00  0.00    +0.000 C 
BRANCH  22  23
ATOM     23  C   UNL     1       3.381   5.318  20.076  0.00  0.00    +0.000 C 
BRANCH  23  24
ATOM     24  C   UNL     1       3.003   3.821  20.185  0.00  0.00    +0.000 C 
ATOM     25  C   UNL     1       3.108   3.067  18.845  0.00  0.00    +0.000 C 
ATOM     26  C   UNL     1       1.778   2.865  18.120  0.00  0.00    +0.000 C 
ATOM     27  C   UNL     1       0.691   2.403  19.074  0.00  0.00    +0.000 C 
ATOM     28  N   UNL     1       0.492   3.425  20.100  0.00  0.00    +0.000 NA
ATOM     29  C   UNL     1       1.683   3.547  20.940  0.00  0.00    +0.000 C 
ATOM     30  H   UNL     1      -0.296   3.147  20.686  0.00  0.00    +0.000 HD
ENDBRANCH  23  24
ENDBRANCH  22  23
ENDBRANCH  21  22
ENDBRANCH   9  21
TORSDOF 8
ENDMDL
