MODEL 1
REMARK VINA RESULT:      -7.4      0.000      0.000
REMARK  Name = 
REMARK  6 active torsions:
REMARK  status: ('A' for Active; 'I' for Inactive)
REMARK    1  A    between atoms: C_1  and  C_2
REMARK    2  A    between atoms: C_5  and  C_6
REMARK    3  A    between atoms: C_13  and  C_14
REMARK    4  A    between atoms: C_19  and  C_20
REMARK    5  A    between atoms: C_22  and  C_23
REMARK    6  A    between atoms: C_25  and  C_26
REMARK                            x       y       z     vdW  Elec       q    Type
REMARK                         _______ _______ _______ _____ _____    ______ ____
ROOT
ATOM      1  C   UNL     1       0.310  11.622  20.177  0.00  0.00    +0.000 C 
ATOM      2  C   UNL     1       0.614  11.734  18.674  0.00  0.00    +0.000 C 
ATOM      3  C   UNL     1       1.756  10.848  18.268  0.00  0.00    +0.000 C 
ATOM      4  O   UNL     1       2.548  11.098  17.372  0.00  0.00    +0.000 OA
ATOM      5  N   UNL     1       1.833   9.559  18.855  0.00  0.00    +0.000 N 
ATOM      6  C   UNL     1       1.088   9.257  19.978  0.00  0.00    +0.000 A 
ATOM      7  C   UNL     1       0.348  10.201  20.646  0.00  0.00    +0.000 A 
ATOM      8  C   UNL     1      -0.067   9.520  21.825  0.00  0.00    +0.000 A 
ATOM      9  C   UNL     1      -0.699  10.047  23.065  0.00  0.00    +0.000 C 
ATOM     10  N   UNL     1       0.242   8.213  21.782  0.00  0.00    +0.000 NA
ATOM     11  N   UNL     1       1.014   8.071  20.671  0.00  0.00    +0.000 N 
ATOM     12  C   UNL     1       1.728   6.881  20.330  0.00  0.00    +0.000 A 
ATOM     13  N   UNL     1       1.477   5.753  21.017  0.00  0.00    +0.000 NA
ATOM     14  C   UNL     1       2.219   4.672  20.712  0.00  0.00    +0.000 A 
ATOM     15  C   UNL     1       1.915   3.402  21.450  0.00  0.00    +0.000 C 
ATOM     16  C   UNL     1       3.232   4.710  19.772  0.00  0.00    +0.000 A 
ATOM     17  C   UNL     1       3.430   5.907  19.114  0.00  0.00    +0.000 A 
ATOM     18  C   UNL     1       4.559   6.073  18.140  0.00  0.00    +0.000 C 
ATOM     19  N   UNL     1       2.666   6.995  19.350  0.00  0.00    +0.000 NA
ATOM     20  H   UNL     1       2.482   8.864  18.489  0.00  0.00    +0.000 HD
ENDROOT
BRANCH   1  25
ATOM     21  C   UNL     1      -4.946  14.106  20.909  0.00  0.00    +0.000 C 
ATOM     22  C   UNL     1      -3.614  13.431  20.758  0.00  0.00    +0.000 A 
ATOM     23  C   UNL     1      -3.423  12.415  19.827  0.00  0.00    +0.000 A 
ATOM     24  C   UNL     1      -2.170  11.815  19.692  0.00  0.00    +0.000 A 
ATOM     25  C   UNL     1      -1.058  12.219  20.470  0.00  0.00    +0.000 A 
ATOM     26  C   UNL     1      -1.256  13.243  21.422  0.00  0.00    +0.000 A 
ATOM     27  C   UNL     1      -0.194  13.791  22.342  0.00  0.00    +0.000 C 
ATOM     28  C   UNL     1      -2.536  13.825  21.557  0.00  0.00    +0.000 A 
ENDBRANCH   1  25
TORSDOF 1
ENDMDL
MODEL 2
REMARK VINA RESULT:      -6.9      0.410      1.367
REMARK  Name = 
REMARK  6 active torsions:
REMARK  status: ('A' for Active; 'I' for Inactive)
REMARK    1  A    between atoms: C_1  and  C_2
REMARK    2  A    between atoms: C_5  and  C_6
REMARK    3  A    between atoms: C_13  and  C_14
REMARK    4  A    between atoms: C_19  and  C_20
REMARK    5  A    between atoms: C_22  and  C_23
REMARK    6  A    between atoms: C_25  and  C_26
REMARK                            x       y       z     vdW  Elec       q    Type
REMARK                         _______ _______ _______ _____ _____    ______ ____
ROOT
ATOM      1  C   UNL     1       0.370  11.780  20.296  0.00  0.00    +0.000 C 
ATOM      2  C   UNL     1       0.683  11.941  18.799  0.00  0.00    +0.000 C 
ATOM      3  C   UNL     1       1.799  11.038  18.360  0.00  0.00    +0.000 C 
ATOM      4  O   UNL     1       2.601  11.299  17.477  0.00  0.00    +0.000 OA
ATOM      5  N   UNL     1       1.835   9.725  18.896  0.00  0.00    +0.000 N 
ATOM      6  C   UNL     1       1.078   9.402  20.005  0.00  0.00    +0.000 A 
ATOM      7  C   UNL     1       0.364  10.341  20.708  0.00  0.00    +0.000 A 
ATOM      8  C   UNL     1      -0.075   9.627  21.858  0.00  0.00    +0.000 A 
ATOM      9  C   UNL     1      -0.695  10.123  23.117  0.00  0.00    +0.000 C 
ATOM     10  N   UNL     1       0.195   8.314  21.765  0.00  0.00    +0.000 NA
ATOM     11  N   UNL     1       0.966   8.193  20.651  0.00  0.00    +0.000 N 
ATOM     12  C   UNL     1       1.645   6.995  20.264  0.00  0.00    +0.000 A 
ATOM     13  N   UNL     1       1.358   5.849  20.905  0.00  0.00    +0.000 NA
ATOM     14  C   UNL     1       2.068   4.759  20.559  0.00  0.00    +0.000 A 
ATOM     15  C   UNL     1       1.724   3.471  21.246  0.00  0.00    +0.000 C 
ATOM     16  C   UNL     1       3.085   4.804  19.624  0.00  0.00    +0.000 A 
ATOM     17  C   UNL     1       3.320   6.019  19.014  0.00  0.00    +0.000 A 
ATOM     18  C   UNL     1       4.457   6.190  18.049  0.00  0.00    +0.000 C 
ATOM     19  N   UNL     1       2.589   7.120  19.291  0.00  0.00    +0.000 NA
ATOM     20  H   UNL     1       2.465   9.026  18.504  0.00  0.00    +0.000 HD
ENDROOT
BRANCH   1  25
ATOM     21  C   UNL     1      -4.831  13.965  21.878  0.00  0.00    +0.000 C 
ATOM     22  C   UNL     1      -3.490  13.450  21.441  0.00  0.00    +0.000 A 
ATOM     23  C   UNL     1      -2.330  13.785  22.131  0.00  0.00    +0.000 A 
ATOM     24  C   UNL     1      -1.097  13.279  21.717  0.00  0.00    +0.000 A 
ATOM     25  C   UNL     1      -0.980  12.406  20.609  0.00  0.00    +0.000 A 
ATOM     26  C   UNL     1      -2.157  12.074  19.903  0.00  0.00    +0.000 A 
ATOM     27  C   UNL     1      -2.221  11.171  18.696  0.00  0.00    +0.000 C 
ATOM     28  C   UNL     1      -3.392  12.612  20.325  0.00  0.00    +0.000 A 
ENDBRANCH   1  25
TORSDOF 1
ENDMDL
MODEL 3
REMARK VINA RESULT:      -6.7      4.831      7.887
REMARK  Name = 
REMARK  6 active torsions:
REMARK  status: ('A' for Active; 'I' for Inactive)
REMARK    1  A    between atoms: C_1  and  C_2
REMARK    2  A    between atoms: C_5  and  C_6
REMARK    3  A    between atoms: C_13  and  C_14
REMARK    4  A    between atoms: C_19  and  C_20
REMARK    5  A    between atoms: C_22  and  C_23
REMARK    6  A    between atoms: C_25  and  C_26
REMARK                            x       y       z     vdW  Elec       q    Type
REMARK                         _______ _______ _______ _____ _____    ______ ____
ROOT
ATOM      1  C   UNL     1      -0.923  12.444  19.168  0.00  0.00    +0.000 C 
ATOM      2  C   UNL     1      -1.651  12.199  17.836  0.00  0.00    +0.000 C 
ATOM      3  C   UNL     1      -2.946  11.465  18.034  0.00  0.00    +0.000 C 
ATOM      4  O   UNL     1      -3.434  10.683  17.232  0.00  0.00    +0.000 OA
ATOM      5  N   UNL     1      -3.739  11.816  19.157  0.00  0.00    +0.000 N 
ATOM      6  C   UNL     1      -3.200  12.560  20.188  0.00  0.00    +0.000 A 
ATOM      7  C   UNL     1      -1.867  12.885  20.243  0.00  0.00    +0.000 A 
ATOM      8  C   UNL     1      -1.720  13.451  21.540  0.00  0.00    +0.000 A 
ATOM      9  C   UNL     1      -0.489  13.791  22.305  0.00  0.00    +0.000 C 
ATOM     10  N   UNL     1      -2.906  13.624  22.148  0.00  0.00    +0.000 NA
ATOM     11  N   UNL     1      -3.809  13.010  21.336  0.00  0.00    +0.000 N 
ATOM     12  C   UNL     1      -5.178  12.780  21.678  0.00  0.00    +0.000 A 
ATOM     13  N   UNL     1      -5.683  13.376  22.772  0.00  0.00    +0.000 NA
ATOM     14  C   UNL     1      -6.955  13.079  23.099  0.00  0.00    +0.000 A 
ATOM     15  C   UNL     1      -7.534  13.771  24.296  0.00  0.00    +0.000 C 
ATOM     16  C   UNL     1      -7.710  12.168  22.385  0.00  0.00    +0.000 A 
ATOM     17  C   UNL     1      -7.117  11.596  21.277  0.00  0.00    +0.000 A 
ATOM     18  C   UNL     1      -7.822  10.533  20.487  0.00  0.00    +0.000 C 
ATOM     19  N   UNL     1      -5.865  11.915  20.884  0.00  0.00    +0.000 NA
ATOM     20  H   UNL     1      -4.695  11.473  19.239  0.00  0.00    +0.000 HD
ENDROOT
BRANCH   1  25
ATOM     21  C   UNL     1       3.037  16.618  18.060  0.00  0.00    +0.000 C 
ATOM     22  C   UNL     1       2.035  15.553  18.397  0.00  0.00    +0.000 A 
ATOM     23  C   UNL     1       0.721  15.876  18.720  0.00  0.00    +0.000 A 
ATOM     24  C   UNL     1      -0.198  14.867  19.012  0.00  0.00    +0.000 A 
ATOM     25  C   UNL     1       0.158  13.498  18.976  0.00  0.00    +0.000 A 
ATOM     26  C   UNL     1       1.494  13.170  18.659  0.00  0.00    +0.000 A 
ATOM     27  C   UNL     1       2.052  11.771  18.585  0.00  0.00    +0.000 C 
ATOM     28  C   UNL     1       2.414  14.206  18.385  0.00  0.00    +0.000 A 
ENDBRANCH   1  25
TORSDOF 1
ENDMDL
MODEL 4
REMARK VINA RESULT:      -6.7      3.275      8.174
REMARK  Name = 
REMARK  6 active torsions:
REMARK  status: ('A' for Active; 'I' for Inactive)
REMARK    1  A    between atoms: C_1  and  C_2
REMARK    2  A    between atoms: C_5  and  C_6
REMARK    3  A    between atoms: C_13  and  C_14
REMARK    4  A    between atoms: C_19  and  C_20
REMARK    5  A    between atoms: C_22  and  C_23
REMARK    6  A    between atoms: C_25  and  C_26
REMARK                            x       y       z     vdW  Elec       q    Type
REMARK                         _______ _______ _______ _____ _____    ______ ____
ROOT
ATOM      1  C   UNL     1       0.402  11.222  20.082  0.00  0.00    +0.000 C 
ATOM      2  C   UNL     1       0.629  11.740  21.512  0.00  0.00    +0.000 C 
ATOM      3  C   UNL     1      -0.130  13.009  21.773  0.00  0.00    +0.000 C 
ATOM      4  O   UNL     1       0.241  13.902  22.521  0.00  0.00    +0.000 OA
ATOM      5  N   UNL     1      -1.441  13.116  21.242  0.00  0.00    +0.000 N 
ATOM      6  C   UNL     1      -1.872  12.241  20.265  0.00  0.00    +0.000 A 
ATOM      7  C   UNL     1      -1.037  11.321  19.679  0.00  0.00    +0.000 A 
ATOM      8  C   UNL     1      -1.821  10.798  18.613  0.00  0.00    +0.000 A 
ATOM      9  C   UNL     1      -1.426   9.937  17.465  0.00  0.00    +0.000 C 
ATOM     10  N   UNL     1      -3.092  11.231  18.667  0.00  0.00    +0.000 NA
ATOM     11  N   UNL     1      -3.099  12.174  19.648  0.00  0.00    +0.000 N 
ATOM     12  C   UNL     1      -4.202  13.040  19.928  0.00  0.00    +0.000 A 
ATOM     13  N   UNL     1      -5.387  12.794  19.342  0.00  0.00    +0.000 NA
ATOM     14  C   UNL     1      -6.380  13.673  19.576  0.00  0.00    +0.000 A 
ATOM     15  C   UNL     1      -7.713  13.380  18.955  0.00  0.00    +0.000 C 
ATOM     16  C   UNL     1      -6.199  14.809  20.342  0.00  0.00    +0.000 A 
ATOM     17  C   UNL     1      -4.951  14.991  20.904  0.00  0.00    +0.000 A 
ATOM     18  C   UNL     1      -4.630  16.235  21.680  0.00  0.00    +0.000 C 
ATOM     19  N   UNL     1      -3.949  14.101  20.741  0.00  0.00    +0.000 NA
ATOM     20  H   UNL     1      -2.054  13.877  21.533  0.00  0.00    +0.000 HD
ENDROOT
BRANCH   1  25
ATOM     21  C   UNL     1       2.426   5.724  20.038  0.00  0.00    +0.000 C 
ATOM     22  C   UNL     1       1.862   7.115  20.024  0.00  0.00    +0.000 A 
ATOM     23  C   UNL     1       1.054   7.575  21.059  0.00  0.00    +0.000 A 
ATOM     24  C   UNL     1       0.556   8.879  21.033  0.00  0.00    +0.000 A 
ATOM     25  C   UNL     1       0.860   9.776  19.981  0.00  0.00    +0.000 A 
ATOM     26  C   UNL     1       1.671   9.305  18.925  0.00  0.00    +0.000 A 
ATOM     27  C   UNL     1       2.087  10.112  17.721  0.00  0.00    +0.000 C 
ATOM     28  C   UNL     1       2.150   7.976  18.960  0.00  0.00    +0.000 A 
ENDBRANCH   1  25
TORSDOF 1
ENDMDL
MODEL 5
REMARK VINA RESULT:      -6.6      3.166      7.926
REMARK  Name = 
REMARK  6 active torsions:
REMARK  status: ('A' for Active; 'I' for Inactive)
REMARK    1  A    between atoms: C_1  and  C_2
REMARK    2  A    between atoms: C_5  and  C_6
REMARK    3  A    between atoms: C_13  and  C_14
REMARK    4  A    between atoms: C_19  and  C_20
REMARK    5  A    between atoms: C_22  and  C_23
REMARK    6  A    between atoms: C_25  and  C_26
REMARK                            x       y       z     vdW  Elec       q    Type
REMARK                         _______ _______ _______ _____ _____    ______ ____
ROOT
ATOM      1  C   UNL     1       0.815  11.429  19.432  0.00  0.00    +0.000 C 
ATOM      2  C   UNL     1       1.279  11.967  20.797  0.00  0.00    +0.000 C 
ATOM      3  C   UNL     1       0.479  13.162  21.228  0.00  0.00    +0.000 C 
ATOM      4  O   UNL     1       0.913  14.085  21.901  0.00  0.00    +0.000 OA
ATOM      5  N   UNL     1      -0.916  13.150  20.971  0.00  0.00    +0.000 N 
ATOM      6  C   UNL     1      -1.456  12.239  20.086  0.00  0.00    +0.000 A 
ATOM      7  C   UNL     1      -0.678  11.398  19.328  0.00  0.00    +0.000 A 
ATOM      8  C   UNL     1      -1.611  10.806  18.432  0.00  0.00    +0.000 A 
ATOM      9  C   UNL     1      -1.381   9.984  17.212  0.00  0.00    +0.000 C 
ATOM     10  N   UNL     1      -2.878  11.123  18.747  0.00  0.00    +0.000 NA
ATOM     11  N   UNL     1      -2.772  12.061  19.726  0.00  0.00    +0.000 N 
ATOM     12  C   UNL     1      -3.867  12.825  20.236  0.00  0.00    +0.000 A 
ATOM     13  N   UNL     1      -5.119  12.473  19.896  0.00  0.00    +0.000 NA
ATOM     14  C   UNL     1      -6.119  13.258  20.340  0.00  0.00    +0.000 A 
ATOM     15  C   UNL     1      -7.518  12.846  19.993  0.00  0.00    +0.000 C 
ATOM     16  C   UNL     1      -5.888  14.407  21.074  0.00  0.00    +0.000 A 
ATOM     17  C   UNL     1      -4.574  14.701  21.378  0.00  0.00    +0.000 A 
ATOM     18  C   UNL     1      -4.215  15.969  22.095  0.00  0.00    +0.000 C 
ATOM     19  N   UNL     1      -3.551  13.905  21.002  0.00  0.00    +0.000 NA
ATOM     20  H   UNL     1      -1.523  13.852  21.393  0.00  0.00    +0.000 HD
ENDROOT
BRANCH   1  25
ATOM     21  C   UNL     1       2.650   5.984  18.287  0.00  0.00    +0.000 C 
ATOM     22  C   UNL     1       2.230   7.391  18.600  0.00  0.00    +0.000 A 
ATOM     23  C   UNL     1       2.391   8.414  17.671  0.00  0.00    +0.000 A 
ATOM     24  C   UNL     1       1.976   9.711  17.977  0.00  0.00    +0.000 A 
ATOM     25  C   UNL     1       1.370  10.030  19.215  0.00  0.00    +0.000 A 
ATOM     26  C   UNL     1       1.216   8.994  20.162  0.00  0.00    +0.000 A 
ATOM     27  C   UNL     1       0.605   9.151  21.532  0.00  0.00    +0.000 C 
ATOM     28  C   UNL     1       1.660   7.692  19.841  0.00  0.00    +0.000 A 
ENDBRANCH   1  25
TORSDOF 1
ENDMDL
MODEL 6
REMARK VINA RESULT:      -6.6      4.206      6.841
REMARK  Name = 
REMARK  6 active torsions:
REMARK  status: ('A' for Active; 'I' for Inactive)
REMARK    1  A    between atoms: C_1  and  C_2
REMARK    2  A    between atoms: C_5  and  C_6
REMARK    3  A    between atoms: C_13  and  C_14
REMARK    4  A    between atoms: C_19  and  C_20
REMARK    5  A    between atoms: C_22  and  C_23
REMARK    6  A    between atoms: C_25  and  C_26
REMARK                            x       y       z     vdW  Elec       q    Type
REMARK                         _______ _______ _______ _____ _____    ______ ____
ROOT
ATOM      1  C   UNL     1      -4.706  13.422  22.421  0.00  0.00    +0.000 C 
ATOM      2  C   UNL     1      -3.255  13.806  22.756  0.00  0.00    +0.000 C 
ATOM      3  C   UNL     1      -2.272  12.824  22.187  0.00  0.00    +0.000 C 
ATOM      4  O   UNL     1      -1.200  12.536  22.697  0.00  0.00    +0.000 OA
ATOM      5  N   UNL     1      -2.527  12.310  20.890  0.00  0.00    +0.000 N 
ATOM      6  C   UNL     1      -3.775  12.452  20.315  0.00  0.00    +0.000 A 
ATOM      7  C   UNL     1      -4.846  12.972  21.000  0.00  0.00    +0.000 A 
ATOM      8  C   UNL     1      -5.942  12.738  20.123  0.00  0.00    +0.000 A 
ATOM      9  C   UNL     1      -7.406  12.855  20.364  0.00  0.00    +0.000 C 
ATOM     10  N   UNL     1      -5.536  12.281  18.926  0.00  0.00    +0.000 NA
ATOM     11  N   UNL     1      -4.205  12.043  19.074  0.00  0.00    +0.000 N 
ATOM     12  C   UNL     1      -3.392  11.370  18.110  0.00  0.00    +0.000 A 
ATOM     13  N   UNL     1      -3.897  11.131  16.887  0.00  0.00    +0.000 NA
ATOM     14  C   UNL     1      -3.126  10.434  16.032  0.00  0.00    +0.000 A 
ATOM     15  C   UNL     1      -3.672  10.199  14.655  0.00  0.00    +0.000 C 
ATOM     16  C   UNL     1      -1.887   9.935  16.388  0.00  0.00    +0.000 A 
ATOM     17  C   UNL     1      -1.442  10.221  17.663  0.00  0.00    +0.000 A 
ATOM     18  C   UNL     1      -0.150   9.652  18.174  0.00  0.00    +0.000 C 
ATOM     19  N   UNL     1      -2.161  10.967  18.529  0.00  0.00    +0.000 NA
ATOM     20  H   UNL     1      -1.810  11.781  20.395  0.00  0.00    +0.000 HD
ENDROOT
BRANCH   1  25
ATOM     21  C   UNL     1      -7.916  18.173  23.625  0.00  0.00    +0.000 C 
ATOM     22  C   UNL     1      -7.124  16.948  23.271  0.00  0.00    +0.000 A 
ATOM     23  C   UNL     1      -6.003  17.027  22.453  0.00  0.00    +0.000 A 
ATOM     24  C   UNL     1      -5.271  15.876  22.152  0.00  0.00    +0.000 A 
ATOM     25  C   UNL     1      -5.623  14.608  22.673  0.00  0.00    +0.000 A 
ATOM     26  C   UNL     1      -6.768  14.527  23.496  0.00  0.00    +0.000 A 
ATOM     27  C   UNL     1      -7.297  13.263  24.126  0.00  0.00    +0.000 C 
ATOM     28  C   UNL     1      -7.506  15.699  23.772  0.00  0.00    +0.000 A 
ENDBRANCH   1  25
TORSDOF 1
ENDMDL
MODEL 7
REMARK VINA RESULT:      -6.4      1.977      3.712
REMARK  Name = 
REMARK  6 active torsions:
REMARK  status: ('A' for Active; 'I' for Inactive)
REMARK    1  A    between atoms: C_1  and  C_2
REMARK    2  A    between atoms: C_5  and  C_6
REMARK    3  A    between atoms: C_13  and  C_14
REMARK    4  A    between atoms: C_19  and  C_20
REMARK    5  A    between atoms: C_22  and  C_23
REMARK    6  A    between atoms: C_25  and  C_26
REMARK                            x       y       z     vdW  Elec       q    Type
REMARK                         _______ _______ _______ _____ _____    ______ ____
ROOT
ATOM      1  C   UNL     1      -1.160  11.563  21.329  0.00  0.00    +0.000 C 
ATOM      2  C   UNL     1      -0.748  11.089  22.733  0.00  0.00    +0.000 C 
ATOM      3  C   UNL     1      -0.359   9.639  22.741  0.00  0.00    +0.000 C 
ATOM      4  O   UNL     1      -0.522   8.878  23.684  0.00  0.00    +0.000 OA
ATOM      5  N   UNL     1       0.392   9.151  21.641  0.00  0.00    +0.000 N 
ATOM      6  C   UNL     1       0.481   9.884  20.475  0.00  0.00    +0.000 A 
ATOM      7  C   UNL     1      -0.237  11.038  20.275  0.00  0.00    +0.000 A 
ATOM      8  C   UNL     1      -0.010  11.331  18.901  0.00  0.00    +0.000 A 
ATOM      9  C   UNL     1      -0.681  12.313  18.006  0.00  0.00    +0.000 C 
ATOM     10  N   UNL     1       0.920  10.524  18.364  0.00  0.00    +0.000 NA
ATOM     11  N   UNL     1       1.169   9.590  19.321  0.00  0.00    +0.000 N 
ATOM     12  C   UNL     1       1.958   8.415  19.119  0.00  0.00    +0.000 A 
ATOM     13  N   UNL     1       2.680   8.304  17.990  0.00  0.00    +0.000 NA
ATOM     14  C   UNL     1       3.354   7.153  17.805  0.00  0.00    +0.000 A 
ATOM     15  C   UNL     1       4.189   7.041  16.565  0.00  0.00    +0.000 C 
ATOM     16  C   UNL     1       3.284   6.102  18.699  0.00  0.00    +0.000 A 
ATOM     17  C   UNL     1       2.519   6.294  19.832  0.00  0.00    +0.000 A 
ATOM     18  C   UNL     1       2.310   5.184  20.819  0.00  0.00    +0.000 C 
ATOM     19  N   UNL     1       1.877   7.456  20.081  0.00  0.00    +0.000 NA
ATOM     20  H   UNL     1       0.823   8.228  21.681  0.00  0.00    +0.000 HD
ENDROOT
BRANCH   1  25
ATOM     21  C   UNL     1      -1.168  17.416  21.589  0.00  0.00    +0.000 C 
ATOM     22  C   UNL     1      -1.148  15.920  21.470  0.00  0.00    +0.000 A 
ATOM     23  C   UNL     1      -0.005  15.189  21.775  0.00  0.00    +0.000 A 
ATOM     24  C   UNL     1      -0.016  13.797  21.675  0.00  0.00    +0.000 A 
ATOM     25  C   UNL     1      -1.174  13.083  21.284  0.00  0.00    +0.000 A 
ATOM     26  C   UNL     1      -2.331  13.826  20.965  0.00  0.00    +0.000 A 
ATOM     27  C   UNL     1      -3.647  13.238  20.521  0.00  0.00    +0.000 C 
ATOM     28  C   UNL     1      -2.295  15.236  21.054  0.00  0.00    +0.000 A 
ENDBRANCH   1  25
TORSDOF 1
ENDMDL
MODEL 8
REMARK VINA RESULT:      -6.2      2.319      3.952
REMARK  Name = 
REMARK  6 active torsions:
REMARK  status: ('A' for Active; 'I' for Inactive)
REMARK    1  A    between atoms: C_1  and  C_2
REMARK    2  A    between atoms: C_5  and  C_6
REMARK    3  A    between atoms: C_13  and  C_14
REMARK    4  A    between atoms: C_19  and  C_20
REMARK    5  A    between atoms: C_22  and  C_23
REMARK    6  A    between atoms: C_25  and  C_26
REMARK                            x       y       z     vdW  Elec       q    Type
REMARK                         _______ _______ _______ _____ _____    ______ ____
ROOT
ATOM      1  C   UNL     1       0.142  10.591  20.217  0.00  0.00    +0.000 C 
ATOM      2  C   UNL     1      -0.112  10.258  21.697  0.00  0.00    +0.000 C 
ATOM      3  C   UNL     1      -0.211   8.778  21.928  0.00  0.00    +0.000 C 
ATOM      4  O   UNL     1      -0.909   8.250  22.781  0.00  0.00    +0.000 OA
ATOM      5  N   UNL     1       0.682   7.937  21.214  0.00  0.00    +0.000 N 
ATOM      6  C   UNL     1       1.381   8.423  20.127  0.00  0.00    +0.000 A 
ATOM      7  C   UNL     1       1.162   9.677  19.612  0.00  0.00    +0.000 A 
ATOM      8  C   UNL     1       1.920   9.674  18.407  0.00  0.00    +0.000 A 
ATOM      9  C   UNL     1       1.927  10.640  17.275  0.00  0.00    +0.000 C 
ATOM     10  N   UNL     1       2.684   8.573  18.300  0.00  0.00    +0.000 NA
ATOM     11  N   UNL     1       2.295   7.775  19.330  0.00  0.00    +0.000 N 
ATOM     12  C   UNL     1       2.708   6.417  19.500  0.00  0.00    +0.000 A 
ATOM     13  N   UNL     1       3.699   5.937  18.729  0.00  0.00    +0.000 NA
ATOM     14  C   UNL     1       4.011   4.635  18.871  0.00  0.00    +0.000 A 
ATOM     15  C   UNL     1       5.141   4.107  18.039  0.00  0.00    +0.000 C 
ATOM     16  C   UNL     1       3.324   3.798  19.730  0.00  0.00    +0.000 A 
ATOM     17  C   UNL     1       2.317   4.367  20.484  0.00  0.00    +0.000 A 
ATOM     18  C   UNL     1       1.457   3.526  21.382  0.00  0.00    +0.000 C 
ATOM     19  N   UNL     1       2.016   5.681  20.413  0.00  0.00    +0.000 NA
ATOM     20  H   UNL     1       0.770   6.952  21.462  0.00  0.00    +0.000 HD
ENDROOT
BRANCH   1  25
ATOM     21  C   UNL     1       1.791  16.212  20.123  0.00  0.00    +0.000 C 
ATOM     22  C   UNL     1       1.407  14.761  20.109  0.00  0.00    +0.000 A 
ATOM     23  C   UNL     1       2.027  13.845  20.952  0.00  0.00    +0.000 A 
ATOM     24  C   UNL     1       1.641  12.503  20.935  0.00  0.00    +0.000 A 
ATOM     25  C   UNL     1       0.610  12.032  20.088  0.00  0.00    +0.000 A 
ATOM     26  C   UNL     1      -0.012  12.961  19.225  0.00  0.00    +0.000 A 
ATOM     27  C   UNL     1      -1.117  12.638  18.250  0.00  0.00    +0.000 C 
ATOM     28  C   UNL     1       0.406  14.310  19.243  0.00  0.00    +0.000 A 
ENDBRANCH   1  25
TORSDOF 1
ENDMDL
MODEL 9
REMARK VINA RESULT:      -6.2      7.486     11.099
REMARK  Name = 
REMARK  6 active torsions:
REMARK  status: ('A' for Active; 'I' for Inactive)
REMARK    1  A    between atoms: C_1  and  C_2
REMARK    2  A    between atoms: C_5  and  C_6
REMARK    3  A    between atoms: C_13  and  C_14
REMARK    4  A    between atoms: C_19  and  C_20
REMARK    5  A    between atoms: C_22  and  C_23
REMARK    6  A    between atoms: C_25  and  C_26
REMARK                            x       y       z     vdW  Elec       q    Type
REMARK                         _______ _______ _______ _____ _____    ______ ____
ROOT
ATOM      1  C   UNL     1       7.678  14.657  21.480  0.00  0.00    +0.000 C 
ATOM      2  C   UNL     1       6.883  13.634  22.309  0.00  0.00    +0.000 C 
ATOM      3  C   UNL     1       5.514  14.141  22.658  0.00  0.00    +0.000 C 
ATOM      4  O   UNL     1       4.907  13.862  23.682  0.00  0.00    +0.000 OA
ATOM      5  N   UNL     1       4.806  14.869  21.667  0.00  0.00    +0.000 N 
ATOM      6  C   UNL     1       5.466  15.364  20.560  0.00  0.00    +0.000 A 
ATOM      7  C   UNL     1       6.830  15.291  20.422  0.00  0.00    +0.000 A 
ATOM      8  C   UNL     1       7.087  16.090  19.273  0.00  0.00    +0.000 A 
ATOM      9  C   UNL     1       8.374  16.603  18.729  0.00  0.00    +0.000 C 
ATOM     10  N   UNL     1       5.952  16.462  18.658  0.00  0.00    +0.000 NA
ATOM     11  N   UNL     1       4.955  16.068  19.495  0.00  0.00    +0.000 N 
ATOM     12  C   UNL     1       3.579  16.424  19.337  0.00  0.00    +0.000 A 
ATOM     13  N   UNL     1       3.186  17.009  18.191  0.00  0.00    +0.000 NA
ATOM     14  C   UNL     1       1.898  17.392  18.110  0.00  0.00    +0.000 A 
ATOM     15  C   UNL     1       1.448  18.009  16.819  0.00  0.00    +0.000 C 
ATOM     16  C   UNL     1       1.013  17.245  19.161  0.00  0.00    +0.000 A 
ATOM     17  C   UNL     1       1.496  16.639  20.304  0.00  0.00    +0.000 A 
ATOM     18  C   UNL     1       0.638  16.512  21.529  0.00  0.00    +0.000 C 
ATOM     19  N   UNL     1       2.764  16.188  20.401  0.00  0.00    +0.000 NA
ATOM     20  H   UNL     1       3.818  15.083  21.793  0.00  0.00    +0.000 HD
ENDROOT
BRANCH   1  25
ATOM     21  C   UNL     1      12.235  11.706  19.277  0.00  0.00    +0.000 C 
ATOM     22  C   UNL     1      11.062  12.488  19.793  0.00  0.00    +0.000 A 
ATOM     23  C   UNL     1       9.761  12.016  19.646  0.00  0.00    +0.000 A 
ATOM     24  C   UNL     1       8.688  12.752  20.151  0.00  0.00    +0.000 A 
ATOM     25  C   UNL     1       8.875  13.976  20.835  0.00  0.00    +0.000 A 
ATOM     26  C   UNL     1      10.194  14.460  20.975  0.00  0.00    +0.000 A 
ATOM     27  C   UNL     1      10.581  15.746  21.661  0.00  0.00    +0.000 C 
ATOM     28  C   UNL     1      11.266  13.711  20.440  0.00  0.00    +0.000 A 
ENDBRANCH   1  25
TORSDOF 1
ENDMDL
