MODEL 1
REMARK VINA RESULT:      -7.8      0.000      0.000
REMARK  Name = 
REMARK  2 active torsions:
REMARK  status: ('A' for Active; 'I' for Inactive)
REMARK    1  A    between atoms: C_1  and  C_2
REMARK    2  A    between atoms: C_5  and  C_6
REMARK                            x       y       z     vdW  Elec       q    Type
REMARK                         _______ _______ _______ _____ _____    ______ ____
ROOT
ATOM      1  C   UNL     1       4.620   3.681  17.745  0.00  0.00    +0.000 A 
ATOM      2  C   UNL     1       3.332   4.042  17.847  0.00  0.00    +0.000 A 
ATOM      3  C   UNL     1       2.592   3.694  19.059  0.00  0.00    +0.000 A 
ATOM      4  C   UNL     1       1.292   4.117  19.286  0.00  0.00    +0.000 A 
ATOM      5  N   UNL     1       0.618   3.897  20.440  0.00  0.00    +0.000 NA
ATOM      6  C   UNL     1       1.260   3.205  21.408  0.00  0.00    +0.000 A 
ATOM      7  C   UNL     1       2.537   2.696  21.270  0.00  0.00    +0.000 A 
ATOM      8  C   UNL     1       3.206   2.960  20.077  0.00  0.00    +0.000 A 
ATOM      9  C   UNL     1       4.607   2.516  19.885  0.00  0.00    +0.000 A 
ATOM     10  O   UNL     1       5.186   1.833  20.726  0.00  0.00    +0.000 OA
ATOM     11  N   UNL     1       5.225   2.935  18.728  0.00  0.00    +0.000 N 
ATOM     12  H   UNL     1       6.198   2.671  18.626  0.00  0.00    +0.000 HD
ENDROOT
BRANCH   1  17
ATOM     13  C   UNL     1       7.829   5.273  13.206  0.00  0.00    +0.000 C 
ATOM     14  C   UNL     1       6.987   4.858  14.377  0.00  0.00    +0.000 A 
ATOM     15  C   UNL     1       5.702   4.339  14.191  0.00  0.00    +0.000 A 
ATOM     16  C   UNL     1       4.930   3.954  15.291  0.00  0.00    +0.000 A 
ATOM     17  C   UNL     1       5.433   4.085  16.592  0.00  0.00    +0.000 A 
ATOM     18  C   UNL     1       6.716   4.606  16.778  0.00  0.00    +0.000 A 
ATOM     19  C   UNL     1       7.487   4.992  15.678  0.00  0.00    +0.000 A 
ENDBRANCH   1  17
TORSDOF 1
ENDMDL
MODEL 2
REMARK VINA RESULT:      -7.8      0.039      1.138
REMARK  Name = 
REMARK  2 active torsions:
REMARK  status: ('A' for Active; 'I' for Inactive)
REMARK    1  A    between atoms: C_1  and  C_2
REMARK    2  A    between atoms: C_5  and  C_6
REMARK                            x       y       z     vdW  Elec       q    Type
REMARK                         _______ _______ _______ _____ _____    ______ ____
ROOT
ATOM      1  C   UNL     1       4.632   3.691  17.740  0.00  0.00    +0.000 A 
ATOM      2  C   UNL     1       3.347   4.063  17.842  0.00  0.00    +0.000 A 
ATOM      3  C   UNL     1       2.603   3.718  19.053  0.00  0.00    +0.000 A 
ATOM      4  C   UNL     1       1.307   4.152  19.281  0.00  0.00    +0.000 A 
ATOM      5  N   UNL     1       0.630   3.934  20.435  0.00  0.00    +0.000 NA
ATOM      6  C   UNL     1       1.267   3.234  21.401  0.00  0.00    +0.000 A 
ATOM      7  C   UNL     1       2.539   2.715  21.261  0.00  0.00    +0.000 A 
ATOM      8  C   UNL     1       3.211   2.976  20.069  0.00  0.00    +0.000 A 
ATOM      9  C   UNL     1       4.608   2.520  19.877  0.00  0.00    +0.000 A 
ATOM     10  O   UNL     1       5.180   1.830  20.716  0.00  0.00    +0.000 OA
ATOM     11  N   UNL     1       5.230   2.937  18.721  0.00  0.00    +0.000 N 
ATOM     12  H   UNL     1       6.200   2.665  18.618  0.00  0.00    +0.000 HD
ENDROOT
BRANCH   1  17
ATOM     13  C   UNL     1       7.845   5.267  13.198  0.00  0.00    +0.000 C 
ATOM     14  C   UNL     1       7.020   4.860  14.383  0.00  0.00    +0.000 A 
ATOM     15  C   UNL     1       7.492   5.048  15.687  0.00  0.00    +0.000 A 
ATOM     16  C   UNL     1       6.711   4.666  16.782  0.00  0.00    +0.000 A 
ATOM     17  C   UNL     1       5.448   4.091  16.589  0.00  0.00    +0.000 A 
ATOM     18  C   UNL     1       4.978   3.901  15.287  0.00  0.00    +0.000 A 
ATOM     19  C   UNL     1       5.759   4.281  14.191  0.00  0.00    +0.000 A 
ENDBRANCH   1  17
TORSDOF 1
ENDMDL
MODEL 3
REMARK VINA RESULT:      -7.6      3.772      6.668
REMARK  Name = 
REMARK  2 active torsions:
REMARK  status: ('A' for Active; 'I' for Inactive)
REMARK    1  A    between atoms: C_1  and  C_2
REMARK    2  A    between atoms: C_5  and  C_6
REMARK                            x       y       z     vdW  Elec       q    Type
REMARK                         _______ _______ _______ _____ _____    ______ ____
ROOT
ATOM      1  C   UNL     1       3.278   6.652  18.001  0.00  0.00    +0.000 A 
ATOM      2  C   UNL     1       4.497   6.991  17.556  0.00  0.00    +0.000 A 
ATOM      3  C   UNL     1       5.300   5.990  16.856  0.00  0.00    +0.000 A 
ATOM      4  C   UNL     1       6.524   6.287  16.277  0.00  0.00    +0.000 A 
ATOM      5  N   UNL     1       7.242   5.408  15.537  0.00  0.00    +0.000 NA
ATOM      6  C   UNL     1       6.727   4.167  15.381  0.00  0.00    +0.000 A 
ATOM      7  C   UNL     1       5.540   3.751  15.953  0.00  0.00    +0.000 A 
ATOM      8  C   UNL     1       4.821   4.688  16.690  0.00  0.00    +0.000 A 
ATOM      9  C   UNL     1       3.501   4.339  17.267  0.00  0.00    +0.000 A 
ATOM     10  O   UNL     1       3.046   3.201  17.191  0.00  0.00    +0.000 OA
ATOM     11  N   UNL     1       2.808   5.368  17.867  0.00  0.00    +0.000 N 
ATOM     12  H   UNL     1       1.886   5.135  18.215  0.00  0.00    +0.000 HD
ENDROOT
BRANCH   1  17
ATOM     13  C   UNL     1      -0.199  10.556  20.473  0.00  0.00    +0.000 C 
ATOM     14  C   UNL     1       0.701   9.548  19.821  0.00  0.00    +0.000 A 
ATOM     15  C   UNL     1       1.039   9.654  18.468  0.00  0.00    +0.000 A 
ATOM     16  C   UNL     1       1.881   8.708  17.875  0.00  0.00    +0.000 A 
ATOM     17  C   UNL     1       2.395   7.643  18.626  0.00  0.00    +0.000 A 
ATOM     18  C   UNL     1       2.056   7.536  19.977  0.00  0.00    +0.000 A 
ATOM     19  C   UNL     1       1.213   8.481  20.570  0.00  0.00    +0.000 A 
ENDBRANCH   1  17
TORSDOF 1
ENDMDL
MODEL 4
REMARK VINA RESULT:      -7.6      3.785      6.723
REMARK  Name = 
REMARK  2 active torsions:
REMARK  status: ('A' for Active; 'I' for Inactive)
REMARK    1  A    between atoms: C_1  and  C_2
REMARK    2  A    between atoms: C_5  and  C_6
REMARK                            x       y       z     vdW  Elec       q    Type
REMARK                         _______ _______ _______ _____ _____    ______ ____
ROOT
ATOM      1  C   UNL     1       3.257   6.670  18.014  0.00  0.00    +0.000 A 
ATOM      2  C   UNL     1       4.482   7.007  17.580  0.00  0.00    +0.000 A 
ATOM      3  C   UNL     1       5.286   6.005  16.882  0.00  0.00    +0.000 A 
ATOM      4  C   UNL     1       6.516   6.299  16.315  0.00  0.00    +0.000 A 
ATOM      5  N   UNL     1       7.236   5.421  15.577  0.00  0.00    +0.000 NA
ATOM      6  C   UNL     1       6.717   4.183  15.411  0.00  0.00    +0.000 A 
ATOM      7  C   UNL     1       5.525   3.769  15.971  0.00  0.00    +0.000 A 
ATOM      8  C   UNL     1       4.803   4.706  16.706  0.00  0.00    +0.000 A 
ATOM      9  C   UNL     1       3.477   4.360  17.271  0.00  0.00    +0.000 A 
ATOM     10  O   UNL     1       3.018   3.224  17.186  0.00  0.00    +0.000 OA
ATOM     11  N   UNL     1       2.784   5.389  17.870  0.00  0.00    +0.000 N 
ATOM     12  H   UNL     1       1.858   5.158  18.210  0.00  0.00    +0.000 HD
ENDROOT
BRANCH   1  17
ATOM     13  C   UNL     1      -0.226  10.582  20.463  0.00  0.00    +0.000 C 
ATOM     14  C   UNL     1       0.680   9.563  19.838  0.00  0.00    +0.000 A 
ATOM     15  C   UNL     1       1.200   8.505  20.591  0.00  0.00    +0.000 A 
ATOM     16  C   UNL     1       2.041   7.561  19.994  0.00  0.00    +0.000 A 
ATOM     17  C   UNL     1       2.374   7.662  18.637  0.00  0.00    +0.000 A 
ATOM     18  C   UNL     1       1.856   8.721  17.885  0.00  0.00    +0.000 A 
ATOM     19  C   UNL     1       1.016   9.665  18.482  0.00  0.00    +0.000 A 
ENDBRANCH   1  17
TORSDOF 1
ENDMDL
MODEL 5
REMARK VINA RESULT:      -7.2      2.435      6.675
REMARK  Name = 
REMARK  2 active torsions:
REMARK  status: ('A' for Active; 'I' for Inactive)
REMARK    1  A    between atoms: C_1  and  C_2
REMARK    2  A    between atoms: C_5  and  C_6
REMARK                            x       y       z     vdW  Elec       q    Type
REMARK                         _______ _______ _______ _____ _____    ______ ____
ROOT
ATOM      1  C   UNL     1       4.813   4.385  16.834  0.00  0.00    +0.000 A 
ATOM      2  C   UNL     1       4.665   3.855  15.611  0.00  0.00    +0.000 A 
ATOM      3  C   UNL     1       5.639   4.187  14.572  0.00  0.00    +0.000 A 
ATOM      4  C   UNL     1       5.617   3.604  13.314  0.00  0.00    +0.000 A 
ATOM      5  N   UNL     1       6.563   3.815  12.368  0.00  0.00    +0.000 NA
ATOM      6  C   UNL     1       7.569   4.663  12.680  0.00  0.00    +0.000 A 
ATOM      7  C   UNL     1       7.663   5.334  13.884  0.00  0.00    +0.000 A 
ATOM      8  C   UNL     1       6.684   5.075  14.839  0.00  0.00    +0.000 A 
ATOM      9  C   UNL     1       6.761   5.696  16.183  0.00  0.00    +0.000 A 
ATOM     10  O   UNL     1       7.631   6.516  16.463  0.00  0.00    +0.000 OA
ATOM     11  N   UNL     1       5.821   5.280  17.100  0.00  0.00    +0.000 N 
ATOM     12  H   UNL     1       5.909   5.670  18.031  0.00  0.00    +0.000 HD
ENDROOT
BRANCH   1  17
ATOM     13  C   UNL     1       1.294   2.913  21.180  0.00  0.00    +0.000 C 
ATOM     14  C   UNL     1       2.198   3.299  20.047  0.00  0.00    +0.000 A 
ATOM     15  C   UNL     1       1.715   4.035  18.959  0.00  0.00    +0.000 A 
ATOM     16  C   UNL     1       2.570   4.389  17.911  0.00  0.00    +0.000 A 
ATOM     17  C   UNL     1       3.919   4.012  17.936  0.00  0.00    +0.000 A 
ATOM     18  C   UNL     1       4.401   3.275  19.021  0.00  0.00    +0.000 A 
ATOM     19  C   UNL     1       3.546   2.919  20.068  0.00  0.00    +0.000 A 
ENDBRANCH   1  17
TORSDOF 1
ENDMDL
MODEL 6
REMARK VINA RESULT:      -7.2      2.439      6.746
REMARK  Name = 
REMARK  2 active torsions:
REMARK  status: ('A' for Active; 'I' for Inactive)
REMARK    1  A    between atoms: C_1  and  C_2
REMARK    2  A    between atoms: C_5  and  C_6
REMARK                            x       y       z     vdW  Elec       q    Type
REMARK                         _______ _______ _______ _____ _____    ______ ____
ROOT
ATOM      1  C   UNL     1       4.832   4.399  16.845  0.00  0.00    +0.000 A 
ATOM      2  C   UNL     1       4.690   3.860  15.625  0.00  0.00    +0.000 A 
ATOM      3  C   UNL     1       5.661   4.196  14.584  0.00  0.00    +0.000 A 
ATOM      4  C   UNL     1       5.645   3.606  13.330  0.00  0.00    +0.000 A 
ATOM      5  N   UNL     1       6.589   3.821  12.382  0.00  0.00    +0.000 NA
ATOM      6  C   UNL     1       7.586   4.682  12.689  0.00  0.00    +0.000 A 
ATOM      7  C   UNL     1       7.672   5.361  13.889  0.00  0.00    +0.000 A 
ATOM      8  C   UNL     1       6.695   5.098  14.846  0.00  0.00    +0.000 A 
ATOM      9  C   UNL     1       6.765   5.727  16.186  0.00  0.00    +0.000 A 
ATOM     10  O   UNL     1       7.626   6.558  16.461  0.00  0.00    +0.000 OA
ATOM     11  N   UNL     1       5.829   5.307  17.105  0.00  0.00    +0.000 N 
ATOM     12  H   UNL     1       5.913   5.703  18.033  0.00  0.00    +0.000 HD
ENDROOT
BRANCH   1  17
ATOM     13  C   UNL     1       1.317   2.919  21.191  0.00  0.00    +0.000 C 
ATOM     14  C   UNL     1       2.238   3.299  20.070  0.00  0.00    +0.000 A 
ATOM     15  C   UNL     1       3.581   2.906  20.076  0.00  0.00    +0.000 A 
ATOM     16  C   UNL     1       4.427   3.265  19.023  0.00  0.00    +0.000 A 
ATOM     17  C   UNL     1       3.942   4.023  17.949  0.00  0.00    +0.000 A 
ATOM     18  C   UNL     1       2.601   4.417  17.943  0.00  0.00    +0.000 A 
ATOM     19  C   UNL     1       1.756   4.059  18.997  0.00  0.00    +0.000 A 
ENDBRANCH   1  17
TORSDOF 1
ENDMDL
MODEL 7
REMARK VINA RESULT:      -7.2      1.179      1.188
REMARK  Name = 
REMARK  2 active torsions:
REMARK  status: ('A' for Active; 'I' for Inactive)
REMARK    1  A    between atoms: C_1  and  C_2
REMARK    2  A    between atoms: C_5  and  C_6
REMARK                            x       y       z     vdW  Elec       q    Type
REMARK                         _______ _______ _______ _____ _____    ______ ____
ROOT
ATOM      1  C   UNL     1       4.512   3.942  17.100  0.00  0.00    +0.000 A 
ATOM      2  C   UNL     1       3.799   4.882  17.738  0.00  0.00    +0.000 A 
ATOM      3  C   UNL     1       2.971   4.492  18.878  0.00  0.00    +0.000 A 
ATOM      4  C   UNL     1       2.285   5.414  19.653  0.00  0.00    +0.000 A 
ATOM      5  N   UNL     1       1.594   5.093  20.773  0.00  0.00    +0.000 NA
ATOM      6  C   UNL     1       1.567   3.788  21.129  0.00  0.00    +0.000 A 
ATOM      7  C   UNL     1       2.174   2.782  20.404  0.00  0.00    +0.000 A 
ATOM      8  C   UNL     1       2.892   3.153  19.270  0.00  0.00    +0.000 A 
ATOM      9  C   UNL     1       3.637   2.139  18.486  0.00  0.00    +0.000 A 
ATOM     10  O   UNL     1       3.573   0.943  18.756  0.00  0.00    +0.000 OA
ATOM     11  N   UNL     1       4.420   2.620  17.460  0.00  0.00    +0.000 N 
ATOM     12  H   UNL     1       4.966   1.928  16.959  0.00  0.00    +0.000 HD
ENDROOT
BRANCH   1  17
ATOM     13  C   UNL     1       8.130   5.335  12.810  0.00  0.00    +0.000 C 
ATOM     14  C   UNL     1       7.185   4.969  13.916  0.00  0.00    +0.000 A 
ATOM     15  C   UNL     1       6.113   4.099  13.687  0.00  0.00    +0.000 A 
ATOM     16  C   UNL     1       5.241   3.765  14.727  0.00  0.00    +0.000 A 
ATOM     17  C   UNL     1       5.429   4.295  16.010  0.00  0.00    +0.000 A 
ATOM     18  C   UNL     1       6.498   5.165  16.238  0.00  0.00    +0.000 A 
ATOM     19  C   UNL     1       7.369   5.501  15.198  0.00  0.00    +0.000 A 
ENDBRANCH   1  17
TORSDOF 1
ENDMDL
MODEL 8
REMARK VINA RESULT:      -7.2      1.178      1.612
REMARK  Name = 
REMARK  2 active torsions:
REMARK  status: ('A' for Active; 'I' for Inactive)
REMARK    1  A    between atoms: C_1  and  C_2
REMARK    2  A    between atoms: C_5  and  C_6
REMARK                            x       y       z     vdW  Elec       q    Type
REMARK                         _______ _______ _______ _____ _____    ______ ____
ROOT
ATOM      1  C   UNL     1       4.489   3.933  17.093  0.00  0.00    +0.000 A 
ATOM      2  C   UNL     1       3.775   4.872  17.731  0.00  0.00    +0.000 A 
ATOM      3  C   UNL     1       2.954   4.482  18.877  0.00  0.00    +0.000 A 
ATOM      4  C   UNL     1       2.268   5.404  19.651  0.00  0.00    +0.000 A 
ATOM      5  N   UNL     1       1.584   5.084  20.776  0.00  0.00    +0.000 NA
ATOM      6  C   UNL     1       1.565   3.781  21.137  0.00  0.00    +0.000 A 
ATOM      7  C   UNL     1       2.173   2.775  20.413  0.00  0.00    +0.000 A 
ATOM      8  C   UNL     1       2.884   3.144  19.274  0.00  0.00    +0.000 A 
ATOM      9  C   UNL     1       3.630   2.131  18.490  0.00  0.00    +0.000 A 
ATOM     10  O   UNL     1       3.573   0.936  18.765  0.00  0.00    +0.000 OA
ATOM     11  N   UNL     1       4.406   2.611  17.459  0.00  0.00    +0.000 N 
ATOM     12  H   UNL     1       4.952   1.920  16.958  0.00  0.00    +0.000 HD
ENDROOT
BRANCH   1  17
ATOM     13  C   UNL     1       8.071   5.320  12.771  0.00  0.00    +0.000 C 
ATOM     14  C   UNL     1       7.149   4.966  13.900  0.00  0.00    +0.000 A 
ATOM     15  C   UNL     1       7.328   5.513  15.174  0.00  0.00    +0.000 A 
ATOM     16  C   UNL     1       6.459   5.176  16.216  0.00  0.00    +0.000 A 
ATOM     17  C   UNL     1       5.399   4.285  15.998  0.00  0.00    +0.000 A 
ATOM     18  C   UNL     1       5.222   3.736  14.725  0.00  0.00    +0.000 A 
ATOM     19  C   UNL     1       6.092   4.073  13.684  0.00  0.00    +0.000 A 
ENDBRANCH   1  17
TORSDOF 1
ENDMDL
MODEL 9
REMARK VINA RESULT:      -7.1      3.832      5.994
REMARK  Name = 
REMARK  2 active torsions:
REMARK  status: ('A' for Active; 'I' for Inactive)
REMARK    1  A    between atoms: C_1  and  C_2
REMARK    2  A    between atoms: C_5  and  C_6
REMARK                            x       y       z     vdW  Elec       q    Type
REMARK                         _______ _______ _______ _____ _____    ______ ____
ROOT
ATOM      1  C   UNL     1       2.252   6.358  19.701  0.00  0.00    +0.000 A 
ATOM      2  C   UNL     1       2.792   5.800  18.607  0.00  0.00    +0.000 A 
ATOM      3  C   UNL     1       3.126   4.377  18.629  0.00  0.00    +0.000 A 
ATOM      4  C   UNL     1       3.591   3.703  17.511  0.00  0.00    +0.000 A 
ATOM      5  N   UNL     1       3.813   2.367  17.473  0.00  0.00    +0.000 NA
ATOM      6  C   UNL     1       3.580   1.671  18.609  0.00  0.00    +0.000 A 
ATOM      7  C   UNL     1       3.162   2.248  19.792  0.00  0.00    +0.000 A 
ATOM      8  C   UNL     1       2.926   3.621  19.786  0.00  0.00    +0.000 A 
ATOM      9  C   UNL     1       2.400   4.299  20.995  0.00  0.00    +0.000 A 
ATOM     10  O   UNL     1       2.242   3.696  22.053  0.00  0.00    +0.000 OA
ATOM     11  N   UNL     1       2.076   5.630  20.853  0.00  0.00    +0.000 N 
ATOM     12  H   UNL     1       1.670   6.075  21.667  0.00  0.00    +0.000 HD
ENDROOT
BRANCH   1  17
ATOM     13  C   UNL     1       0.520  11.875  19.707  0.00  0.00    +0.000 C 
ATOM     14  C   UNL     1       0.971  10.445  19.694  0.00  0.00    +0.000 A 
ATOM     15  C   UNL     1       1.489   9.864  18.532  0.00  0.00    +0.000 A 
ATOM     16  C   UNL     1       1.907   8.530  18.535  0.00  0.00    +0.000 A 
ATOM     17  C   UNL     1       1.812   7.758  19.701  0.00  0.00    +0.000 A 
ATOM     18  C   UNL     1       1.293   8.337  20.861  0.00  0.00    +0.000 A 
ATOM     19  C   UNL     1       0.873   9.671  20.858  0.00  0.00    +0.000 A 
ENDBRANCH   1  17
TORSDOF 1
ENDMDL
