MODEL 1
REMARK VINA RESULT:      -7.8      0.000      0.000
REMARK  Name = 
REMARK  3 active torsions:
REMARK  status: ('A' for Active; 'I' for Inactive)
REMARK    1  A    between atoms: C_2  and  C_11
REMARK    2  A    between atoms: N_3  and  C_4
REMARK    3  A    between atoms: C_4  and  C_5
REMARK                            x       y       z     vdW  Elec       q    Type
REMARK                         _______ _______ _______ _____ _____    ______ ____
ROOT
ATOM      1  O   UNL     1       5.195   6.908  15.826  0.00  0.00    +0.000 OA
ATOM      2  C   UNL     1       5.385   5.836  16.392  0.00  0.00    +0.000 C 
ATOM      3  N   UNL     1       4.504   5.284  17.291  0.00  0.00    +0.000 N 
ATOM      4  H   UNL     1       4.789   4.445  17.785  0.00  0.00    +0.000 HD
ENDROOT
BRANCH   2   5
ATOM      5  C   UNL     1       6.606   4.952  16.102  0.00  0.00    +0.000 C 
ATOM      6  C   UNL     1       6.251   3.700  15.337  0.00  0.00    +0.000 C 
ATOM      7  C   UNL     1       6.511   4.240  13.984  0.00  0.00    +0.000 C 
ATOM      8 BR   UNL     1       5.851   3.451  12.446  0.00  0.00    +0.000 Br
ATOM      9  N   UNL     1       7.264   5.288  13.930  0.00  0.00    +0.000 NA
ATOM     10  O   UNL     1       7.558   5.628  15.275  0.00  0.00    +0.000 OA
ENDBRANCH   2   5
BRANCH   3  11
ATOM     11  C   UNL     1       3.288   5.938  17.712  0.00  0.00    +0.000 C 
BRANCH  11  12
ATOM     12  C   UNL     1       2.436   4.994  18.516  0.00  0.00    +0.000 A 
ATOM     13  C   UNL     1       1.870   3.856  17.926  0.00  0.00    +0.000 A 
ATOM     14  C   UNL     1       1.053   3.004  18.673  0.00  0.00    +0.000 A 
ATOM     15  C   UNL     1       0.790   3.286  20.013  0.00  0.00    +0.000 A 
ATOM     16  C   UNL     1       1.342   4.418  20.607  0.00  0.00    +0.000 A 
ATOM     17  C   UNL     1       2.157   5.272  19.862  0.00  0.00    +0.000 A 
ENDBRANCH  11  12
ENDBRANCH   3  11
TORSDOF 3
ENDMDL
MODEL 2
REMARK VINA RESULT:      -7.7      0.337      1.252
REMARK  Name = 
REMARK  3 active torsions:
REMARK  status: ('A' for Active; 'I' for Inactive)
REMARK    1  A    between atoms: C_2  and  C_11
REMARK    2  A    between atoms: N_3  and  C_4
REMARK    3  A    between atoms: C_4  and  C_5
REMARK                            x       y       z     vdW  Elec       q    Type
REMARK                         _______ _______ _______ _____ _____    ______ ____
ROOT
ATOM      1  O   UNL     1       5.051   6.809  15.454  0.00  0.00    +0.000 OA
ATOM      2  C   UNL     1       5.403   5.942  16.249  0.00  0.00    +0.000 C 
ATOM      3  N   UNL     1       4.716   5.640  17.400  0.00  0.00    +0.000 N 
ATOM      4  H   UNL     1       5.135   4.979  18.046  0.00  0.00    +0.000 HD
ENDROOT
BRANCH   2   5
ATOM      5  C   UNL     1       6.624   5.043  16.005  0.00  0.00    +0.000 C 
ATOM      6  C   UNL     1       6.271   3.762  15.289  0.00  0.00    +0.000 C 
ATOM      7  C   UNL     1       6.543   4.246  13.917  0.00  0.00    +0.000 C 
ATOM      8 BR   UNL     1       5.894   3.397  12.407  0.00  0.00    +0.000 Br
ATOM      9  N   UNL     1       7.300   5.289  13.827  0.00  0.00    +0.000 NA
ATOM     10  O   UNL     1       7.585   5.682  15.158  0.00  0.00    +0.000 OA
ENDBRANCH   2   5
BRANCH   3  11
ATOM     11  C   UNL     1       3.538   6.355  17.829  0.00  0.00    +0.000 C 
BRANCH  11  12
ATOM     12  C   UNL     1       2.597   5.428  18.551  0.00  0.00    +0.000 A 
ATOM     13  C   UNL     1       2.312   5.610  19.911  0.00  0.00    +0.000 A 
ATOM     14  C   UNL     1       1.464   4.726  20.580  0.00  0.00    +0.000 A 
ATOM     15  C   UNL     1       0.899   3.649  19.898  0.00  0.00    +0.000 A 
ATOM     16  C   UNL     1       1.181   3.455  18.548  0.00  0.00    +0.000 A 
ATOM     17  C   UNL     1       2.030   4.337  17.877  0.00  0.00    +0.000 A 
ENDBRANCH  11  12
ENDBRANCH   3  11
TORSDOF 3
ENDMDL
MODEL 3
REMARK VINA RESULT:      -7.1      1.991      2.418
REMARK  Name = 
REMARK  3 active torsions:
REMARK  status: ('A' for Active; 'I' for Inactive)
REMARK    1  A    between atoms: C_2  and  C_11
REMARK    2  A    between atoms: N_3  and  C_4
REMARK    3  A    between atoms: C_4  and  C_5
REMARK                            x       y       z     vdW  Elec       q    Type
REMARK                         _______ _______ _______ _____ _____    ______ ____
ROOT
ATOM      1  O   UNL     1       6.860   5.316  19.970  0.00  0.00    +0.000 OA
ATOM      2  C   UNL     1       6.464   5.563  18.835  0.00  0.00    +0.000 C 
ATOM      3  N   UNL     1       5.142   5.756  18.514  0.00  0.00    +0.000 N 
ATOM      4  H   UNL     1       4.898   5.857  17.535  0.00  0.00    +0.000 HD
ENDROOT
BRANCH   2   5
ATOM      5  C   UNL     1       7.421   5.757  17.650  0.00  0.00    +0.000 C 
ATOM      6  C   UNL     1       7.420   4.583  16.701  0.00  0.00    +0.000 C 
ATOM      7  C   UNL     1       6.401   5.111  15.768  0.00  0.00    +0.000 C 
ATOM      8 BR   UNL     1       5.487   4.039  14.568  0.00  0.00    +0.000 Br
ATOM      9  N   UNL     1       6.204   6.388  15.811  0.00  0.00    +0.000 NA
ATOM     10  O   UNL     1       7.040   6.878  16.845  0.00  0.00    +0.000 OA
ENDBRANCH   2   5
BRANCH   3  11
ATOM     11  C   UNL     1       4.069   5.626  19.470  0.00  0.00    +0.000 C 
BRANCH  11  12
ATOM     12  C   UNL     1       3.142   4.510  19.070  0.00  0.00    +0.000 A 
ATOM     13  C   UNL     1       2.036   4.176  19.862  0.00  0.00    +0.000 A 
ATOM     14  C   UNL     1       1.200   3.117  19.500  0.00  0.00    +0.000 A 
ATOM     15  C   UNL     1       1.468   2.380  18.347  0.00  0.00    +0.000 A 
ATOM     16  C   UNL     1       2.570   2.699  17.557  0.00  0.00    +0.000 A 
ATOM     17  C   UNL     1       3.406   3.756  17.918  0.00  0.00    +0.000 A 
ENDBRANCH  11  12
ENDBRANCH   3  11
TORSDOF 3
ENDMDL
MODEL 4
REMARK VINA RESULT:      -7.0      2.786      2.942
REMARK  Name = 
REMARK  3 active torsions:
REMARK  status: ('A' for Active; 'I' for Inactive)
REMARK    1  A    between atoms: C_2  and  C_11
REMARK    2  A    between atoms: N_3  and  C_4
REMARK    3  A    between atoms: C_4  and  C_5
REMARK                            x       y       z     vdW  Elec       q    Type
REMARK                         _______ _______ _______ _____ _____    ______ ____
ROOT
ATOM      1  O   UNL     1       4.211   3.959  16.484  0.00  0.00    +0.000 OA
ATOM      2  C   UNL     1       4.934   4.616  17.226  0.00  0.00    +0.000 C 
ATOM      3  N   UNL     1       4.460   5.504  18.162  0.00  0.00    +0.000 N 
ATOM      4  H   UNL     1       5.133   6.076  18.660  0.00  0.00    +0.000 HD
ENDROOT
BRANCH   2   5
ATOM      5  C   UNL     1       6.462   4.463  17.239  0.00  0.00    +0.000 C 
ATOM      6  C   UNL     1       7.169   5.606  16.552  0.00  0.00    +0.000 C 
ATOM      7  C   UNL     1       7.393   6.428  17.762  0.00  0.00    +0.000 C 
ATOM      8 BR   UNL     1       7.796   8.232  17.689  0.00  0.00    +0.000 Br
ATOM      9  N   UNL     1       7.326   5.801  18.890  0.00  0.00    +0.000 NA
ATOM     10  O   UNL     1       6.978   4.464  18.574  0.00  0.00    +0.000 OA
ENDBRANCH   2   5
BRANCH   3  11
ATOM     11  C   UNL     1       3.058   5.805  18.328  0.00  0.00    +0.000 C 
BRANCH  11  12
ATOM     12  C   UNL     1       2.403   4.777  19.211  0.00  0.00    +0.000 A 
ATOM     13  C   UNL     1       1.442   3.896  18.697  0.00  0.00    +0.000 A 
ATOM     14  C   UNL     1       0.815   2.968  19.532  0.00  0.00    +0.000 A 
ATOM     15  C   UNL     1       1.139   2.918  20.887  0.00  0.00    +0.000 A 
ATOM     16  C   UNL     1       2.087   3.794  21.409  0.00  0.00    +0.000 A 
ATOM     17  C   UNL     1       2.714   4.723  20.577  0.00  0.00    +0.000 A 
ENDBRANCH  11  12
ENDBRANCH   3  11
TORSDOF 3
ENDMDL
MODEL 5
REMARK VINA RESULT:      -7.0      2.784      3.173
REMARK  Name = 
REMARK  3 active torsions:
REMARK  status: ('A' for Active; 'I' for Inactive)
REMARK    1  A    between atoms: C_2  and  C_11
REMARK    2  A    between atoms: N_3  and  C_4
REMARK    3  A    between atoms: C_4  and  C_5
REMARK                            x       y       z     vdW  Elec       q    Type
REMARK                         _______ _______ _______ _____ _____    ______ ____
ROOT
ATOM      1  O   UNL     1       4.429   4.333  16.151  0.00  0.00    +0.000 OA
ATOM      2  C   UNL     1       5.053   4.811  17.093  0.00  0.00    +0.000 C 
ATOM      3  N   UNL     1       4.465   5.508  18.122  0.00  0.00    +0.000 N 
ATOM      4  H   UNL     1       5.070   5.951  18.805  0.00  0.00    +0.000 HD
ENDROOT
BRANCH   2   5
ATOM      5  C   UNL     1       6.567   4.618  17.265  0.00  0.00    +0.000 C 
ATOM      6  C   UNL     1       7.371   5.731  16.638  0.00  0.00    +0.000 C 
ATOM      7  C   UNL     1       7.493   6.566  17.854  0.00  0.00    +0.000 C 
ATOM      8 BR   UNL     1       7.952   8.358  17.799  0.00  0.00    +0.000 Br
ATOM      9  N   UNL     1       7.294   5.959  18.978  0.00  0.00    +0.000 NA
ATOM     10  O   UNL     1       6.944   4.627  18.646  0.00  0.00    +0.000 OA
ENDBRANCH   2   5
BRANCH   3  11
ATOM     11  C   UNL     1       3.054   5.805  18.170  0.00  0.00    +0.000 C 
BRANCH  11  12
ATOM     12  C   UNL     1       2.333   4.794  19.021  0.00  0.00    +0.000 A 
ATOM     13  C   UNL     1       2.454   4.814  20.417  0.00  0.00    +0.000 A 
ATOM     14  C   UNL     1       1.808   3.850  21.196  0.00  0.00    +0.000 A 
ATOM     15  C   UNL     1       1.043   2.858  20.586  0.00  0.00    +0.000 A 
ATOM     16  C   UNL     1       0.923   2.825  19.199  0.00  0.00    +0.000 A 
ATOM     17  C   UNL     1       1.568   3.785  18.418  0.00  0.00    +0.000 A 
ENDBRANCH  11  12
ENDBRANCH   3  11
TORSDOF 3
ENDMDL
MODEL 6
REMARK VINA RESULT:      -7.0      3.061      3.450
REMARK  Name = 
REMARK  3 active torsions:
REMARK  status: ('A' for Active; 'I' for Inactive)
REMARK    1  A    between atoms: C_2  and  C_11
REMARK    2  A    between atoms: N_3  and  C_4
REMARK    3  A    between atoms: C_4  and  C_5
REMARK                            x       y       z     vdW  Elec       q    Type
REMARK                         _______ _______ _______ _____ _____    ______ ____
ROOT
ATOM      1  O   UNL     1       4.964   5.425  19.796  0.00  0.00    +0.000 OA
ATOM      2  C   UNL     1       5.036   5.479  18.572  0.00  0.00    +0.000 C 
ATOM      3  N   UNL     1       3.983   5.833  17.762  0.00  0.00    +0.000 N 
ATOM      4  H   UNL     1       4.106   5.754  16.758  0.00  0.00    +0.000 HD
ENDROOT
BRANCH   2   5
ATOM      5  C   UNL     1       6.344   5.226  17.809  0.00  0.00    +0.000 C 
ATOM      6  C   UNL     1       6.771   6.409  16.974  0.00  0.00    +0.000 C 
ATOM      7  C   UNL     1       7.658   7.027  17.985  0.00  0.00    +0.000 C 
ATOM      8 BR   UNL     1       8.206   8.791  17.894  0.00  0.00    +0.000 Br
ATOM      9  N   UNL     1       8.065   6.246  18.930  0.00  0.00    +0.000 NA
ATOM     10  O   UNL     1       7.437   4.996  18.703  0.00  0.00    +0.000 OA
ENDBRANCH   2   5
BRANCH   3  11
ATOM     11  C   UNL     1       2.660   6.117  18.263  0.00  0.00    +0.000 C 
BRANCH  11  12
ATOM     12  C   UNL     1       2.020   4.862  18.793  0.00  0.00    +0.000 A 
ATOM     13  C   UNL     1       1.643   4.761  20.139  0.00  0.00    +0.000 A 
ATOM     14  C   UNL     1       1.080   3.580  20.628  0.00  0.00    +0.000 A 
ATOM     15  C   UNL     1       0.896   2.490  19.779  0.00  0.00    +0.000 A 
ATOM     16  C   UNL     1       1.273   2.578  18.441  0.00  0.00    +0.000 A 
ATOM     17  C   UNL     1       1.837   3.756  17.950  0.00  0.00    +0.000 A 
ENDBRANCH  11  12
ENDBRANCH   3  11
TORSDOF 3
ENDMDL
MODEL 7
REMARK VINA RESULT:      -6.9      2.497      2.971
REMARK  Name = 
REMARK  3 active torsions:
REMARK  status: ('A' for Active; 'I' for Inactive)
REMARK    1  A    between atoms: C_2  and  C_11
REMARK    2  A    between atoms: N_3  and  C_4
REMARK    3  A    between atoms: C_4  and  C_5
REMARK                            x       y       z     vdW  Elec       q    Type
REMARK                         _______ _______ _______ _____ _____    ______ ____
ROOT
ATOM      1  O   UNL     1       5.333   3.537  15.555  0.00  0.00    +0.000 OA
ATOM      2  C   UNL     1       4.802   4.474  16.143  0.00  0.00    +0.000 C 
ATOM      3  N   UNL     1       3.810   4.318  17.082  0.00  0.00    +0.000 N 
ATOM      4  H   UNL     1       3.360   5.153  17.443  0.00  0.00    +0.000 HD
ENDROOT
BRANCH   2   5
ATOM      5  C   UNL     1       5.241   5.931  15.945  0.00  0.00    +0.000 C 
ATOM      6  C   UNL     1       5.525   6.638  17.248  0.00  0.00    +0.000 C 
ATOM      7  C   UNL     1       6.979   6.364  17.283  0.00  0.00    +0.000 C 
ATOM      8 BR   UNL     1       7.989   6.503  18.827  0.00  0.00    +0.000 Br
ATOM      9  N   UNL     1       7.522   6.052  16.152  0.00  0.00    +0.000 NA
ATOM     10  O   UNL     1       6.465   6.015  15.208  0.00  0.00    +0.000 OA
ENDBRANCH   2   5
BRANCH   3  11
ATOM     11  C   UNL     1       3.244   3.037  17.431  0.00  0.00    +0.000 C 
BRANCH  11  12
ATOM     12  C   UNL     1       2.623   3.094  18.800  0.00  0.00    +0.000 A 
ATOM     13  C   UNL     1       1.375   3.699  18.999  0.00  0.00    +0.000 A 
ATOM     14  C   UNL     1       0.822   3.777  20.279  0.00  0.00    +0.000 A 
ATOM     15  C   UNL     1       1.514   3.256  21.371  0.00  0.00    +0.000 A 
ATOM     16  C   UNL     1       2.759   2.659  21.186  0.00  0.00    +0.000 A 
ATOM     17  C   UNL     1       3.314   2.581  19.908  0.00  0.00    +0.000 A 
ENDBRANCH  11  12
ENDBRANCH   3  11
TORSDOF 3
ENDMDL
MODEL 8
REMARK VINA RESULT:      -6.9      1.818      2.133
REMARK  Name = 
REMARK  3 active torsions:
REMARK  status: ('A' for Active; 'I' for Inactive)
REMARK    1  A    between atoms: C_2  and  C_11
REMARK    2  A    between atoms: N_3  and  C_4
REMARK    3  A    between atoms: C_4  and  C_5
REMARK                            x       y       z     vdW  Elec       q    Type
REMARK                         _______ _______ _______ _____ _____    ______ ____
ROOT
ATOM      1  O   UNL     1       6.742   5.040  19.517  0.00  0.00    +0.000 OA
ATOM      2  C   UNL     1       6.231   5.625  18.568  0.00  0.00    +0.000 C 
ATOM      3  N   UNL     1       4.903   5.976  18.515  0.00  0.00    +0.000 N 
ATOM      4  H   UNL     1       4.547   6.368  17.649  0.00  0.00    +0.000 HD
ENDROOT
BRANCH   2   5
ATOM      5  C   UNL     1       7.043   6.099  17.354  0.00  0.00    +0.000 C 
ATOM      6  C   UNL     1       7.352   4.982  16.386  0.00  0.00    +0.000 C 
ATOM      7  C   UNL     1       6.188   5.191  15.497  0.00  0.00    +0.000 C 
ATOM      8 BR   UNL     1       5.586   3.904  14.313  0.00  0.00    +0.000 Br
ATOM      9  N   UNL     1       5.626   6.353  15.568  0.00  0.00    +0.000 NA
ATOM     10  O   UNL     1       6.319   7.062  16.581  0.00  0.00    +0.000 OA
ENDBRANCH   2   5
BRANCH   3  11
ATOM     11  C   UNL     1       3.953   5.636  19.546  0.00  0.00    +0.000 C 
BRANCH  11  12
ATOM     12  C   UNL     1       3.092   4.483  19.106  0.00  0.00    +0.000 A 
ATOM     13  C   UNL     1       3.388   3.770  17.937  0.00  0.00    +0.000 A 
ATOM     14  C   UNL     1       2.563   2.724  17.518  0.00  0.00    +0.000 A 
ATOM     15  C   UNL     1       1.433   2.386  18.262  0.00  0.00    +0.000 A 
ATOM     16  C   UNL     1       1.125   3.093  19.421  0.00  0.00    +0.000 A 
ATOM     17  C   UNL     1       1.947   4.140  19.840  0.00  0.00    +0.000 A 
ENDBRANCH  11  12
ENDBRANCH   3  11
TORSDOF 3
ENDMDL
MODEL 9
REMARK VINA RESULT:      -6.8      2.919      3.281
REMARK  Name = 
REMARK  3 active torsions:
REMARK  status: ('A' for Active; 'I' for Inactive)
REMARK    1  A    between atoms: C_2  and  C_11
REMARK    2  A    between atoms: N_3  and  C_4
REMARK    3  A    between atoms: C_4  and  C_5
REMARK                            x       y       z     vdW  Elec       q    Type
REMARK                         _______ _______ _______ _____ _____    ______ ____
ROOT
ATOM      1  O   UNL     1       4.580   5.767  17.552  0.00  0.00    +0.000 OA
ATOM      2  C   UNL     1       5.193   4.704  17.528  0.00  0.00    +0.000 C 
ATOM      3  N   UNL     1       4.583   3.474  17.465  0.00  0.00    +0.000 N 
ATOM      4  H   UNL     1       5.164   2.648  17.550  0.00  0.00    +0.000 HD
ENDROOT
BRANCH   2   5
ATOM      5  C   UNL     1       6.726   4.634  17.494  0.00  0.00    +0.000 C 
ATOM      6  C   UNL     1       7.346   5.777  16.727  0.00  0.00    +0.000 C 
ATOM      7  C   UNL     1       7.564   6.671  17.886  0.00  0.00    +0.000 C 
ATOM      8 BR   UNL     1       7.864   8.488  17.709  0.00  0.00    +0.000 Br
ATOM      9  N   UNL     1       7.569   6.100  19.045  0.00  0.00    +0.000 NA
ATOM     10  O   UNL     1       7.286   4.731  18.809  0.00  0.00    +0.000 OA
ENDBRANCH   2   5
BRANCH   3  11
ATOM     11  C   UNL     1       3.150   3.301  17.482  0.00  0.00    +0.000 C 
BRANCH  11  12
ATOM     12  C   UNL     1       2.640   3.298  18.898  0.00  0.00    +0.000 A 
ATOM     13  C   UNL     1       3.247   2.504  19.879  0.00  0.00    +0.000 A 
ATOM     14  C   UNL     1       2.746   2.483  21.183  0.00  0.00    +0.000 A 
ATOM     15  C   UNL     1       1.629   3.250  21.513  0.00  0.00    +0.000 A 
ATOM     16  C   UNL     1       1.013   4.037  20.544  0.00  0.00    +0.000 A 
ATOM     17  C   UNL     1       1.512   4.059  19.240  0.00  0.00    +0.000 A 
ENDBRANCH  11  12
ENDBRANCH   3  11
TORSDOF 3
ENDMDL
