MODEL 1
REMARK VINA RESULT:      -7.5      0.000      0.000
REMARK  Name = 
REMARK  14 active torsions:
REMARK  status: ('A' for Active; 'I' for Inactive)
REMARK    1  A    between atoms: C_1  and  C_2
REMARK    2  A    between atoms: C_2  and  O_4
REMARK    3  A    between atoms: O_4  and  C_5
REMARK    4  A    between atoms: C_6  and  O_7
REMARK    5  A    between atoms: C_8  and  O_9
REMARK    6  A    between atoms: O_9  and  C_10
REMARK    7  A    between atoms: C_11  and  O_12
REMARK    8  A    between atoms: C_14  and  O_15
REMARK    9  A    between atoms: C_17  and  C_18
REMARK   10  A    between atoms: C_19  and  C_20
REMARK   11  A    between atoms: C_23  and  O_24
REMARK   12  A    between atoms: C_28  and  C_29
REMARK   13  A    between atoms: C_29  and  O_30
REMARK   14  A    between atoms: C_31  and  O_32
REMARK                            x       y       z     vdW  Elec       q    Type
REMARK                         _______ _______ _______ _____ _____    ______ ____
ROOT
ATOM      1  C   UNL     1      10.057  12.002  20.059  0.00  0.00    +0.000 A 
ATOM      2  C   UNL     1      10.739  13.218  19.823  0.00  0.00    +0.000 A 
ATOM      3  C   UNL     1      11.302  13.514  18.587  0.00  0.00    +0.000 A 
ATOM      4  C   UNL     1      11.132  12.619  17.546  0.00  0.00    +0.000 A 
ATOM      5  C   UNL     1      10.393  11.454  17.725  0.00  0.00    +0.000 A 
ATOM      6  C   UNL     1       9.825  11.128  18.975  0.00  0.00    +0.000 A 
ENDROOT
BRANCH   2   7
ATOM      7  O   UNL     1      10.893  14.186  20.780  0.00  0.00    +0.000 OA
ATOM      8  H   UNL     1      10.034  14.632  20.858  0.00  0.00    +0.000 HD
ENDBRANCH   2   7
BRANCH   4   9
ATOM      9  O   UNL     1      11.664  12.854  16.313  0.00  0.00    +0.000 OA
ATOM     10  H   UNL     1      12.631  12.904  16.396  0.00  0.00    +0.000 HD
ENDBRANCH   4   9
BRANCH   6  11
ATOM     11  C   UNL     1       9.078   9.850  19.010  0.00  0.00    +0.000 C 
ATOM     12  C   UNL     1       8.481   9.245  17.970  0.00  0.00    +0.000 C 
BRANCH  12  13
ATOM     13  C   UNL     1       7.905   7.890  18.036  0.00  0.00    +0.000 A 
ATOM     14  C   UNL     1       8.368   6.994  19.012  0.00  0.00    +0.000 A 
ATOM     15  C   UNL     1       7.798   5.723  19.157  0.00  0.00    +0.000 A 
ATOM     16  C   UNL     1       6.752   5.347  18.324  0.00  0.00    +0.000 A 
ATOM     17  C   UNL     1       6.265   6.217  17.357  0.00  0.00    +0.000 A 
ATOM     18  C   UNL     1       6.836   7.489  17.218  0.00  0.00    +0.000 A 
BRANCH  16  19
ATOM     19  O   UNL     1       6.159   4.123  18.434  0.00  0.00    +0.000 OA
ATOM     20  H   UNL     1       5.667   4.092  19.271  0.00  0.00    +0.000 HD
ENDBRANCH  16  19
ENDBRANCH  12  13
ENDBRANCH   6  11
BRANCH   1  21
ATOM     21  O   UNL     1       9.633  11.616  21.309  0.00  0.00    +0.000 OA
BRANCH  21  24
ATOM     22  C   UNL     1       7.041  12.862  23.785  0.00  0.00    +0.000 C 
ATOM     23  C   UNL     1       8.382  12.237  23.330  0.00  0.00    +0.000 C 
ATOM     24  C   UNL     1       8.427  12.248  21.787  0.00  0.00    +0.000 C 
ATOM     25  O   UNL     1       8.305  13.599  21.346  0.00  0.00    +0.000 OA
ATOM     26  C   UNL     1       7.022  14.163  21.618  0.00  0.00    +0.000 C 
ATOM     27  C   UNL     1       6.811  14.244  23.133  0.00  0.00    +0.000 C 
BRANCH  23  28
ATOM     28  O   UNL     1       8.560  10.911  23.851  0.00  0.00    +0.000 OA
ATOM     29  H   UNL     1       8.750  10.295  23.121  0.00  0.00    +0.000 HD
ENDBRANCH  23  28
BRANCH  27  30
ATOM     30  O   UNL     1       5.502  14.740  23.435  0.00  0.00    +0.000 OA
ATOM     31  H   UNL     1       4.829  14.150  23.053  0.00  0.00    +0.000 HD
ENDBRANCH  27  30
BRANCH  22  32
ATOM     32  O   UNL     1       7.046  13.044  25.221  0.00  0.00    +0.000 OA
BRANCH  32  34
ATOM     33  C   UNL     1       6.376  11.269  26.599  0.00  0.00    +0.000 C 
ATOM     34  C   UNL     1       5.982  12.534  25.897  0.00  0.00    +0.000 C 
ATOM     35  O   UNL     1       4.877  13.057  25.968  0.00  0.00    +0.000 OA
ENDBRANCH  32  34
ENDBRANCH  22  32
BRANCH  26  36
ATOM     36  C   UNL     1       7.012  15.542  20.947  0.00  0.00    +0.000 C 
BRANCH  36  37
ATOM     37  O   UNL     1       5.658  15.969  20.765  0.00  0.00    +0.000 OA
ATOM     38  H   UNL     1       5.636  16.449  19.912  0.00  0.00    +0.000 HD
ENDBRANCH  36  37
ENDBRANCH  26  36
ENDBRANCH  21  24
ENDBRANCH   1  21
TORSDOF 13
ENDMDL
MODEL 2
REMARK VINA RESULT:      -7.2      6.103     10.951
REMARK  Name = 
REMARK  14 active torsions:
REMARK  status: ('A' for Active; 'I' for Inactive)
REMARK    1  A    between atoms: C_1  and  C_2
REMARK    2  A    between atoms: C_2  and  O_4
REMARK    3  A    between atoms: O_4  and  C_5
REMARK    4  A    between atoms: C_6  and  O_7
REMARK    5  A    between atoms: C_8  and  O_9
REMARK    6  A    between atoms: O_9  and  C_10
REMARK    7  A    between atoms: C_11  and  O_12
REMARK    8  A    between atoms: C_14  and  O_15
REMARK    9  A    between atoms: C_17  and  C_18
REMARK   10  A    between atoms: C_19  and  C_20
REMARK   11  A    between atoms: C_23  and  O_24
REMARK   12  A    between atoms: C_28  and  C_29
REMARK   13  A    between atoms: C_29  and  O_30
REMARK   14  A    between atoms: C_31  and  O_32
REMARK                            x       y       z     vdW  Elec       q    Type
REMARK                         _______ _______ _______ _____ _____    ______ ____
ROOT
ATOM      1  C   UNL     1       2.478   4.366  18.738  0.00  0.00    +0.000 A 
ATOM      2  C   UNL     1       2.804   2.992  18.782  0.00  0.00    +0.000 A 
ATOM      3  C   UNL     1       2.790   2.273  19.973  0.00  0.00    +0.000 A 
ATOM      4  C   UNL     1       2.385   2.911  21.131  0.00  0.00    +0.000 A 
ATOM      5  C   UNL     1       1.977   4.241  21.103  0.00  0.00    +0.000 A 
ATOM      6  C   UNL     1       1.996   4.991  19.908  0.00  0.00    +0.000 A 
ENDROOT
BRANCH   2   7
ATOM      7  O   UNL     1       3.150   2.270  17.671  0.00  0.00    +0.000 OA
ATOM      8  H   UNL     1       3.926   1.741  17.920  0.00  0.00    +0.000 HD
ENDBRANCH   2   7
BRANCH   4   9
ATOM      9  O   UNL     1       2.354   2.259  22.328  0.00  0.00    +0.000 OA
ATOM     10  H   UNL     1       1.751   1.501  22.254  0.00  0.00    +0.000 HD
ENDBRANCH   4   9
BRANCH   6  11
ATOM     11  C   UNL     1       1.544   6.395  20.042  0.00  0.00    +0.000 C 
ATOM     12  C   UNL     1       1.102   6.988  21.163  0.00  0.00    +0.000 C 
BRANCH  12  13
ATOM     13  C   UNL     1       0.833   8.434  21.269  0.00  0.00    +0.000 A 
ATOM     14  C   UNL     1       1.084   9.261  20.163  0.00  0.00    +0.000 A 
ATOM     15  C   UNL     1       0.775  10.627  20.197  0.00  0.00    +0.000 A 
ATOM     16  C   UNL     1       0.204  11.168  21.342  0.00  0.00    +0.000 A 
ATOM     17  C   UNL     1      -0.066  10.372  22.446  0.00  0.00    +0.000 A 
ATOM     18  C   UNL     1       0.241   9.005  22.408  0.00  0.00    +0.000 A 
BRANCH  16  19
ATOM     19  O   UNL     1      -0.123  12.491  21.417  0.00  0.00    +0.000 OA
ATOM     20  H   UNL     1      -1.044  12.565  21.714  0.00  0.00    +0.000 HD
ENDBRANCH  16  19
ENDBRANCH  12  13
ENDBRANCH   6  11
BRANCH   1  21
ATOM     21  O   UNL     1       2.638   5.134  17.608  0.00  0.00    +0.000 OA
BRANCH  21  24
ATOM     22  C   UNL     1       6.433   5.138  17.657  0.00  0.00    +0.000 C 
ATOM     23  C   UNL     1       5.007   4.937  18.226  0.00  0.00    +0.000 C 
ATOM     24  C   UNL     1       3.988   5.246  17.109  0.00  0.00    +0.000 C 
ATOM     25  O   UNL     1       4.242   4.366  16.016  0.00  0.00    +0.000 OA
ATOM     26  C   UNL     1       5.489   4.621  15.370  0.00  0.00    +0.000 C 
ATOM     27  C   UNL     1       6.636   4.344  16.345  0.00  0.00    +0.000 C 
BRANCH  23  28
ATOM     28  O   UNL     1       4.775   5.746  19.388  0.00  0.00    +0.000 OA
ATOM     29  H   UNL     1       3.922   6.209  19.300  0.00  0.00    +0.000 HD
ENDBRANCH  23  28
BRANCH  27  30
ATOM     30  O   UNL     1       7.897   4.662  15.747  0.00  0.00    +0.000 OA
ATOM     31  H   UNL     1       8.594   4.664  16.426  0.00  0.00    +0.000 HD
ENDBRANCH  27  30
BRANCH  22  32
ATOM     32  O   UNL     1       7.414   4.673  18.613  0.00  0.00    +0.000 OA
BRANCH  32  34
ATOM     33  C   UNL     1       8.154   6.896  18.723  0.00  0.00    +0.000 C 
ATOM     34  C   UNL     1       7.923   5.610  19.458  0.00  0.00    +0.000 C 
ATOM     35  O   UNL     1       8.117   5.446  20.656  0.00  0.00    +0.000 OA
ENDBRANCH  32  34
ENDBRANCH  22  32
BRANCH  26  36
ATOM     36  C   UNL     1       5.527   3.705  14.140  0.00  0.00    +0.000 C 
BRANCH  36  37
ATOM     37  O   UNL     1       6.592   4.117  13.277  0.00  0.00    +0.000 OA
ATOM     38  H   UNL     1       7.362   4.286  13.858  0.00  0.00    +0.000 HD
ENDBRANCH  36  37
ENDBRANCH  26  36
ENDBRANCH  21  24
ENDBRANCH   1  21
TORSDOF 13
ENDMDL
MODEL 3
REMARK VINA RESULT:      -7.1      0.543      1.041
REMARK  Name = 
REMARK  14 active torsions:
REMARK  status: ('A' for Active; 'I' for Inactive)
REMARK    1  A    between atoms: C_1  and  C_2
REMARK    2  A    between atoms: C_2  and  O_4
REMARK    3  A    between atoms: O_4  and  C_5
REMARK    4  A    between atoms: C_6  and  O_7
REMARK    5  A    between atoms: C_8  and  O_9
REMARK    6  A    between atoms: O_9  and  C_10
REMARK    7  A    between atoms: C_11  and  O_12
REMARK    8  A    between atoms: C_14  and  O_15
REMARK    9  A    between atoms: C_17  and  C_18
REMARK   10  A    between atoms: C_19  and  C_20
REMARK   11  A    between atoms: C_23  and  O_24
REMARK   12  A    between atoms: C_28  and  C_29
REMARK   13  A    between atoms: C_29  and  O_30
REMARK   14  A    between atoms: C_31  and  O_32
REMARK                            x       y       z     vdW  Elec       q    Type
REMARK                         _______ _______ _______ _____ _____    ______ ____
ROOT
ATOM      1  C   UNL     1      10.070  12.003  20.101  0.00  0.00    +0.000 A 
ATOM      2  C   UNL     1      10.748  13.220  19.861  0.00  0.00    +0.000 A 
ATOM      3  C   UNL     1      11.320  13.510  18.626  0.00  0.00    +0.000 A 
ATOM      4  C   UNL     1      11.164  12.605  17.591  0.00  0.00    +0.000 A 
ATOM      5  C   UNL     1      10.429  11.438  17.774  0.00  0.00    +0.000 A 
ATOM      6  C   UNL     1       9.852  11.119  19.022  0.00  0.00    +0.000 A 
ENDROOT
BRANCH   2   7
ATOM      7  O   UNL     1      10.889  14.197  20.811  0.00  0.00    +0.000 OA
ATOM      8  H   UNL     1      10.124  14.113  21.404  0.00  0.00    +0.000 HD
ENDBRANCH   2   7
BRANCH   4   9
ATOM      9  O   UNL     1      11.705  12.832  16.361  0.00  0.00    +0.000 OA
ATOM     10  H   UNL     1      11.218  12.306  15.705  0.00  0.00    +0.000 HD
ENDBRANCH   4   9
BRANCH   6  11
ATOM     11  C   UNL     1       9.111   9.837  19.061  0.00  0.00    +0.000 C 
ATOM     12  C   UNL     1       8.451   9.265  18.041  0.00  0.00    +0.000 C 
BRANCH  12  13
ATOM     13  C   UNL     1       7.883   7.906  18.098  0.00  0.00    +0.000 A 
ATOM     14  C   UNL     1       6.940   7.516  17.134  0.00  0.00    +0.000 A 
ATOM     15  C   UNL     1       6.429   6.212  17.108  0.00  0.00    +0.000 A 
ATOM     16  C   UNL     1       6.869   5.289  18.047  0.00  0.00    +0.000 A 
ATOM     17  C   UNL     1       7.810   5.643  19.005  0.00  0.00    +0.000 A 
ATOM     18  C   UNL     1       8.322   6.947  19.026  0.00  0.00    +0.000 A 
BRANCH  16  19
ATOM     19  O   UNL     1       6.408   4.005  18.054  0.00  0.00    +0.000 OA
ATOM     20  H   UNL     1       5.468   4.013  17.813  0.00  0.00    +0.000 HD
ENDBRANCH  16  19
ENDBRANCH  12  13
ENDBRANCH   6  11
BRANCH   1  21
ATOM     21  O   UNL     1       9.637  11.625  21.350  0.00  0.00    +0.000 OA
BRANCH  21  24
ATOM     22  C   UNL     1       7.131  13.026  23.831  0.00  0.00    +0.000 C 
ATOM     23  C   UNL     1       8.458  12.377  23.369  0.00  0.00    +0.000 C 
ATOM     24  C   UNL     1       8.446  12.283  21.829  0.00  0.00    +0.000 C 
ATOM     25  O   UNL     1       8.299  13.601  21.302  0.00  0.00    +0.000 OA
ATOM     26  C   UNL     1       7.024  14.178  21.583  0.00  0.00    +0.000 C 
ATOM     27  C   UNL     1       6.868  14.360  23.096  0.00  0.00    +0.000 C 
BRANCH  23  28
ATOM     28  O   UNL     1       8.664  11.090  23.972  0.00  0.00    +0.000 OA
ATOM     29  H   UNL     1       7.807  10.712  24.239  0.00  0.00    +0.000 HD
ENDBRANCH  23  28
BRANCH  27  30
ATOM     30  O   UNL     1       5.569  14.870  23.412  0.00  0.00    +0.000 OA
ATOM     31  H   UNL     1       5.601  15.360  24.253  0.00  0.00    +0.000 HD
ENDBRANCH  27  30
BRANCH  22  32
ATOM     32  O   UNL     1       7.188  13.306  25.250  0.00  0.00    +0.000 OA
BRANCH  32  34
ATOM     33  C   UNL     1       6.216  13.527  27.373  0.00  0.00    +0.000 C 
ATOM     34  C   UNL     1       6.059  13.044  25.962  0.00  0.00    +0.000 C 
ATOM     35  O   UNL     1       5.043  12.536  25.507  0.00  0.00    +0.000 OA
ENDBRANCH  32  34
ENDBRANCH  22  32
BRANCH  26  36
ATOM     36  C   UNL     1       6.980  15.507  20.821  0.00  0.00    +0.000 C 
BRANCH  36  37
ATOM     37  O   UNL     1       7.390  16.566  21.693  0.00  0.00    +0.000 OA
ATOM     38  H   UNL     1       7.094  16.309  22.590  0.00  0.00    +0.000 HD
ENDBRANCH  36  37
ENDBRANCH  26  36
ENDBRANCH  21  24
ENDBRANCH   1  21
TORSDOF 13
ENDMDL
MODEL 4
REMARK VINA RESULT:      -7.0      0.797      1.191
REMARK  Name = 
REMARK  14 active torsions:
REMARK  status: ('A' for Active; 'I' for Inactive)
REMARK    1  A    between atoms: C_1  and  C_2
REMARK    2  A    between atoms: C_2  and  O_4
REMARK    3  A    between atoms: O_4  and  C_5
REMARK    4  A    between atoms: C_6  and  O_7
REMARK    5  A    between atoms: C_8  and  O_9
REMARK    6  A    between atoms: O_9  and  C_10
REMARK    7  A    between atoms: C_11  and  O_12
REMARK    8  A    between atoms: C_14  and  O_15
REMARK    9  A    between atoms: C_17  and  C_18
REMARK   10  A    between atoms: C_19  and  C_20
REMARK   11  A    between atoms: C_23  and  O_24
REMARK   12  A    between atoms: C_28  and  C_29
REMARK   13  A    between atoms: C_29  and  O_30
REMARK   14  A    between atoms: C_31  and  O_32
REMARK                            x       y       z     vdW  Elec       q    Type
REMARK                         _______ _______ _______ _____ _____    ______ ____
ROOT
ATOM      1  C   UNL     1       9.776  12.325  20.172  0.00  0.00    +0.000 A 
ATOM      2  C   UNL     1      10.326  13.609  19.956  0.00  0.00    +0.000 A 
ATOM      3  C   UNL     1      10.772  14.015  18.702  0.00  0.00    +0.000 A 
ATOM      4  C   UNL     1      10.611  13.157  17.629  0.00  0.00    +0.000 A 
ATOM      5  C   UNL     1       9.995  11.921  17.794  0.00  0.00    +0.000 A 
ATOM      6  C   UNL     1       9.549  11.485  19.060  0.00  0.00    +0.000 A 
ENDROOT
BRANCH   2   7
ATOM      7  O   UNL     1      10.459  14.542  20.951  0.00  0.00    +0.000 OA
ATOM      8  H   UNL     1      10.740  14.057  21.744  0.00  0.00    +0.000 HD
ENDBRANCH   2   7
BRANCH   4   9
ATOM      9  O   UNL     1      11.032  13.498  16.378  0.00  0.00    +0.000 OA
ATOM     10  H   UNL     1      12.004  13.507  16.368  0.00  0.00    +0.000 HD
ENDBRANCH   4   9
BRANCH   6  11
ATOM     11  C   UNL     1       8.924  10.142  19.076  0.00  0.00    +0.000 C 
ATOM     12  C   UNL     1       8.430   9.479  18.019  0.00  0.00    +0.000 C 
BRANCH  12  13
ATOM     13  C   UNL     1       7.981   8.075  18.073  0.00  0.00    +0.000 A 
ATOM     14  C   UNL     1       7.180   7.571  17.038  0.00  0.00    +0.000 A 
ATOM     15  C   UNL     1       6.792   6.225  17.013  0.00  0.00    +0.000 A 
ATOM     16  C   UNL     1       7.215   5.376  18.027  0.00  0.00    +0.000 A 
ATOM     17  C   UNL     1       8.019   5.844  19.058  0.00  0.00    +0.000 A 
ATOM     18  C   UNL     1       8.408   7.190  19.077  0.00  0.00    +0.000 A 
BRANCH  16  19
ATOM     19  O   UNL     1       6.871   4.055  18.040  0.00  0.00    +0.000 OA
ATOM     20  H   UNL     1       6.674   3.778  17.130  0.00  0.00    +0.000 HD
ENDBRANCH  16  19
ENDBRANCH  12  13
ENDBRANCH   6  11
BRANCH   1  21
ATOM     21  O   UNL     1       9.477  11.843  21.424  0.00  0.00    +0.000 OA
BRANCH  21  24
ATOM     22  C   UNL     1       6.803  12.551  24.022  0.00  0.00    +0.000 C 
ATOM     23  C   UNL     1       8.216  12.190  23.503  0.00  0.00    +0.000 C 
ATOM     24  C   UNL     1       8.196  12.236  21.961  0.00  0.00    +0.000 C 
ATOM     25  O   UNL     1       7.814  13.550  21.557  0.00  0.00    +0.000 OA
ATOM     26  C   UNL     1       6.462  13.866  21.889  0.00  0.00    +0.000 C 
ATOM     27  C   UNL     1       6.299  13.880  23.412  0.00  0.00    +0.000 C 
BRANCH  23  28
ATOM     28  O   UNL     1       8.652  10.910  23.985  0.00  0.00    +0.000 OA
ATOM     29  H   UNL     1       8.304  10.761  24.882  0.00  0.00    +0.000 HD
ENDBRANCH  23  28
BRANCH  27  30
ATOM     30  O   UNL     1       4.936  14.123  23.773  0.00  0.00    +0.000 OA
ATOM     31  H   UNL     1       4.856  14.996  24.196  0.00  0.00    +0.000 HD
ENDBRANCH  27  30
BRANCH  22  32
ATOM     32  O   UNL     1       6.832  12.706  25.460  0.00  0.00    +0.000 OA
BRANCH  32  34
ATOM     33  C   UNL     1       5.345  10.893  25.435  0.00  0.00    +0.000 C 
ATOM     34  C   UNL     1       6.401  11.643  26.190  0.00  0.00    +0.000 C 
ATOM     35  O   UNL     1       6.846  11.311  27.281  0.00  0.00    +0.000 OA
ENDBRANCH  32  34
ENDBRANCH  22  32
BRANCH  26  36
ATOM     36  C   UNL     1       6.175  15.231  21.253  0.00  0.00    +0.000 C 
BRANCH  36  37
ATOM     37  O   UNL     1       4.759  15.412  21.143  0.00  0.00    +0.000 OA
ATOM     38  H   UNL     1       4.357  14.833  21.823  0.00  0.00    +0.000 HD
ENDBRANCH  36  37
ENDBRANCH  26  36
ENDBRANCH  21  24
ENDBRANCH   1  21
TORSDOF 13
ENDMDL
MODEL 5
REMARK VINA RESULT:      -6.8      6.997     10.405
REMARK  Name = 
REMARK  14 active torsions:
REMARK  status: ('A' for Active; 'I' for Inactive)
REMARK    1  A    between atoms: C_1  and  C_2
REMARK    2  A    between atoms: C_2  and  O_4
REMARK    3  A    between atoms: O_4  and  C_5
REMARK    4  A    between atoms: C_6  and  O_7
REMARK    5  A    between atoms: C_8  and  O_9
REMARK    6  A    between atoms: O_9  and  C_10
REMARK    7  A    between atoms: C_11  and  O_12
REMARK    8  A    between atoms: C_14  and  O_15
REMARK    9  A    between atoms: C_17  and  C_18
REMARK   10  A    between atoms: C_19  and  C_20
REMARK   11  A    between atoms: C_23  and  O_24
REMARK   12  A    between atoms: C_28  and  C_29
REMARK   13  A    between atoms: C_29  and  O_30
REMARK   14  A    between atoms: C_31  and  O_32
REMARK                            x       y       z     vdW  Elec       q    Type
REMARK                         _______ _______ _______ _____ _____    ______ ____
ROOT
ATOM      1  C   UNL     1       0.493  10.507  19.192  0.00  0.00    +0.000 A 
ATOM      2  C   UNL     1       1.369   9.605  18.547  0.00  0.00    +0.000 A 
ATOM      3  C   UNL     1       1.881   8.488  19.198  0.00  0.00    +0.000 A 
ATOM      4  C   UNL     1       1.468   8.223  20.492  0.00  0.00    +0.000 A 
ATOM      5  C   UNL     1       0.540   9.047  21.122  0.00  0.00    +0.000 A 
ATOM      6  C   UNL     1       0.019  10.193  20.484  0.00  0.00    +0.000 A 
ENDROOT
BRANCH   2   7
ATOM      7  O   UNL     1       1.774   9.757  17.247  0.00  0.00    +0.000 OA
ATOM      8  H   UNL     1       1.685  10.703  17.042  0.00  0.00    +0.000 HD
ENDBRANCH   2   7
BRANCH   4   9
ATOM      9  O   UNL     1       1.938   7.146  21.181  0.00  0.00    +0.000 OA
ATOM     10  H   UNL     1       1.754   7.277  22.127  0.00  0.00    +0.000 HD
ENDBRANCH   4   9
BRANCH   6  11
ATOM     11  C   UNL     1      -0.948  10.973  21.289  0.00  0.00    +0.000 C 
ATOM     12  C   UNL     1      -0.711  11.564  22.471  0.00  0.00    +0.000 C 
BRANCH  12  13
ATOM     13  C   UNL     1      -1.664  12.472  23.135  0.00  0.00    +0.000 A 
ATOM     14  C   UNL     1      -1.243  13.760  23.501  0.00  0.00    +0.000 A 
ATOM     15  C   UNL     1      -2.136  14.678  24.068  0.00  0.00    +0.000 A 
ATOM     16  C   UNL     1      -3.460  14.309  24.265  0.00  0.00    +0.000 A 
ATOM     17  C   UNL     1      -3.908  13.046  23.901  0.00  0.00    +0.000 A 
ATOM     18  C   UNL     1      -3.013  12.130  23.331  0.00  0.00    +0.000 A 
BRANCH  16  19
ATOM     19  O   UNL     1      -4.368  15.173  24.804  0.00  0.00    +0.000 OA
ATOM     20  H   UNL     1      -5.261  14.845  24.610  0.00  0.00    +0.000 HD
ENDBRANCH  16  19
ENDBRANCH  12  13
ENDBRANCH   6  11
BRANCH   1  21
ATOM     21  O   UNL     1       0.101  11.699  18.628  0.00  0.00    +0.000 OA
BRANCH  21  24
ATOM     22  C   UNL     1       2.413  14.708  18.714  0.00  0.00    +0.000 C 
ATOM     23  C   UNL     1       1.696  13.487  18.087  0.00  0.00    +0.000 C 
ATOM     24  C   UNL     1       0.748  12.882  19.143  0.00  0.00    +0.000 C 
ATOM     25  O   UNL     1      -0.184  13.887  19.537  0.00  0.00    +0.000 OA
ATOM     26  C   UNL     1       0.422  14.964  20.252  0.00  0.00    +0.000 C 
ATOM     27  C   UNL     1       1.402  15.700  19.333  0.00  0.00    +0.000 C 
BRANCH  23  28
ATOM     28  O   UNL     1       2.628  12.511  17.597  0.00  0.00    +0.000 OA
ATOM     29  H   UNL     1       3.120  12.878  16.841  0.00  0.00    +0.000 HD
ENDBRANCH  23  28
BRANCH  27  30
ATOM     30  O   UNL     1       2.079  16.740  20.046  0.00  0.00    +0.000 OA
ATOM     31  H   UNL     1       3.016  16.506  20.162  0.00  0.00    +0.000 HD
ENDBRANCH  27  30
BRANCH  22  32
ATOM     32  O   UNL     1       3.162  15.414  17.697  0.00  0.00    +0.000 OA
BRANCH  32  34
ATOM     33  C   UNL     1       5.414  14.785  17.869  0.00  0.00    +0.000 C 
ATOM     34  C   UNL     1       4.392  15.866  18.059  0.00  0.00    +0.000 C 
ATOM     35  O   UNL     1       4.641  17.003  18.437  0.00  0.00    +0.000 OA
ENDBRANCH  32  34
ENDBRANCH  22  32
BRANCH  26  36
ATOM     36  C   UNL     1      -0.727  15.860  20.729  0.00  0.00    +0.000 C 
BRANCH  36  37
ATOM     37  O   UNL     1      -1.940  15.453  20.087  0.00  0.00    +0.000 OA
ATOM     38  H   UNL     1      -1.835  15.674  19.139  0.00  0.00    +0.000 HD
ENDBRANCH  36  37
ENDBRANCH  26  36
ENDBRANCH  21  24
ENDBRANCH   1  21
TORSDOF 13
ENDMDL
MODEL 6
REMARK VINA RESULT:      -6.7      8.876     10.355
REMARK  Name = 
REMARK  14 active torsions:
REMARK  status: ('A' for Active; 'I' for Inactive)
REMARK    1  A    between atoms: C_1  and  C_2
REMARK    2  A    between atoms: C_2  and  O_4
REMARK    3  A    between atoms: O_4  and  C_5
REMARK    4  A    between atoms: C_6  and  O_7
REMARK    5  A    between atoms: C_8  and  O_9
REMARK    6  A    between atoms: O_9  and  C_10
REMARK    7  A    between atoms: C_11  and  O_12
REMARK    8  A    between atoms: C_14  and  O_15
REMARK    9  A    between atoms: C_17  and  C_18
REMARK   10  A    between atoms: C_19  and  C_20
REMARK   11  A    between atoms: C_23  and  O_24
REMARK   12  A    between atoms: C_28  and  C_29
REMARK   13  A    between atoms: C_29  and  O_30
REMARK   14  A    between atoms: C_31  and  O_32
REMARK                            x       y       z     vdW  Elec       q    Type
REMARK                         _______ _______ _______ _____ _____    ______ ____
ROOT
ATOM      1  C   UNL     1      -0.021  12.454  19.512  0.00  0.00    +0.000 A 
ATOM      2  C   UNL     1       0.011  13.827  19.180  0.00  0.00    +0.000 A 
ATOM      3  C   UNL     1       1.111  14.405  18.554  0.00  0.00    +0.000 A 
ATOM      4  C   UNL     1       2.173  13.595  18.192  0.00  0.00    +0.000 A 
ATOM      5  C   UNL     1       2.132  12.225  18.428  0.00  0.00    +0.000 A 
ATOM      6  C   UNL     1       1.032  11.622  19.074  0.00  0.00    +0.000 A 
ENDROOT
BRANCH   2   7
ATOM      7  O   UNL     1      -1.025  14.684  19.443  0.00  0.00    +0.000 OA
ATOM      8  H   UNL     1      -0.629  15.475  19.844  0.00  0.00    +0.000 HD
ENDBRANCH   2   7
BRANCH   4   9
ATOM      9  O   UNL     1       3.278  14.105  17.579  0.00  0.00    +0.000 OA
ATOM     10  H   UNL     1       4.055  13.594  17.863  0.00  0.00    +0.000 HD
ENDBRANCH   4   9
BRANCH   6  11
ATOM     11  C   UNL     1       1.143  10.157  19.264  0.00  0.00    +0.000 C 
ATOM     12  C   UNL     1       1.861   9.306  18.513  0.00  0.00    +0.000 C 
BRANCH  12  13
ATOM     13  C   UNL     1       2.069   7.888  18.860  0.00  0.00    +0.000 A 
ATOM     14  C   UNL     1       1.816   7.459  20.172  0.00  0.00    +0.000 A 
ATOM     15  C   UNL     1       1.931   6.109  20.526  0.00  0.00    +0.000 A 
ATOM     16  C   UNL     1       2.294   5.180  19.560  0.00  0.00    +0.000 A 
ATOM     17  C   UNL     1       2.538   5.574  18.251  0.00  0.00    +0.000 A 
ATOM     18  C   UNL     1       2.419   6.925  17.900  0.00  0.00    +0.000 A 
BRANCH  16  19
ATOM     19  O   UNL     1       2.408   3.852  19.856  0.00  0.00    +0.000 OA
ATOM     20  H   UNL     1       1.519   3.490  20.001  0.00  0.00    +0.000 HD
ENDBRANCH  16  19
ENDBRANCH  12  13
ENDBRANCH   6  11
BRANCH   1  21
ATOM     21  O   UNL     1      -1.022  11.893  20.270  0.00  0.00    +0.000 OA
BRANCH  21  24
ATOM     22  C   UNL     1      -4.617  11.988  19.058  0.00  0.00    +0.000 C 
ATOM     23  C   UNL     1      -3.354  12.499  19.793  0.00  0.00    +0.000 C 
ATOM     24  C   UNL     1      -2.208  11.495  19.550  0.00  0.00    +0.000 C 
ATOM     25  O   UNL     1      -1.988  11.398  18.144  0.00  0.00    +0.000 OA
ATOM     26  C   UNL     1      -3.077  10.792  17.448  0.00  0.00    +0.000 C 
ATOM     27  C   UNL     1      -4.320  11.679  17.572  0.00  0.00    +0.000 C 
BRANCH  23  28
ATOM     28  O   UNL     1      -3.592  12.695  21.195  0.00  0.00    +0.000 OA
ATOM     29  H   UNL     1      -4.367  12.173  21.472  0.00  0.00    +0.000 HD
ENDBRANCH  23  28
BRANCH  27  30
ATOM     30  O   UNL     1      -5.447  11.060  16.944  0.00  0.00    +0.000 OA
ATOM     31  H   UNL     1      -6.179  10.982  17.581  0.00  0.00    +0.000 HD
ENDBRANCH  27  30
BRANCH  22  32
ATOM     32  O   UNL     1      -5.653  12.997  19.102  0.00  0.00    +0.000 OA
BRANCH  32  34
ATOM     33  C   UNL     1      -6.746  11.220  20.174  0.00  0.00    +0.000 C 
ATOM     34  C   UNL     1      -6.792  12.662  19.766  0.00  0.00    +0.000 C 
ATOM     35  O   UNL     1      -7.700  13.436  20.040  0.00  0.00    +0.000 OA
ENDBRANCH  32  34
ENDBRANCH  22  32
BRANCH  26  36
ATOM     36  C   UNL     1      -2.615  10.625  15.995  0.00  0.00    +0.000 C 
BRANCH  36  37
ATOM     37  O   UNL     1      -3.252  11.613  15.180  0.00  0.00    +0.000 OA
ATOM     38  H   UNL     1      -2.534  12.166  14.810  0.00  0.00    +0.000 HD
ENDBRANCH  36  37
ENDBRANCH  26  36
ENDBRANCH  21  24
ENDBRANCH   1  21
TORSDOF 13
ENDMDL
MODEL 7
REMARK VINA RESULT:      -6.7      6.555     11.345
REMARK  Name = 
REMARK  14 active torsions:
REMARK  status: ('A' for Active; 'I' for Inactive)
REMARK    1  A    between atoms: C_1  and  C_2
REMARK    2  A    between atoms: C_2  and  O_4
REMARK    3  A    between atoms: O_4  and  C_5
REMARK    4  A    between atoms: C_6  and  O_7
REMARK    5  A    between atoms: C_8  and  O_9
REMARK    6  A    between atoms: O_9  and  C_10
REMARK    7  A    between atoms: C_11  and  O_12
REMARK    8  A    between atoms: C_14  and  O_15
REMARK    9  A    between atoms: C_17  and  C_18
REMARK   10  A    between atoms: C_19  and  C_20
REMARK   11  A    between atoms: C_23  and  O_24
REMARK   12  A    between atoms: C_28  and  C_29
REMARK   13  A    between atoms: C_29  and  O_30
REMARK   14  A    between atoms: C_31  and  O_32
REMARK                            x       y       z     vdW  Elec       q    Type
REMARK                         _______ _______ _______ _____ _____    ______ ____
ROOT
ATOM      1  C   UNL     1       2.439   4.058  18.730  0.00  0.00    +0.000 A 
ATOM      2  C   UNL     1       2.244   2.666  18.876  0.00  0.00    +0.000 A 
ATOM      3  C   UNL     1       1.807   2.108  20.073  0.00  0.00    +0.000 A 
ATOM      4  C   UNL     1       1.497   2.950  21.125  0.00  0.00    +0.000 A 
ATOM      5  C   UNL     1       1.598   4.331  20.983  0.00  0.00    +0.000 A 
ATOM      6  C   UNL     1       2.052   4.915  19.782  0.00  0.00    +0.000 A 
ENDROOT
BRANCH   2   7
ATOM      7  O   UNL     1       2.463   1.770  17.862  0.00  0.00    +0.000 OA
ATOM      8  H   UNL     1       2.604   0.908  18.287  0.00  0.00    +0.000 HD
ENDBRANCH   2   7
BRANCH   4   9
ATOM      9  O   UNL     1       1.068   2.462  22.323  0.00  0.00    +0.000 OA
ATOM     10  H   UNL     1       0.464   3.109  22.725  0.00  0.00    +0.000 HD
ENDBRANCH   4   9
BRANCH   6  11
ATOM     11  C   UNL     1       2.116   6.395  19.790  0.00  0.00    +0.000 C 
ATOM     12  C   UNL     1       1.731   7.217  18.800  0.00  0.00    +0.000 C 
BRANCH  12  13
ATOM     13  C   UNL     1       1.657   8.682  18.939  0.00  0.00    +0.000 A 
ATOM     14  C   UNL     1       2.185   9.495  17.923  0.00  0.00    +0.000 A 
ATOM     15  C   UNL     1       2.071  10.889  17.980  0.00  0.00    +0.000 A 
ATOM     16  C   UNL     1       1.420  11.477  19.057  0.00  0.00    +0.000 A 
ATOM     17  C   UNL     1       0.878  10.697  20.071  0.00  0.00    +0.000 A 
ATOM     18  C   UNL     1       0.990   9.302  20.008  0.00  0.00    +0.000 A 
BRANCH  16  19
ATOM     19  O   UNL     1       1.276  12.830  19.150  0.00  0.00    +0.000 OA
ATOM     20  H   UNL     1       2.055  13.252  18.755  0.00  0.00    +0.000 HD
ENDBRANCH  16  19
ENDBRANCH  12  13
ENDBRANCH   6  11
BRANCH   1  21
ATOM     21  O   UNL     1       3.020   4.616  17.615  0.00  0.00    +0.000 OA
BRANCH  21  24
ATOM     22  C   UNL     1       6.437   4.585  15.963  0.00  0.00    +0.000 C 
ATOM     23  C   UNL     1       4.929   4.909  16.097  0.00  0.00    +0.000 C 
ATOM     24  C   UNL     1       4.439   4.395  17.467  0.00  0.00    +0.000 C 
ATOM     25  O   UNL     1       5.202   5.039  18.485  0.00  0.00    +0.000 OA
ATOM     26  C   UNL     1       6.575   4.649  18.486  0.00  0.00    +0.000 C 
ATOM     27  C   UNL     1       7.236   5.102  17.181  0.00  0.00    +0.000 C 
BRANCH  23  28
ATOM     28  O   UNL     1       4.162   4.348  15.021  0.00  0.00    +0.000 OA
ATOM     29  H   UNL     1       3.291   4.064  15.352  0.00  0.00    +0.000 HD
ENDBRANCH  23  28
BRANCH  27  30
ATOM     30  O   UNL     1       8.596   4.660  17.124  0.00  0.00    +0.000 OA
ATOM     31  H   UNL     1       8.697   3.989  16.426  0.00  0.00    +0.000 HD
ENDBRANCH  27  30
BRANCH  22  32
ATOM     32  O   UNL     1       6.973   5.221  14.779  0.00  0.00    +0.000 OA
BRANCH  32  34
ATOM     33  C   UNL     1       7.778   5.142  12.578  0.00  0.00    +0.000 C 
ATOM     34  C   UNL     1       6.939   4.487  13.634  0.00  0.00    +0.000 C 
ATOM     35  O   UNL     1       6.353   3.421  13.498  0.00  0.00    +0.000 OA
ENDBRANCH  32  34
ENDBRANCH  22  32
BRANCH  26  36
ATOM     36  C   UNL     1       7.203   5.303  19.723  0.00  0.00    +0.000 C 
BRANCH  36  37
ATOM     37  O   UNL     1       8.168   6.274  19.305  0.00  0.00    +0.000 OA
ATOM     38  H   UNL     1       8.884   6.252  19.973  0.00  0.00    +0.000 HD
ENDBRANCH  36  37
ENDBRANCH  26  36
ENDBRANCH  21  24
ENDBRANCH   1  21
TORSDOF 13
ENDMDL
MODEL 8
REMARK VINA RESULT:      -6.6      8.852     10.349
REMARK  Name = 
REMARK  14 active torsions:
REMARK  status: ('A' for Active; 'I' for Inactive)
REMARK    1  A    between atoms: C_1  and  C_2
REMARK    2  A    between atoms: C_2  and  O_4
REMARK    3  A    between atoms: O_4  and  C_5
REMARK    4  A    between atoms: C_6  and  O_7
REMARK    5  A    between atoms: C_8  and  O_9
REMARK    6  A    between atoms: O_9  and  C_10
REMARK    7  A    between atoms: C_11  and  O_12
REMARK    8  A    between atoms: C_14  and  O_15
REMARK    9  A    between atoms: C_17  and  C_18
REMARK   10  A    between atoms: C_19  and  C_20
REMARK   11  A    between atoms: C_23  and  O_24
REMARK   12  A    between atoms: C_28  and  C_29
REMARK   13  A    between atoms: C_29  and  O_30
REMARK   14  A    between atoms: C_31  and  O_32
REMARK                            x       y       z     vdW  Elec       q    Type
REMARK                         _______ _______ _______ _____ _____    ______ ____
ROOT
ATOM      1  C   UNL     1       0.062  12.356  19.469  0.00  0.00    +0.000 A 
ATOM      2  C   UNL     1       0.137  13.733  19.158  0.00  0.00    +0.000 A 
ATOM      3  C   UNL     1       1.246  14.282  18.524  0.00  0.00    +0.000 A 
ATOM      4  C   UNL     1       2.274  13.442  18.133  0.00  0.00    +0.000 A 
ATOM      5  C   UNL     1       2.190  12.071  18.350  0.00  0.00    +0.000 A 
ATOM      6  C   UNL     1       1.080  11.495  19.004  0.00  0.00    +0.000 A 
ENDROOT
BRANCH   2   7
ATOM      7  O   UNL     1      -0.865  14.620  19.449  0.00  0.00    +0.000 OA
ATOM      8  H   UNL     1      -1.697  14.121  19.392  0.00  0.00    +0.000 HD
ENDBRANCH   2   7
BRANCH   4   9
ATOM      9  O   UNL     1       3.388  13.923  17.512  0.00  0.00    +0.000 OA
ATOM     10  H   UNL     1       3.555  14.827  17.829  0.00  0.00    +0.000 HD
ENDBRANCH   4   9
BRANCH   6  11
ATOM     11  C   UNL     1       1.143  10.025  19.170  0.00  0.00    +0.000 C 
ATOM     12  C   UNL     1       1.973   9.184  18.532  0.00  0.00    +0.000 C 
BRANCH  12  13
ATOM     13  C   UNL     1       2.105   7.755  18.871  0.00  0.00    +0.000 A 
ATOM     14  C   UNL     1       2.603   6.865  17.907  0.00  0.00    +0.000 A 
ATOM     15  C   UNL     1       2.812   5.514  18.209  0.00  0.00    +0.000 A 
ATOM     16  C   UNL     1       2.529   5.050  19.488  0.00  0.00    +0.000 A 
ATOM     17  C   UNL     1       2.047   5.910  20.465  0.00  0.00    +0.000 A 
ATOM     18  C   UNL     1       1.842   7.262  20.160  0.00  0.00    +0.000 A 
BRANCH  16  19
ATOM     19  O   UNL     1       2.727   3.745  19.832  0.00  0.00    +0.000 OA
ATOM     20  H   UNL     1       1.995   3.461  20.403  0.00  0.00    +0.000 HD
ENDBRANCH  16  19
ENDBRANCH  12  13
ENDBRANCH   6  11
BRANCH   1  21
ATOM     21  O   UNL     1      -0.946  11.818  20.234  0.00  0.00    +0.000 OA
BRANCH  21  24
ATOM     22  C   UNL     1      -4.545  11.998  19.044  0.00  0.00    +0.000 C 
ATOM     23  C   UNL     1      -3.266  12.479  19.771  0.00  0.00    +0.000 C 
ATOM     24  C   UNL     1      -2.146  11.447  19.523  0.00  0.00    +0.000 C 
ATOM     25  O   UNL     1      -1.937  11.343  18.115  0.00  0.00    +0.000 OA
ATOM     26  C   UNL     1      -3.045  10.763  17.427  0.00  0.00    +0.000 C 
ATOM     27  C   UNL     1      -4.265  11.679  17.557  0.00  0.00    +0.000 C 
BRANCH  23  28
ATOM     28  O   UNL     1      -3.491  12.683  21.174  0.00  0.00    +0.000 OA
ATOM     29  H   UNL     1      -3.149  13.556  21.438  0.00  0.00    +0.000 HD
ENDBRANCH  23  28
BRANCH  27  30
ATOM     30  O   UNL     1      -5.411  11.087  16.937  0.00  0.00    +0.000 OA
ATOM     31  H   UNL     1      -6.141  11.030  17.578  0.00  0.00    +0.000 HD
ENDBRANCH  27  30
BRANCH  22  32
ATOM     32  O   UNL     1      -5.557  13.032  19.093  0.00  0.00    +0.000 OA
BRANCH  32  34
ATOM     33  C   UNL     1      -7.878  13.270  18.855  0.00  0.00    +0.000 C 
ATOM     34  C   UNL     1      -6.749  12.683  19.648  0.00  0.00    +0.000 C 
ATOM     35  O   UNL     1      -6.885  11.952  20.621  0.00  0.00    +0.000 OA
ENDBRANCH  32  34
ENDBRANCH  22  32
BRANCH  26  36
ATOM     36  C   UNL     1      -2.596  10.583  15.972  0.00  0.00    +0.000 C 
BRANCH  36  37
ATOM     37  O   UNL     1      -3.231  11.571  15.155  0.00  0.00    +0.000 OA
ATOM     38  H   UNL     1      -4.070  11.799  15.607  0.00  0.00    +0.000 HD
ENDBRANCH  36  37
ENDBRANCH  26  36
ENDBRANCH  21  24
ENDBRANCH   1  21
TORSDOF 13
ENDMDL
MODEL 9
REMARK VINA RESULT:      -6.6      8.596     12.259
REMARK  Name = 
REMARK  14 active torsions:
REMARK  status: ('A' for Active; 'I' for Inactive)
REMARK    1  A    between atoms: C_1  and  C_2
REMARK    2  A    between atoms: C_2  and  O_4
REMARK    3  A    between atoms: O_4  and  C_5
REMARK    4  A    between atoms: C_6  and  O_7
REMARK    5  A    between atoms: C_8  and  O_9
REMARK    6  A    between atoms: O_9  and  C_10
REMARK    7  A    between atoms: C_11  and  O_12
REMARK    8  A    between atoms: C_14  and  O_15
REMARK    9  A    between atoms: C_17  and  C_18
REMARK   10  A    between atoms: C_19  and  C_20
REMARK   11  A    between atoms: C_23  and  O_24
REMARK   12  A    between atoms: C_28  and  C_29
REMARK   13  A    between atoms: C_29  and  O_30
REMARK   14  A    between atoms: C_31  and  O_32
REMARK                            x       y       z     vdW  Elec       q    Type
REMARK                         _______ _______ _______ _____ _____    ______ ____
ROOT
ATOM      1  C   UNL     1      -2.188  11.606  18.421  0.00  0.00    +0.000 A 
ATOM      2  C   UNL     1      -2.681  11.201  17.159  0.00  0.00    +0.000 A 
ATOM      3  C   UNL     1      -4.044  11.124  16.894  0.00  0.00    +0.000 A 
ATOM      4  C   UNL     1      -4.936  11.515  17.877  0.00  0.00    +0.000 A 
ATOM      5  C   UNL     1      -4.479  11.999  19.098  0.00  0.00    +0.000 A 
ATOM      6  C   UNL     1      -3.101  12.073  19.391  0.00  0.00    +0.000 A 
ENDROOT
BRANCH   2   7
ATOM      7  O   UNL     1      -1.865  10.861  16.112  0.00  0.00    +0.000 OA
ATOM      8  H   UNL     1      -1.016  10.597  16.503  0.00  0.00    +0.000 HD
ENDBRANCH   2   7
BRANCH   4   9
ATOM      9  O   UNL     1      -6.283  11.458  17.677  0.00  0.00    +0.000 OA
ATOM     10  H   UNL     1      -6.491  10.644  17.187  0.00  0.00    +0.000 HD
ENDBRANCH   4   9
BRANCH   6  11
ATOM     11  C   UNL     1      -2.773  12.598  20.737  0.00  0.00    +0.000 C 
ATOM     12  C   UNL     1      -2.471  13.869  21.046  0.00  0.00    +0.000 C 
BRANCH  12  13
ATOM     13  C   UNL     1      -2.327  14.360  22.429  0.00  0.00    +0.000 A 
ATOM     14  C   UNL     1      -3.355  14.118  23.353  0.00  0.00    +0.000 A 
ATOM     15  C   UNL     1      -3.228  14.503  24.694  0.00  0.00    +0.000 A 
ATOM     16  C   UNL     1      -2.061  15.128  25.115  0.00  0.00    +0.000 A 
ATOM     17  C   UNL     1      -1.023  15.370  24.226  0.00  0.00    +0.000 A 
ATOM     18  C   UNL     1      -1.152  14.980  22.886  0.00  0.00    +0.000 A 
BRANCH  16  19
ATOM     19  O   UNL     1      -1.888  15.511  26.413  0.00  0.00    +0.000 OA
ATOM     20  H   UNL     1      -1.139  16.128  26.457  0.00  0.00    +0.000 HD
ENDBRANCH  16  19
ENDBRANCH  12  13
ENDBRANCH   6  11
BRANCH   1  21
ATOM     21  O   UNL     1      -0.857  11.538  18.758  0.00  0.00    +0.000 OA
BRANCH  21  24
ATOM     22  C   UNL     1       1.336   8.489  19.304  0.00  0.00    +0.000 C 
ATOM     23  C   UNL     1       0.943   9.867  18.718  0.00  0.00    +0.000 C 
ATOM     24  C   UNL     1      -0.414  10.286  19.322  0.00  0.00    +0.000 C 
ATOM     25  O   UNL     1      -0.274  10.343  20.740  0.00  0.00    +0.000 OA
ATOM     26  C   UNL     1      -0.057   9.063  21.334  0.00  0.00    +0.000 C 
ATOM     27  C   UNL     1       1.280   8.494  20.849  0.00  0.00    +0.000 C 
BRANCH  23  28
ATOM     28  O   UNL     1       0.895   9.846  17.284  0.00  0.00    +0.000 OA
ATOM     29  H   UNL     1       0.251  10.504  16.967  0.00  0.00    +0.000 HD
ENDBRANCH  23  28
BRANCH  27  30
ATOM     30  O   UNL     1       1.489   7.179  21.372  0.00  0.00    +0.000 OA
ATOM     31  H   UNL     1       1.164   6.515  20.738  0.00  0.00    +0.000 HD
ENDBRANCH  27  30
BRANCH  22  32
ATOM     32  O   UNL     1       2.688   8.155  18.910  0.00  0.00    +0.000 OA
BRANCH  32  34
ATOM     33  C   UNL     1       4.052   6.964  17.420  0.00  0.00    +0.000 C 
ATOM     34  C   UNL     1       2.865   6.935  18.335  0.00  0.00    +0.000 C 
ATOM     35  O   UNL     1       2.187   5.943  18.569  0.00  0.00    +0.000 OA
ENDBRANCH  32  34
ENDBRANCH  22  32
BRANCH  26  36
ATOM     36  C   UNL     1      -0.087   9.286  22.851  0.00  0.00    +0.000 C 
BRANCH  36  37
ATOM     37  O   UNL     1      -0.137  10.691  23.121  0.00  0.00    +0.000 OA
ATOM     38  H   UNL     1       0.404  10.833  23.924  0.00  0.00    +0.000 HD
ENDBRANCH  36  37
ENDBRANCH  26  36
ENDBRANCH  21  24
ENDBRANCH   1  21
TORSDOF 13
ENDMDL
