MODEL 1
REMARK VINA RESULT:      -9.1      0.000      0.000
REMARK  Name = 
REMARK  6 active torsions:
REMARK  status: ('A' for Active; 'I' for Inactive)
REMARK    1  A    between atoms: C_1  and  N_2
REMARK    2  A    between atoms: C_3  and  O_4
REMARK    3  A    between atoms: O_4  and  C_5
REMARK    4  A    between atoms: C_5  and  C_6
REMARK    5  A    between atoms: C_8  and  C_9
REMARK    6  A    between atoms: C_20  and  C_21
REMARK                            x       y       z     vdW  Elec       q    Type
REMARK                         _______ _______ _______ _____ _____    ______ ____
ROOT
ATOM      1  C   UNL     1       4.616   4.289  17.248  0.00  0.00    +0.000 C 
ATOM      2  N   UNL     1       3.973   5.538  17.554  0.00  0.00    +0.000 N 
ATOM      3  C   UNL     1       4.321   6.786  17.106  0.00  0.00    +0.000 A 
ATOM      4  N   UNL     1       3.491   7.675  17.606  0.00  0.00    +0.000 NA
ATOM      5  N   UNL     1       2.589   7.015  18.396  0.00  0.00    +0.000 NA
ATOM      6  C   UNL     1       2.876   5.729  18.366  0.00  0.00    +0.000 A 
ENDROOT
BRANCH   6   7
ATOM      7  C   UNL     1       2.221   4.646  19.011  0.00  0.00    +0.000 A 
ATOM      8  C   UNL     1       1.214   3.821  18.359  0.00  0.00    +0.000 A 
ATOM      9  C   UNL     1       0.585   2.857  19.041  0.00  0.00    +0.000 A 
ATOM     10  N   UNL     1       0.892   2.634  20.357  0.00  0.00    +0.000 N 
ATOM     11  C   UNL     1       1.813   3.365  21.064  0.00  0.00    +0.000 A 
ATOM     12  O   UNL     1       2.081   3.144  22.240  0.00  0.00    +0.000 OA
ATOM     13  C   UNL     1       2.498   4.446  20.311  0.00  0.00    +0.000 A 
ATOM     14  H   UNL     1       0.411   1.912  20.881  0.00  0.00    +0.000 HD
ENDBRANCH   6   7
BRANCH   3  15
ATOM     15  O   UNL     1       5.345   7.057  16.297  0.00  0.00    +0.000 OA
BRANCH  15  16
ATOM     16  C   UNL     1       6.574   6.439  16.737  0.00  0.00    +0.000 C 
BRANCH  16  17
ATOM     17  C   UNL     1       7.407   7.339  17.588  0.00  0.00    +0.000 A 
ATOM     18  C   UNL     1       7.672   8.716  17.401  0.00  0.00    +0.000 A 
ATOM     19  C   UNL     1       8.529   9.057  18.424  0.00  0.00    +0.000 A 
ATOM     20  O   UNL     1       8.781   7.939  19.164  0.00  0.00    +0.000 OA
ATOM     21  N   UNL     1       8.082   6.863  18.643  0.00  0.00    +0.000 NA
BRANCH  19  22
ATOM     22  C   UNL     1       9.153  10.301  18.866  0.00  0.00    +0.000 A 
ATOM     23  C   UNL     1       9.184  10.679  20.218  0.00  0.00    +0.000 A 
ATOM     24  C   UNL     1       9.728  11.908  20.608  0.00  0.00    +0.000 A 
ATOM     25  C   UNL     1      10.251  12.777  19.652  0.00  0.00    +0.000 A 
ATOM     26  C   UNL     1      10.243  12.403  18.312  0.00  0.00    +0.000 A 
ATOM     27 CL   UNL     1      10.879  13.470  17.122  0.00  0.00    +0.000 Cl
ATOM     28  C   UNL     1       9.706  11.176  17.919  0.00  0.00    +0.000 A 
ENDBRANCH  19  22
ENDBRANCH  16  17
ENDBRANCH  15  16
ENDBRANCH   3  15
TORSDOF 5
ENDMDL
MODEL 2
REMARK VINA RESULT:      -8.8      1.026      1.061
REMARK  Name = 
REMARK  6 active torsions:
REMARK  status: ('A' for Active; 'I' for Inactive)
REMARK    1  A    between atoms: C_1  and  N_2
REMARK    2  A    between atoms: C_3  and  O_4
REMARK    3  A    between atoms: O_4  and  C_5
REMARK    4  A    between atoms: C_5  and  C_6
REMARK    5  A    between atoms: C_8  and  C_9
REMARK    6  A    between atoms: C_20  and  C_21
REMARK                            x       y       z     vdW  Elec       q    Type
REMARK                         _______ _______ _______ _____ _____    ______ ____
ROOT
ATOM      1  C   UNL     1       5.206   3.614  18.195  0.00  0.00    +0.000 C 
ATOM      2  N   UNL     1       4.551   4.876  17.980  0.00  0.00    +0.000 N 
ATOM      3  C   UNL     1       5.054   5.979  17.341  0.00  0.00    +0.000 A 
ATOM      4  N   UNL     1       4.153   6.936  17.347  0.00  0.00    +0.000 NA
ATOM      5  N   UNL     1       3.044   6.468  18.000  0.00  0.00    +0.000 NA
ATOM      6  C   UNL     1       3.281   5.228  18.381  0.00  0.00    +0.000 A 
ENDROOT
BRANCH   6   7
ATOM      7  C   UNL     1       2.433   4.325  19.076  0.00  0.00    +0.000 A 
ATOM      8  C   UNL     1       1.309   3.644  18.450  0.00  0.00    +0.000 A 
ATOM      9  C   UNL     1       0.508   2.854  19.174  0.00  0.00    +0.000 A 
ATOM     10  N   UNL     1       0.746   2.675  20.511  0.00  0.00    +0.000 N 
ATOM     11  C   UNL     1       1.769   3.281  21.196  0.00  0.00    +0.000 A 
ATOM     12  O   UNL     1       1.971   3.101  22.391  0.00  0.00    +0.000 OA
ATOM     13  C   UNL     1       2.646   4.171  20.394  0.00  0.00    +0.000 A 
ATOM     14  H   UNL     1       0.136   2.086  21.065  0.00  0.00    +0.000 HD
ENDBRANCH   6   7
BRANCH   3  15
ATOM     15  O   UNL     1       6.271   6.070  16.804  0.00  0.00    +0.000 OA
BRANCH  15  16
ATOM     16  C   UNL     1       7.301   6.260  17.799  0.00  0.00    +0.000 C 
BRANCH  16  17
ATOM     17  C   UNL     1       7.757   7.678  17.903  0.00  0.00    +0.000 A 
ATOM     18  C   UNL     1       8.687   8.228  18.815  0.00  0.00    +0.000 A 
ATOM     19  C   UNL     1       8.714   9.575  18.528  0.00  0.00    +0.000 A 
ATOM     20  O   UNL     1       7.830   9.817  17.518  0.00  0.00    +0.000 OA
ATOM     21  N   UNL     1       7.229   8.632  17.125  0.00  0.00    +0.000 NA
BRANCH  19  22
ATOM     22  C   UNL     1       9.476  10.714  19.031  0.00  0.00    +0.000 A 
ATOM     23  C   UNL     1       9.712  10.905  20.403  0.00  0.00    +0.000 A 
ATOM     24  C   UNL     1      10.386  12.041  20.865  0.00  0.00    +0.000 A 
ATOM     25  C   UNL     1      10.837  13.002  19.963  0.00  0.00    +0.000 A 
ATOM     26  C   UNL     1      10.626  12.813  18.601  0.00  0.00    +0.000 A 
ATOM     27 CL   UNL     1      11.172  13.997  17.477  0.00  0.00    +0.000 Cl
ATOM     28  C   UNL     1       9.959  11.679  18.135  0.00  0.00    +0.000 A 
ENDBRANCH  19  22
ENDBRANCH  16  17
ENDBRANCH  15  16
ENDBRANCH   3  15
TORSDOF 5
ENDMDL
MODEL 3
REMARK VINA RESULT:      -8.7      7.481      9.331
REMARK  Name = 
REMARK  6 active torsions:
REMARK  status: ('A' for Active; 'I' for Inactive)
REMARK    1  A    between atoms: C_1  and  N_2
REMARK    2  A    between atoms: C_3  and  O_4
REMARK    3  A    between atoms: O_4  and  C_5
REMARK    4  A    between atoms: C_5  and  C_6
REMARK    5  A    between atoms: C_8  and  C_9
REMARK    6  A    between atoms: C_20  and  C_21
REMARK                            x       y       z     vdW  Elec       q    Type
REMARK                         _______ _______ _______ _____ _____    ______ ____
ROOT
ATOM      1  C   UNL     1      -1.187  13.304  20.507  0.00  0.00    +0.000 C 
ATOM      2  N   UNL     1      -0.645  12.289  21.369  0.00  0.00    +0.000 N 
ATOM      3  C   UNL     1       0.360  11.402  21.083  0.00  0.00    +0.000 A 
ATOM      4  N   UNL     1       0.572  10.633  22.128  0.00  0.00    +0.000 NA
ATOM      5  N   UNL     1      -0.302  11.006  23.113  0.00  0.00    +0.000 NA
ATOM      6  C   UNL     1      -1.035  12.004  22.659  0.00  0.00    +0.000 A 
ENDROOT
BRANCH   6   7
ATOM      7  C   UNL     1      -2.062  12.734  23.314  0.00  0.00    +0.000 A 
ATOM      8  C   UNL     1      -1.897  14.106  23.773  0.00  0.00    +0.000 A 
ATOM      9  C   UNL     1      -2.880  14.719  24.442  0.00  0.00    +0.000 A 
ATOM     10  N   UNL     1      -4.055  14.060  24.692  0.00  0.00    +0.000 N 
ATOM     11  C   UNL     1      -4.303  12.763  24.315  0.00  0.00    +0.000 A 
ATOM     12  O   UNL     1      -5.364  12.193  24.541  0.00  0.00    +0.000 OA
ATOM     13  C   UNL     1      -3.204  12.079  23.588  0.00  0.00    +0.000 A 
ATOM     14  H   UNL     1      -4.799  14.515  25.207  0.00  0.00    +0.000 HD
ENDBRANCH   6   7
BRANCH   3  15
ATOM     15  O   UNL     1       1.014  11.327  19.924  0.00  0.00    +0.000 OA
BRANCH  15  16
ATOM     16  C   UNL     1       0.486  10.300  19.057  0.00  0.00    +0.000 C 
BRANCH  16  17
ATOM     17  C   UNL     1       1.354   9.087  18.992  0.00  0.00    +0.000 A 
ATOM     18  C   UNL     1       1.996   8.536  17.860  0.00  0.00    +0.000 A 
ATOM     19  C   UNL     1       2.625   7.401  18.322  0.00  0.00    +0.000 A 
ATOM     20  O   UNL     1       2.349   7.270  19.652  0.00  0.00    +0.000 OA
ATOM     21  N   UNL     1       1.554   8.322  20.074  0.00  0.00    +0.000 NA
BRANCH  19  22
ATOM     22  C   UNL     1       3.497   6.396  17.722  0.00  0.00    +0.000 A 
ATOM     23  C   UNL     1       4.549   6.743  16.858  0.00  0.00    +0.000 A 
ATOM     24  C   UNL     1       5.328   5.757  16.242  0.00  0.00    +0.000 A 
ATOM     25  C   UNL     1       5.069   4.409  16.483  0.00  0.00    +0.000 A 
ATOM     26  C   UNL     1       4.043   4.055  17.353  0.00  0.00    +0.000 A 
ATOM     27 CL   UNL     1       3.709   2.394  17.653  0.00  0.00    +0.000 Cl
ATOM     28  C   UNL     1       3.267   5.036  17.974  0.00  0.00    +0.000 A 
ENDBRANCH  19  22
ENDBRANCH  16  17
ENDBRANCH  15  16
ENDBRANCH   3  15
TORSDOF 5
ENDMDL
MODEL 4
REMARK VINA RESULT:      -8.6      1.627      2.139
REMARK  Name = 
REMARK  6 active torsions:
REMARK  status: ('A' for Active; 'I' for Inactive)
REMARK    1  A    between atoms: C_1  and  N_2
REMARK    2  A    between atoms: C_3  and  O_4
REMARK    3  A    between atoms: O_4  and  C_5
REMARK    4  A    between atoms: C_5  and  C_6
REMARK    5  A    between atoms: C_8  and  C_9
REMARK    6  A    between atoms: C_20  and  C_21
REMARK                            x       y       z     vdW  Elec       q    Type
REMARK                         _______ _______ _______ _____ _____    ______ ____
ROOT
ATOM      1  C   UNL     1       3.503   6.358  18.203  0.00  0.00    +0.000 C 
ATOM      2  N   UNL     1       4.528   5.388  18.477  0.00  0.00    +0.000 N 
ATOM      3  C   UNL     1       5.874   5.511  18.248  0.00  0.00    +0.000 A 
ATOM      4  N   UNL     1       6.484   4.411  18.632  0.00  0.00    +0.000 NA
ATOM      5  N   UNL     1       5.536   3.548  19.114  0.00  0.00    +0.000 NA
ATOM      6  C   UNL     1       4.359   4.135  19.022  0.00  0.00    +0.000 A 
ENDROOT
BRANCH   6   7
ATOM      7  C   UNL     1       3.081   3.648  19.406  0.00  0.00    +0.000 A 
ATOM      8  C   UNL     1       1.982   3.467  18.468  0.00  0.00    +0.000 A 
ATOM      9  C   UNL     1       0.781   3.066  18.902  0.00  0.00    +0.000 A 
ATOM     10  N   UNL     1       0.581   2.814  20.233  0.00  0.00    +0.000 N 
ATOM     11  C   UNL     1       1.546   2.968  21.197  0.00  0.00    +0.000 A 
ATOM     12  O   UNL     1       1.350   2.729  22.383  0.00  0.00    +0.000 OA
ATOM     13  C   UNL     1       2.873   3.430  20.716  0.00  0.00    +0.000 A 
ATOM     14  H   UNL     1      -0.329   2.521  20.568  0.00  0.00    +0.000 HD
ENDBRANCH   6   7
BRANCH   3  15
ATOM     15  O   UNL     1       6.471   6.577  17.713  0.00  0.00    +0.000 OA
BRANCH  15  16
ATOM     16  C   UNL     1       7.730   6.882  18.350  0.00  0.00    +0.000 C 
BRANCH  16  17
ATOM     17  C   UNL     1       8.117   8.318  18.221  0.00  0.00    +0.000 A 
ATOM     18  C   UNL     1       9.069   9.036  18.982  0.00  0.00    +0.000 A 
ATOM     19  C   UNL     1       9.009  10.326  18.504  0.00  0.00    +0.000 A 
ATOM     20  O   UNL     1       8.056  10.379  17.530  0.00  0.00    +0.000 OA
ATOM     21  N   UNL     1       7.495   9.125  17.351  0.00  0.00    +0.000 NA
BRANCH  19  22
ATOM     22  C   UNL     1       9.738  11.559  18.789  0.00  0.00    +0.000 A 
ATOM     23  C   UNL     1      10.909  11.570  19.564  0.00  0.00    +0.000 A 
ATOM     24  C   UNL     1      11.551  12.773  19.879  0.00  0.00    +0.000 A 
ATOM     25  C   UNL     1      11.033  13.983  19.421  0.00  0.00    +0.000 A 
ATOM     26  C   UNL     1       9.885  13.981  18.635  0.00  0.00    +0.000 A 
ATOM     27 CL   UNL     1       9.232  15.470  18.070  0.00  0.00    +0.000 Cl
ATOM     28  C   UNL     1       9.245  12.783  18.314  0.00  0.00    +0.000 A 
ENDBRANCH  19  22
ENDBRANCH  16  17
ENDBRANCH  15  16
ENDBRANCH   3  15
TORSDOF 5
ENDMDL
MODEL 5
REMARK VINA RESULT:      -8.6      0.864      1.261
REMARK  Name = 
REMARK  6 active torsions:
REMARK  status: ('A' for Active; 'I' for Inactive)
REMARK    1  A    between atoms: C_1  and  N_2
REMARK    2  A    between atoms: C_3  and  O_4
REMARK    3  A    between atoms: O_4  and  C_5
REMARK    4  A    between atoms: C_5  and  C_6
REMARK    5  A    between atoms: C_8  and  C_9
REMARK    6  A    between atoms: C_20  and  C_21
REMARK                            x       y       z     vdW  Elec       q    Type
REMARK                         _______ _______ _______ _____ _____    ______ ____
ROOT
ATOM      1  C   UNL     1       4.814   4.601  17.843  0.00  0.00    +0.000 C 
ATOM      2  N   UNL     1       4.026   5.804  17.848  0.00  0.00    +0.000 N 
ATOM      3  C   UNL     1       4.302   6.984  17.210  0.00  0.00    +0.000 A 
ATOM      4  N   UNL     1       3.341   7.848  17.454  0.00  0.00    +0.000 NA
ATOM      5  N   UNL     1       2.422   7.239  18.266  0.00  0.00    +0.000 NA
ATOM      6  C   UNL     1       2.831   6.008  18.504  0.00  0.00    +0.000 A 
ENDROOT
BRANCH   6   7
ATOM      7  C   UNL     1       2.212   4.989  19.275  0.00  0.00    +0.000 A 
ATOM      8  C   UNL     1       2.350   4.889  20.721  0.00  0.00    +0.000 A 
ATOM      9  C   UNL     1       1.796   3.868  21.385  0.00  0.00    +0.000 A 
ATOM     10  N   UNL     1       1.087   2.913  20.707  0.00  0.00    +0.000 N 
ATOM     11  C   UNL     1       0.911   2.909  19.346  0.00  0.00    +0.000 A 
ATOM     12  O   UNL     1       0.265   2.049  18.758  0.00  0.00    +0.000 OA
ATOM     13  C   UNL     1       1.542   4.033  18.609  0.00  0.00    +0.000 A 
ATOM     14  H   UNL     1       0.674   2.132  21.203  0.00  0.00    +0.000 HD
ENDBRANCH   6   7
BRANCH   3  15
ATOM     15  O   UNL     1       5.381   7.223  16.463  0.00  0.00    +0.000 OA
BRANCH  15  16
ATOM     16  C   UNL     1       6.556   6.547  16.961  0.00  0.00    +0.000 C 
BRANCH  16  17
ATOM     17  C   UNL     1       7.459   7.445  17.740  0.00  0.00    +0.000 A 
ATOM     18  C   UNL     1       7.733   8.814  17.513  0.00  0.00    +0.000 A 
ATOM     19  C   UNL     1       8.662   9.155  18.470  0.00  0.00    +0.000 A 
ATOM     20  O   UNL     1       8.946   8.045  19.210  0.00  0.00    +0.000 OA
ATOM     21  N   UNL     1       8.195   6.973  18.755  0.00  0.00    +0.000 NA
BRANCH  19  22
ATOM     22  C   UNL     1       9.335  10.395  18.850  0.00  0.00    +0.000 A 
ATOM     23  C   UNL     1       9.333  10.869  20.172  0.00  0.00    +0.000 A 
ATOM     24  C   UNL     1       9.927  12.094  20.497  0.00  0.00    +0.000 A 
ATOM     25  C   UNL     1      10.534  12.862  19.505  0.00  0.00    +0.000 A 
ATOM     26  C   UNL     1      10.559  12.392  18.196  0.00  0.00    +0.000 A 
ATOM     27 CL   UNL     1      11.300  13.335  16.961  0.00  0.00    +0.000 Cl
ATOM     28  C   UNL     1       9.973  11.168  17.868  0.00  0.00    +0.000 A 
ENDBRANCH  19  22
ENDBRANCH  16  17
ENDBRANCH  15  16
ENDBRANCH   3  15
TORSDOF 5
ENDMDL
MODEL 6
REMARK VINA RESULT:      -8.5      1.964      2.646
REMARK  Name = 
REMARK  6 active torsions:
REMARK  status: ('A' for Active; 'I' for Inactive)
REMARK    1  A    between atoms: C_1  and  N_2
REMARK    2  A    between atoms: C_3  and  O_4
REMARK    3  A    between atoms: O_4  and  C_5
REMARK    4  A    between atoms: C_5  and  C_6
REMARK    5  A    between atoms: C_8  and  C_9
REMARK    6  A    between atoms: C_20  and  C_21
REMARK                            x       y       z     vdW  Elec       q    Type
REMARK                         _______ _______ _______ _____ _____    ______ ____
ROOT
ATOM      1  C   UNL     1       3.461   6.535  18.201  0.00  0.00    +0.000 C 
ATOM      2  N   UNL     1       4.448   5.522  18.461  0.00  0.00    +0.000 N 
ATOM      3  C   UNL     1       5.789   5.574  18.182  0.00  0.00    +0.000 A 
ATOM      4  N   UNL     1       6.358   4.455  18.570  0.00  0.00    +0.000 NA
ATOM      5  N   UNL     1       5.389   3.650  19.106  0.00  0.00    +0.000 NA
ATOM      6  C   UNL     1       4.238   4.291  19.042  0.00  0.00    +0.000 A 
ENDROOT
BRANCH   6   7
ATOM      7  C   UNL     1       2.953   3.876  19.482  0.00  0.00    +0.000 A 
ATOM      8  C   UNL     1       2.427   4.178  20.805  0.00  0.00    +0.000 A 
ATOM      9  C   UNL     1       1.235   3.703  21.184  0.00  0.00    +0.000 A 
ATOM     10  N   UNL     1       0.497   2.934  20.324  0.00  0.00    +0.000 N 
ATOM     11  C   UNL     1       0.910   2.581  19.063  0.00  0.00    +0.000 A 
ATOM     12  O   UNL     1       0.231   1.899  18.304  0.00  0.00    +0.000 OA
ATOM     13  C   UNL     1       2.241   3.095  18.651  0.00  0.00    +0.000 A 
ATOM     14  H   UNL     1      -0.401   2.563  20.609  0.00  0.00    +0.000 HD
ENDBRANCH   6   7
BRANCH   3  15
ATOM     15  O   UNL     1       6.416   6.598  17.601  0.00  0.00    +0.000 OA
BRANCH  15  16
ATOM     16  C   UNL     1       7.738   6.812  18.141  0.00  0.00    +0.000 C 
BRANCH  16  17
ATOM     17  C   UNL     1       8.134   8.252  18.161  0.00  0.00    +0.000 A 
ATOM     18  C   UNL     1       9.112   8.875  18.970  0.00  0.00    +0.000 A 
ATOM     19  C   UNL     1       9.050  10.211  18.640  0.00  0.00    +0.000 A 
ATOM     20  O   UNL     1       8.071  10.377  17.705  0.00  0.00    +0.000 OA
ATOM     21  N   UNL     1       7.496   9.154  17.403  0.00  0.00    +0.000 NA
BRANCH  19  22
ATOM     22  C   UNL     1       9.797  11.400  19.039  0.00  0.00    +0.000 A 
ATOM     23  C   UNL     1      10.974  11.796  18.383  0.00  0.00    +0.000 A 
ATOM     24  C   UNL     1      11.709  12.901  18.828  0.00  0.00    +0.000 A 
ATOM     25  C   UNL     1      11.275  13.630  19.934  0.00  0.00    +0.000 A 
ATOM     26  C   UNL     1      10.099  13.259  20.579  0.00  0.00    +0.000 A 
ATOM     27 CL   UNL     1       9.557  14.146  21.950  0.00  0.00    +0.000 Cl
ATOM     28  C   UNL     1       9.361  12.160  20.135  0.00  0.00    +0.000 A 
ENDBRANCH  19  22
ENDBRANCH  16  17
ENDBRANCH  15  16
ENDBRANCH   3  15
TORSDOF 5
ENDMDL
MODEL 7
REMARK VINA RESULT:      -8.5      1.702      2.226
REMARK  Name = 
REMARK  6 active torsions:
REMARK  status: ('A' for Active; 'I' for Inactive)
REMARK    1  A    between atoms: C_1  and  N_2
REMARK    2  A    between atoms: C_3  and  O_4
REMARK    3  A    between atoms: O_4  and  C_5
REMARK    4  A    between atoms: C_5  and  C_6
REMARK    5  A    between atoms: C_8  and  C_9
REMARK    6  A    between atoms: C_20  and  C_21
REMARK                            x       y       z     vdW  Elec       q    Type
REMARK                         _______ _______ _______ _____ _____    ______ ____
ROOT
ATOM      1  C   UNL     1       3.699   6.340  18.760  0.00  0.00    +0.000 C 
ATOM      2  N   UNL     1       4.208   5.231  18.000  0.00  0.00    +0.000 N 
ATOM      3  C   UNL     1       5.250   5.239  17.109  0.00  0.00    +0.000 A 
ATOM      4  N   UNL     1       5.412   4.031  16.618  0.00  0.00    +0.000 NA
ATOM      5  N   UNL     1       4.469   3.214  17.181  0.00  0.00    +0.000 NA
ATOM      6  C   UNL     1       3.744   3.934  18.014  0.00  0.00    +0.000 A 
ENDROOT
BRANCH   6   7
ATOM      7  C   UNL     1       2.660   3.532  18.840  0.00  0.00    +0.000 A 
ATOM      8  C   UNL     1       1.295   3.396  18.353  0.00  0.00    +0.000 A 
ATOM      9  C   UNL     1       0.305   3.077  19.195  0.00  0.00    +0.000 A 
ATOM     10  N   UNL     1       0.573   2.866  20.522  0.00  0.00    +0.000 N 
ATOM     11  C   UNL     1       1.821   2.984  21.080  0.00  0.00    +0.000 A 
ATOM     12  O   UNL     1       2.042   2.783  22.269  0.00  0.00    +0.000 OA
ATOM     13  C   UNL     1       2.915   3.355  20.148  0.00  0.00    +0.000 A 
ATOM     14  H   UNL     1      -0.175   2.634  21.165  0.00  0.00    +0.000 HD
ENDBRANCH   6   7
BRANCH   3  15
ATOM     15  O   UNL     1       5.979   6.308  16.785  0.00  0.00    +0.000 OA
BRANCH  15  16
ATOM     16  C   UNL     1       7.234   6.355  17.497  0.00  0.00    +0.000 C 
BRANCH  16  17
ATOM     17  C   UNL     1       7.700   7.748  17.768  0.00  0.00    +0.000 A 
ATOM     18  C   UNL     1       8.696   8.171  18.677  0.00  0.00    +0.000 A 
ATOM     19  C   UNL     1       8.705   9.545  18.583  0.00  0.00    +0.000 A 
ATOM     20  O   UNL     1       7.747   9.920  17.687  0.00  0.00    +0.000 OA
ATOM     21  N   UNL     1       7.116   8.798  17.175  0.00  0.00    +0.000 NA
BRANCH  19  22
ATOM     22  C   UNL     1       9.504  10.609  19.185  0.00  0.00    +0.000 A 
ATOM     23  C   UNL     1      10.699  11.063  18.603  0.00  0.00    +0.000 A 
ATOM     24  C   UNL     1      11.481  12.036  19.235  0.00  0.00    +0.000 A 
ATOM     25  C   UNL     1      11.079  12.572  20.457  0.00  0.00    +0.000 A 
ATOM     26  C   UNL     1       9.887  12.143  21.032  0.00  0.00    +0.000 A 
ATOM     27 CL   UNL     1       9.384  12.792  22.544  0.00  0.00    +0.000 Cl
ATOM     28  C   UNL     1       9.101  11.177  20.402  0.00  0.00    +0.000 A 
ENDBRANCH  19  22
ENDBRANCH  16  17
ENDBRANCH  15  16
ENDBRANCH   3  15
TORSDOF 5
ENDMDL
MODEL 8
REMARK VINA RESULT:      -8.4      5.232      7.766
REMARK  Name = 
REMARK  6 active torsions:
REMARK  status: ('A' for Active; 'I' for Inactive)
REMARK    1  A    between atoms: C_1  and  N_2
REMARK    2  A    between atoms: C_3  and  O_4
REMARK    3  A    between atoms: O_4  and  C_5
REMARK    4  A    between atoms: C_5  and  C_6
REMARK    5  A    between atoms: C_8  and  C_9
REMARK    6  A    between atoms: C_20  and  C_21
REMARK                            x       y       z     vdW  Elec       q    Type
REMARK                         _______ _______ _______ _____ _____    ______ ____
ROOT
ATOM      1  C   UNL     1       1.753   8.898  18.712  0.00  0.00    +0.000 C 
ATOM      2  N   UNL     1       0.976   9.015  19.916  0.00  0.00    +0.000 N 
ATOM      3  C   UNL     1       1.087   8.265  21.057  0.00  0.00    +0.000 A 
ATOM      4  N   UNL     1       0.201   8.674  21.937  0.00  0.00    +0.000 NA
ATOM      5  N   UNL     1      -0.509   9.702  21.376  0.00  0.00    +0.000 NA
ATOM      6  C   UNL     1      -0.044   9.910  20.160  0.00  0.00    +0.000 A 
ENDROOT
BRANCH   6   7
ATOM      7  C   UNL     1      -0.447  10.872  19.196  0.00  0.00    +0.000 A 
ATOM      8  C   UNL     1       0.029  12.248  19.197  0.00  0.00    +0.000 A 
ATOM      9  C   UNL     1      -0.438  13.126  18.302  0.00  0.00    +0.000 A 
ATOM     10  N   UNL     1      -1.362  12.732  17.371  0.00  0.00    +0.000 N 
ATOM     11  C   UNL     1      -1.883  11.464  17.295  0.00  0.00    +0.000 A 
ATOM     12  O   UNL     1      -2.703  11.128  16.449  0.00  0.00    +0.000 OA
ATOM     13  C   UNL     1      -1.376  10.496  18.301  0.00  0.00    +0.000 A 
ATOM     14  H   UNL     1      -1.726  13.395  16.697  0.00  0.00    +0.000 HD
ENDBRANCH   6   7
BRANCH   3  15
ATOM     15  O   UNL     1       1.954   7.268  21.242  0.00  0.00    +0.000 OA
BRANCH  15  16
ATOM     16  C   UNL     1       1.435   5.996  20.798  0.00  0.00    +0.000 C 
BRANCH  16  17
ATOM     17  C   UNL     1       2.268   5.367  19.731  0.00  0.00    +0.000 A 
ATOM     18  C   UNL     1       3.576   5.721  19.324  0.00  0.00    +0.000 A 
ATOM     19  C   UNL     1       3.866   4.874  18.278  0.00  0.00    +0.000 A 
ATOM     20  O   UNL     1       2.782   4.076  18.057  0.00  0.00    +0.000 OA
ATOM     21  N   UNL     1       1.780   4.383  18.964  0.00  0.00    +0.000 NA
BRANCH  19  22
ATOM     22  C   UNL     1       5.038   4.649  17.437  0.00  0.00    +0.000 A 
ATOM     23  C   UNL     1       6.347   4.752  17.939  0.00  0.00    +0.000 A 
ATOM     24  C   UNL     1       7.454   4.599  17.096  0.00  0.00    +0.000 A 
ATOM     25  C   UNL     1       7.269   4.338  15.740  0.00  0.00    +0.000 A 
ATOM     26  C   UNL     1       5.978   4.214  15.236  0.00  0.00    +0.000 A 
ATOM     27 CL   UNL     1       5.738   3.899  13.562  0.00  0.00    +0.000 Cl
ATOM     28  C   UNL     1       4.871   4.361  16.074  0.00  0.00    +0.000 A 
ENDBRANCH  19  22
ENDBRANCH  16  17
ENDBRANCH  15  16
ENDBRANCH   3  15
TORSDOF 5
ENDMDL
MODEL 9
REMARK VINA RESULT:      -8.3      5.212      7.693
REMARK  Name = 
REMARK  6 active torsions:
REMARK  status: ('A' for Active; 'I' for Inactive)
REMARK    1  A    between atoms: C_1  and  N_2
REMARK    2  A    between atoms: C_3  and  O_4
REMARK    3  A    between atoms: O_4  and  C_5
REMARK    4  A    between atoms: C_5  and  C_6
REMARK    5  A    between atoms: C_8  and  C_9
REMARK    6  A    between atoms: C_20  and  C_21
REMARK                            x       y       z     vdW  Elec       q    Type
REMARK                         _______ _______ _______ _____ _____    ______ ____
ROOT
ATOM      1  C   UNL     1       1.806   8.889  18.069  0.00  0.00    +0.000 C 
ATOM      2  N   UNL     1       1.243   8.846  19.391  0.00  0.00    +0.000 N 
ATOM      3  C   UNL     1       1.608   8.024  20.426  0.00  0.00    +0.000 A 
ATOM      4  N   UNL     1       0.860   8.286  21.475  0.00  0.00    +0.000 NA
ATOM      5  N   UNL     1      -0.013   9.284  21.134  0.00  0.00    +0.000 NA
ATOM      6  C   UNL     1       0.216   9.624  19.881  0.00  0.00    +0.000 A 
ENDROOT
BRANCH   6   7
ATOM      7  C   UNL     1      -0.420  10.616  19.088  0.00  0.00    +0.000 A 
ATOM      8  C   UNL     1      -1.437  10.310  18.093  0.00  0.00    +0.000 A 
ATOM      9  C   UNL     1      -1.953  11.281  17.331  0.00  0.00    +0.000 A 
ATOM     10  N   UNL     1      -1.532  12.575  17.490  0.00  0.00    +0.000 N 
ATOM     11  C   UNL     1      -0.570  12.964  18.389  0.00  0.00    +0.000 A 
ATOM     12  O   UNL     1      -0.212  14.128  18.523  0.00  0.00    +0.000 OA
ATOM     13  C   UNL     1       0.014  11.881  19.221  0.00  0.00    +0.000 A 
ATOM     14  H   UNL     1      -1.911  13.313  16.909  0.00  0.00    +0.000 HD
ENDBRANCH   6   7
BRANCH   3  15
ATOM     15  O   UNL     1       2.567   7.099  20.374  0.00  0.00    +0.000 OA
BRANCH  15  16
ATOM     16  C   UNL     1       2.064   5.805  19.979  0.00  0.00    +0.000 C 
BRANCH  16  17
ATOM     17  C   UNL     1       2.823   5.206  18.841  0.00  0.00    +0.000 A 
ATOM     18  C   UNL     1       3.932   5.750  18.152  0.00  0.00    +0.000 A 
ATOM     19  C   UNL     1       4.222   4.836  17.164  0.00  0.00    +0.000 A 
ATOM     20  O   UNL     1       3.318   3.817  17.243  0.00  0.00    +0.000 OA
ATOM     21  N   UNL     1       2.441   4.046  18.290  0.00  0.00    +0.000 NA
BRANCH  19  22
ATOM     22  C   UNL     1       5.256   4.729  16.138  0.00  0.00    +0.000 A 
ATOM     23  C   UNL     1       6.547   5.249  16.325  0.00  0.00    +0.000 A 
ATOM     24  C   UNL     1       7.499   5.194  15.301  0.00  0.00    +0.000 A 
ATOM     25  C   UNL     1       7.175   4.616  14.075  0.00  0.00    +0.000 A 
ATOM     26  C   UNL     1       5.905   4.080  13.887  0.00  0.00    +0.000 A 
ATOM     27 CL   UNL     1       5.491   3.369  12.375  0.00  0.00    +0.000 Cl
ATOM     28  C   UNL     1       4.954   4.127  14.907  0.00  0.00    +0.000 A 
ENDBRANCH  19  22
ENDBRANCH  16  17
ENDBRANCH  15  16
ENDBRANCH   3  15
TORSDOF 5
ENDMDL
