MODEL 1
REMARK VINA RESULT:      -7.8      0.000      0.000
REMARK  Name = 
REMARK  9 active torsions:
REMARK  status: ('A' for Active; 'I' for Inactive)
REMARK    1  A    between atoms: C_1  and  O_2
REMARK    2  A    between atoms: O_2  and  C_3
REMARK    3  A    between atoms: C_9  and  N_10
REMARK    4  A    between atoms: C_11  and  C_13
REMARK    5  A    between atoms: C_14  and  C_15
REMARK    6  A    between atoms: N_17  and  C_18
REMARK    7  A    between atoms: C_22  and  C_23
REMARK    8  A    between atoms: C_24  and  C_25
REMARK    9  A    between atoms: C_29  and  C_30
REMARK                            x       y       z     vdW  Elec       q    Type
REMARK                         _______ _______ _______ _____ _____    ______ ____
ROOT
ATOM      1  C   UNL     1       0.648  10.362  20.008  0.00  0.00    +0.000 A 
ATOM      2  C   UNL     1       0.250  10.093  21.276  0.00  0.00    +0.000 A 
ATOM      3  S   UNL     1       0.767   8.481  21.771  0.00  0.00    +0.000 S 
ATOM      4  C   UNL     1       1.569   8.234  20.261  0.00  0.00    +0.000 A 
ATOM      5  N   UNL     1       2.254   7.171  20.023  0.00  0.00    +0.000 NA
ATOM      6  C   UNL     1       2.841   7.093  18.795  0.00  0.00    +0.000 A 
ATOM      7  C   UNL     1       3.697   5.883  18.543  0.00  0.00    +0.000 C 
ATOM      8  C   UNL     1       2.669   8.017  17.845  0.00  0.00    +0.000 A 
ATOM      9  C   UNL     1       1.813   9.185  18.130  0.00  0.00    +0.000 A 
ATOM     10  O   UNL     1       1.544   9.930  17.195  0.00  0.00    +0.000 OA
ATOM     11  N   UNL     1       1.352   9.303  19.416  0.00  0.00    +0.000 N 
ENDROOT
BRANCH   1  13
ATOM     12  N   UNL     1       1.441  12.720  19.675  0.00  0.00    +0.000 N 
ATOM     13  C   UNL     1       0.476  11.759  19.465  0.00  0.00    +0.000 C 
ATOM     14  O   UNL     1      -0.568  11.981  18.853  0.00  0.00    +0.000 OA
ATOM     15  H   UNL     1       2.195  12.540  20.343  0.00  0.00    +0.000 HD
BRANCH  12  22
ATOM     16  C   UNL     1       2.570  14.630  18.623  0.00  0.00    +0.000 A 
ATOM     17  C   UNL     1       2.550  15.956  18.161  0.00  0.00    +0.000 A 
ATOM     18  C   UNL     1       1.398  16.732  18.282  0.00  0.00    +0.000 A 
ATOM     19  C   UNL     1       0.255  16.176  18.837  0.00  0.00    +0.000 A 
ATOM     20 CL   UNL     1      -1.173  17.127  18.974  0.00  0.00    +0.000 Cl
ATOM     21  C   UNL     1       0.250  14.856  19.280  0.00  0.00    +0.000 A 
ATOM     22  C   UNL     1       1.407  14.064  19.197  0.00  0.00    +0.000 A 
BRANCH  16  24
ATOM     23  C   UNL     1       4.889  14.477  18.108  0.00  0.00    +0.000 C 
ATOM     24  O   UNL     1       3.691  13.835  18.548  0.00  0.00    +0.000 OA
ENDBRANCH  16  24
ENDBRANCH  12  22
ENDBRANCH   1  13
BRANCH   2  25
ATOM     25  C   UNL     1      -0.416  10.861  22.395  0.00  0.00    +0.000 C 
ATOM     26  O   UNL     1      -0.250  10.443  23.541  0.00  0.00    +0.000 OA
ATOM     27  N   UNL     1      -1.277  11.891  22.059  0.00  0.00    +0.000 N 
ATOM     28  H   UNL     1      -1.369  12.142  21.086  0.00  0.00    +0.000 HD
BRANCH  27  29
ATOM     29  C   UNL     1      -2.048  12.660  22.987  0.00  0.00    +0.000 A 
ATOM     30  C   UNL     1      -3.237  12.156  23.532  0.00  0.00    +0.000 A 
ATOM     31  C   UNL     1      -4.025  12.905  24.398  0.00  0.00    +0.000 A 
ATOM     32  C   UNL     1      -3.619  14.176  24.771  0.00  0.00    +0.000 A 
ATOM     33  C   UNL     1      -2.417  14.710  24.285  0.00  0.00    +0.000 A 
ATOM     34  C   UNL     1      -2.036  16.090  24.756  0.00  0.00    +0.000 C 
ATOM     35  C   UNL     1      -1.623  13.959  23.372  0.00  0.00    +0.000 A 
ATOM     36  C   UNL     1      -0.357  14.551  22.803  0.00  0.00    +0.000 C 
ENDBRANCH  27  29
ENDBRANCH   2  25
TORSDOF 5
ENDMDL
MODEL 2
REMARK VINA RESULT:      -7.5      1.549      1.696
REMARK  Name = 
REMARK  9 active torsions:
REMARK  status: ('A' for Active; 'I' for Inactive)
REMARK    1  A    between atoms: C_1  and  O_2
REMARK    2  A    between atoms: O_2  and  C_3
REMARK    3  A    between atoms: C_9  and  N_10
REMARK    4  A    between atoms: C_11  and  C_13
REMARK    5  A    between atoms: C_14  and  C_15
REMARK    6  A    between atoms: N_17  and  C_18
REMARK    7  A    between atoms: C_22  and  C_23
REMARK    8  A    between atoms: C_24  and  C_25
REMARK    9  A    between atoms: C_29  and  C_30
REMARK                            x       y       z     vdW  Elec       q    Type
REMARK                         _______ _______ _______ _____ _____    ______ ____
ROOT
ATOM      1  C   UNL     1       0.906  10.811  20.095  0.00  0.00    +0.000 A 
ATOM      2  C   UNL     1       0.247  10.402  21.207  0.00  0.00    +0.000 A 
ATOM      3  S   UNL     1       0.339   8.649  21.384  0.00  0.00    +0.000 S 
ATOM      4  C   UNL     1       1.328   8.521  19.973  0.00  0.00    +0.000 A 
ATOM      5  N   UNL     1       1.819   7.395  19.590  0.00  0.00    +0.000 NA
ATOM      6  C   UNL     1       2.585   7.423  18.463  0.00  0.00    +0.000 A 
ATOM      7  C   UNL     1       3.215   6.120  18.054  0.00  0.00    +0.000 C 
ATOM      8  C   UNL     1       2.769   8.528  17.733  0.00  0.00    +0.000 A 
ATOM      9  C   UNL     1       2.125   9.784  18.164  0.00  0.00    +0.000 A 
ATOM     10  O   UNL     1       2.177  10.738  17.396  0.00  0.00    +0.000 OA
ATOM     11  N   UNL     1       1.479   9.754  19.373  0.00  0.00    +0.000 N 
ENDROOT
BRANCH   1  13
ATOM     12  N   UNL     1       2.354  12.860  20.033  0.00  0.00    +0.000 N 
ATOM     13  C   UNL     1       1.112  12.288  19.866  0.00  0.00    +0.000 C 
ATOM     14  O   UNL     1       0.116  12.935  19.546  0.00  0.00    +0.000 OA
ATOM     15  H   UNL     1       3.103  12.321  20.478  0.00  0.00    +0.000 HD
BRANCH  12  22
ATOM     16  C   UNL     1       3.113  15.020  20.922  0.00  0.00    +0.000 A 
ATOM     17  C   UNL     1       3.427  16.375  20.731  0.00  0.00    +0.000 A 
ATOM     18  C   UNL     1       3.297  16.963  19.475  0.00  0.00    +0.000 A 
ATOM     19  C   UNL     1       2.882  16.192  18.399  0.00  0.00    +0.000 A 
ATOM     20 CL   UNL     1       2.735  16.912  16.843  0.00  0.00    +0.000 Cl
ATOM     21  C   UNL     1       2.589  14.841  18.564  0.00  0.00    +0.000 A 
ATOM     22  C   UNL     1       2.683  14.234  19.827  0.00  0.00    +0.000 A 
BRANCH  16  24
ATOM     23  C   UNL     1       4.461  14.507  22.816  0.00  0.00    +0.000 C 
ATOM     24  O   UNL     1       3.202  14.403  22.150  0.00  0.00    +0.000 OA
ENDBRANCH  16  24
ENDBRANCH  12  22
ENDBRANCH   1  13
BRANCH   2  25
ATOM     25  C   UNL     1      -0.439  11.071  22.375  0.00  0.00    +0.000 C 
ATOM     26  O   UNL     1      -0.286  10.561  23.485  0.00  0.00    +0.000 OA
ATOM     27  N   UNL     1      -1.300  12.121  22.114  0.00  0.00    +0.000 N 
ATOM     28  H   UNL     1      -1.381  12.452  21.163  0.00  0.00    +0.000 HD
BRANCH  27  29
ATOM     29  C   UNL     1      -2.089  12.807  23.092  0.00  0.00    +0.000 A 
ATOM     30  C   UNL     1      -3.257  12.233  23.611  0.00  0.00    +0.000 A 
ATOM     31  C   UNL     1      -4.062  12.902  24.526  0.00  0.00    +0.000 A 
ATOM     32  C   UNL     1      -3.694  14.161  24.973  0.00  0.00    +0.000 A 
ATOM     33  C   UNL     1      -2.513  14.762  24.513  0.00  0.00    +0.000 A 
ATOM     34  C   UNL     1      -2.174  16.122  25.065  0.00  0.00    +0.000 C 
ATOM     35  C   UNL     1      -1.703  14.094  23.552  0.00  0.00    +0.000 A 
ATOM     36  C   UNL     1      -0.461  14.760  23.013  0.00  0.00    +0.000 C 
ENDBRANCH  27  29
ENDBRANCH   2  25
TORSDOF 5
ENDMDL
MODEL 3
REMARK VINA RESULT:      -7.4      1.061      1.097
REMARK  Name = 
REMARK  9 active torsions:
REMARK  status: ('A' for Active; 'I' for Inactive)
REMARK    1  A    between atoms: C_1  and  O_2
REMARK    2  A    between atoms: O_2  and  C_3
REMARK    3  A    between atoms: C_9  and  N_10
REMARK    4  A    between atoms: C_11  and  C_13
REMARK    5  A    between atoms: C_14  and  C_15
REMARK    6  A    between atoms: N_17  and  C_18
REMARK    7  A    between atoms: C_22  and  C_23
REMARK    8  A    between atoms: C_24  and  C_25
REMARK    9  A    between atoms: C_29  and  C_30
REMARK                            x       y       z     vdW  Elec       q    Type
REMARK                         _______ _______ _______ _____ _____    ______ ____
ROOT
ATOM      1  C   UNL     1       0.429  10.643  19.927  0.00  0.00    +0.000 A 
ATOM      2  C   UNL     1      -0.137  10.493  21.149  0.00  0.00    +0.000 A 
ATOM      3  S   UNL     1       0.227   8.903  21.821  0.00  0.00    +0.000 S 
ATOM      4  C   UNL     1       1.198   8.504  20.448  0.00  0.00    +0.000 A 
ATOM      5  N   UNL     1       1.849   7.396  20.378  0.00  0.00    +0.000 NA
ATOM      6  C   UNL     1       2.579   7.197  19.245  0.00  0.00    +0.000 A 
ATOM      7  C   UNL     1       3.395   5.934  19.193  0.00  0.00    +0.000 C 
ATOM      8  C   UNL     1       2.577   8.050  18.216  0.00  0.00    +0.000 A 
ATOM      9  C   UNL     1       1.755   9.273  18.304  0.00  0.00    +0.000 A 
ATOM     10  O   UNL     1       1.645   9.953  17.290  0.00  0.00    +0.000 OA
ATOM     11  N   UNL     1       1.145   9.511  19.508  0.00  0.00    +0.000 N 
ENDROOT
BRANCH   1  13
ATOM     12  N   UNL     1       1.236  13.008  19.694  0.00  0.00    +0.000 N 
ATOM     13  C   UNL     1       0.401  11.999  19.267  0.00  0.00    +0.000 C 
ATOM     14  O   UNL     1      -0.411  12.145  18.354  0.00  0.00    +0.000 OA
ATOM     15  H   UNL     1       1.755  12.897  20.570  0.00  0.00    +0.000 HD
BRANCH  12  22
ATOM     16  C   UNL     1       2.549  14.774  18.602  0.00  0.00    +0.000 A 
ATOM     17  C   UNL     1       2.645  16.068  18.067  0.00  0.00    +0.000 A 
ATOM     18  C   UNL     1       1.545  16.925  18.080  0.00  0.00    +0.000 A 
ATOM     19  C   UNL     1       0.339  16.480  18.601  0.00  0.00    +0.000 A 
ATOM     20 CL   UNL     1      -1.024  17.530  18.605  0.00  0.00    +0.000 Cl
ATOM     21  C   UNL     1       0.219  15.192  19.115  0.00  0.00    +0.000 A 
ATOM     22  C   UNL     1       1.321  14.322  19.141  0.00  0.00    +0.000 A 
BRANCH  16  24
ATOM     23  C   UNL     1       4.853  14.406  18.131  0.00  0.00    +0.000 C 
ATOM     24  O   UNL     1       3.614  13.903  18.634  0.00  0.00    +0.000 OA
ENDBRANCH  16  24
ENDBRANCH  12  22
ENDBRANCH   1  13
BRANCH   2  25
ATOM     25  C   UNL     1      -0.896  11.374  22.114  0.00  0.00    +0.000 C 
ATOM     26  O   UNL     1      -0.471  11.442  23.268  0.00  0.00    +0.000 OA
ATOM     27  N   UNL     1      -2.087  11.935  21.689  0.00  0.00    +0.000 N 
ATOM     28  H   UNL     1      -2.367  11.799  20.729  0.00  0.00    +0.000 HD
BRANCH  27  29
ATOM     29  C   UNL     1      -2.965  12.723  22.499  0.00  0.00    +0.000 A 
ATOM     30  C   UNL     1      -3.487  12.221  23.700  0.00  0.00    +0.000 A 
ATOM     31  C   UNL     1      -4.378  12.952  24.477  0.00  0.00    +0.000 A 
ATOM     32  C   UNL     1      -4.746  14.228  24.085  0.00  0.00    +0.000 A 
ATOM     33  C   UNL     1      -4.221  14.791  22.912  0.00  0.00    +0.000 A 
ATOM     34  C   UNL     1      -4.653  16.192  22.567  0.00  0.00    +0.000 C 
ATOM     35  C   UNL     1      -3.333  14.034  22.096  0.00  0.00    +0.000 A 
ATOM     36  C   UNL     1      -2.808  14.613  20.805  0.00  0.00    +0.000 C 
ENDBRANCH  27  29
ENDBRANCH   2  25
TORSDOF 5
ENDMDL
MODEL 4
REMARK VINA RESULT:      -7.4      0.774      1.379
REMARK  Name = 
REMARK  9 active torsions:
REMARK  status: ('A' for Active; 'I' for Inactive)
REMARK    1  A    between atoms: C_1  and  O_2
REMARK    2  A    between atoms: O_2  and  C_3
REMARK    3  A    between atoms: C_9  and  N_10
REMARK    4  A    between atoms: C_11  and  C_13
REMARK    5  A    between atoms: C_14  and  C_15
REMARK    6  A    between atoms: N_17  and  C_18
REMARK    7  A    between atoms: C_22  and  C_23
REMARK    8  A    between atoms: C_24  and  C_25
REMARK    9  A    between atoms: C_29  and  C_30
REMARK                            x       y       z     vdW  Elec       q    Type
REMARK                         _______ _______ _______ _____ _____    ______ ____
ROOT
ATOM      1  C   UNL     1       0.408  10.654  20.112  0.00  0.00    +0.000 A 
ATOM      2  C   UNL     1      -0.046  10.467  21.375  0.00  0.00    +0.000 A 
ATOM      3  S   UNL     1       0.398   8.869  21.975  0.00  0.00    +0.000 S 
ATOM      4  C   UNL     1       1.249   8.516  20.513  0.00  0.00    +0.000 A 
ATOM      5  N   UNL     1       1.907   7.420  20.359  0.00  0.00    +0.000 NA
ATOM      6  C   UNL     1       2.537   7.258  19.162  0.00  0.00    +0.000 A 
ATOM      7  C   UNL     1       3.363   6.010  19.008  0.00  0.00    +0.000 C 
ATOM      8  C   UNL     1       2.432   8.134  18.157  0.00  0.00    +0.000 A 
ATOM      9  C   UNL     1       1.605   9.342  18.346  0.00  0.00    +0.000 A 
ATOM     10  O   UNL     1       1.396  10.043  17.363  0.00  0.00    +0.000 OA
ATOM     11  N   UNL     1       1.099   9.543  19.605  0.00  0.00    +0.000 N 
ENDROOT
BRANCH   1  13
ATOM     12  N   UNL     1       1.259  12.985  19.734  0.00  0.00    +0.000 N 
ATOM     13  C   UNL     1       0.303  12.024  19.489  0.00  0.00    +0.000 C 
ATOM     14  O   UNL     1      -0.681  12.226  18.778  0.00  0.00    +0.000 OA
ATOM     15  H   UNL     1       1.951  12.831  20.474  0.00  0.00    +0.000 HD
BRANCH  12  22
ATOM     16  C   UNL     1       2.486  14.806  18.634  0.00  0.00    +0.000 A 
ATOM     17  C   UNL     1       2.524  16.107  18.108  0.00  0.00    +0.000 A 
ATOM     18  C   UNL     1       1.394  16.922  18.148  0.00  0.00    +0.000 A 
ATOM     19  C   UNL     1       0.214  16.429  18.686  0.00  0.00    +0.000 A 
ATOM     20 CL   UNL     1      -1.187  17.427  18.723  0.00  0.00    +0.000 Cl
ATOM     21  C   UNL     1       0.151  15.133  19.192  0.00  0.00    +0.000 A 
ATOM     22  C   UNL     1       1.285  14.304  19.191  0.00  0.00    +0.000 A 
BRANCH  16  24
ATOM     23  C   UNL     1       4.800  14.538  18.147  0.00  0.00    +0.000 C 
ATOM     24  O   UNL     1       3.583  13.975  18.640  0.00  0.00    +0.000 OA
ENDBRANCH  16  24
ENDBRANCH  12  22
ENDBRANCH   1  13
BRANCH   2  25
ATOM     25  C   UNL     1      -0.729  11.314  22.424  0.00  0.00    +0.000 C 
ATOM     26  O   UNL     1      -0.953  10.788  23.514  0.00  0.00    +0.000 OA
ATOM     27  N   UNL     1      -1.182  12.569  22.058  0.00  0.00    +0.000 N 
ATOM     28  H   UNL     1      -0.973  12.903  21.128  0.00  0.00    +0.000 HD
BRANCH  27  29
ATOM     29  C   UNL     1      -1.918  13.461  22.901  0.00  0.00    +0.000 A 
ATOM     30  C   UNL     1      -1.265  14.266  23.846  0.00  0.00    +0.000 A 
ATOM     31  C   UNL     1      -1.965  15.104  24.706  0.00  0.00    +0.000 A 
ATOM     32  C   UNL     1      -3.345  15.183  24.617  0.00  0.00    +0.000 A 
ATOM     33  C   UNL     1      -4.041  14.428  23.661  0.00  0.00    +0.000 A 
ATOM     34  C   UNL     1      -5.538  14.588  23.615  0.00  0.00    +0.000 C 
ATOM     35  C   UNL     1      -3.331  13.544  22.800  0.00  0.00    +0.000 A 
ATOM     36  C   UNL     1      -4.080  12.688  21.808  0.00  0.00    +0.000 C 
ENDBRANCH  27  29
ENDBRANCH   2  25
TORSDOF 5
ENDMDL
MODEL 5
REMARK VINA RESULT:      -7.3      3.246      7.855
REMARK  Name = 
REMARK  9 active torsions:
REMARK  status: ('A' for Active; 'I' for Inactive)
REMARK    1  A    between atoms: C_1  and  O_2
REMARK    2  A    between atoms: O_2  and  C_3
REMARK    3  A    between atoms: C_9  and  N_10
REMARK    4  A    between atoms: C_11  and  C_13
REMARK    5  A    between atoms: C_14  and  C_15
REMARK    6  A    between atoms: N_17  and  C_18
REMARK    7  A    between atoms: C_22  and  C_23
REMARK    8  A    between atoms: C_24  and  C_25
REMARK    9  A    between atoms: C_29  and  C_30
REMARK                            x       y       z     vdW  Elec       q    Type
REMARK                         _______ _______ _______ _____ _____    ______ ____
ROOT
ATOM      1  C   UNL     1      -0.338  12.958  19.419  0.00  0.00    +0.000 A 
ATOM      2  C   UNL     1       0.637  12.143  18.944  0.00  0.00    +0.000 A 
ATOM      3  S   UNL     1       2.165  13.010  18.792  0.00  0.00    +0.000 S 
ATOM      4  C   UNL     1       1.457  14.448  19.441  0.00  0.00    +0.000 A 
ATOM      5  N   UNL     1       2.153  15.508  19.659  0.00  0.00    +0.000 NA
ATOM      6  C   UNL     1       1.481  16.576  20.173  0.00  0.00    +0.000 A 
ATOM      7  C   UNL     1       2.309  17.790  20.493  0.00  0.00    +0.000 C 
ATOM      8  C   UNL     1       0.160  16.577  20.377  0.00  0.00    +0.000 A 
ATOM      9  C   UNL     1      -0.616  15.367  20.041  0.00  0.00    +0.000 A 
ATOM     10  O   UNL     1      -1.838  15.450  20.085  0.00  0.00    +0.000 OA
ATOM     11  N   UNL     1       0.107  14.267  19.658  0.00  0.00    +0.000 N 
ENDROOT
BRANCH   1  13
ATOM     12  N   UNL     1      -2.823  12.732  19.148  0.00  0.00    +0.000 N 
ATOM     13  C   UNL     1      -1.669  12.363  19.804  0.00  0.00    +0.000 C 
ATOM     14  O   UNL     1      -1.658  11.557  20.734  0.00  0.00    +0.000 OA
ATOM     15  H   UNL     1      -2.807  13.536  18.514  0.00  0.00    +0.000 HD
BRANCH  12  22
ATOM     16  C   UNL     1      -4.730  11.337  18.478  0.00  0.00    +0.000 A 
ATOM     17  C   UNL     1      -6.024  10.845  18.713  0.00  0.00    +0.000 A 
ATOM     18  C   UNL     1      -6.740  11.243  19.841  0.00  0.00    +0.000 A 
ATOM     19  C   UNL     1      -6.154  12.111  20.751  0.00  0.00    +0.000 A 
ATOM     20 CL   UNL     1      -7.029  12.592  22.152  0.00  0.00    +0.000 Cl
ATOM     21  C   UNL     1      -4.863  12.590  20.546  0.00  0.00    +0.000 A 
ATOM     22  C   UNL     1      -4.134  12.227  19.402  0.00  0.00    +0.000 A 
BRANCH  16  24
ATOM     23  C   UNL     1      -3.427   9.681  17.369  0.00  0.00    +0.000 C 
ATOM     24  O   UNL     1      -3.996  10.992  17.366  0.00  0.00    +0.000 OA
ENDBRANCH  16  24
ENDBRANCH  12  22
ENDBRANCH   1  13
BRANCH   2  25
ATOM     25  C   UNL     1       0.767  10.672  18.625  0.00  0.00    +0.000 C 
ATOM     26  O   UNL     1      -0.187  10.132  18.062  0.00  0.00    +0.000 OA
ATOM     27  N   UNL     1       1.875   9.995  19.100  0.00  0.00    +0.000 N 
ATOM     28  H   UNL     1       2.592  10.522  19.576  0.00  0.00    +0.000 HD
BRANCH  27  29
ATOM     29  C   UNL     1       2.110   8.590  18.958  0.00  0.00    +0.000 A 
ATOM     30  C   UNL     1       2.647   8.063  17.776  0.00  0.00    +0.000 A 
ATOM     31  C   UNL     1       2.839   6.697  17.600  0.00  0.00    +0.000 A 
ATOM     32  C   UNL     1       2.527   5.822  18.627  0.00  0.00    +0.000 A 
ATOM     33  C   UNL     1       2.024   6.304  19.845  0.00  0.00    +0.000 A 
ATOM     34  C   UNL     1       1.731   5.288  20.919  0.00  0.00    +0.000 C 
ATOM     35  C   UNL     1       1.796   7.698  20.017  0.00  0.00    +0.000 A 
ATOM     36  C   UNL     1       1.203   8.217  21.305  0.00  0.00    +0.000 C 
ENDBRANCH  27  29
ENDBRANCH   2  25
TORSDOF 5
ENDMDL
MODEL 6
REMARK VINA RESULT:      -7.2      1.372      2.163
REMARK  Name = 
REMARK  9 active torsions:
REMARK  status: ('A' for Active; 'I' for Inactive)
REMARK    1  A    between atoms: C_1  and  O_2
REMARK    2  A    between atoms: O_2  and  C_3
REMARK    3  A    between atoms: C_9  and  N_10
REMARK    4  A    between atoms: C_11  and  C_13
REMARK    5  A    between atoms: C_14  and  C_15
REMARK    6  A    between atoms: N_17  and  C_18
REMARK    7  A    between atoms: C_22  and  C_23
REMARK    8  A    between atoms: C_24  and  C_25
REMARK    9  A    between atoms: C_29  and  C_30
REMARK                            x       y       z     vdW  Elec       q    Type
REMARK                         _______ _______ _______ _____ _____    ______ ____
ROOT
ATOM      1  C   UNL     1       0.909  10.789  20.256  0.00  0.00    +0.000 A 
ATOM      2  C   UNL     1       0.189  10.359  21.321  0.00  0.00    +0.000 A 
ATOM      3  S   UNL     1       0.196   8.598  21.418  0.00  0.00    +0.000 S 
ATOM      4  C   UNL     1       1.234   8.489  20.041  0.00  0.00    +0.000 A 
ATOM      5  N   UNL     1       1.690   7.360  19.623  0.00  0.00    +0.000 NA
ATOM      6  C   UNL     1       2.500   7.405  18.528  0.00  0.00    +0.000 A 
ATOM      7  C   UNL     1       3.088   6.094  18.082  0.00  0.00    +0.000 C 
ATOM      8  C   UNL     1       2.762   8.533  17.860  0.00  0.00    +0.000 A 
ATOM      9  C   UNL     1       2.157   9.796  18.326  0.00  0.00    +0.000 A 
ATOM     10  O   UNL     1       2.282  10.781  17.607  0.00  0.00    +0.000 OA
ATOM     11  N   UNL     1       1.463   9.740  19.506  0.00  0.00    +0.000 N 
ENDROOT
BRANCH   1  13
ATOM     12  N   UNL     1       0.530  13.012  19.156  0.00  0.00    +0.000 N 
ATOM     13  C   UNL     1       1.189  12.263  20.106  0.00  0.00    +0.000 C 
ATOM     14  O   UNL     1       2.038  12.737  20.860  0.00  0.00    +0.000 OA
ATOM     15  H   UNL     1      -0.024  12.540  18.436  0.00  0.00    +0.000 HD
BRANCH  12  22
ATOM     16  C   UNL     1      -0.338  15.304  19.325  0.00  0.00    +0.000 A 
ATOM     17  C   UNL     1      -0.196  16.682  19.097  0.00  0.00    +0.000 A 
ATOM     18  C   UNL     1       0.940  17.183  18.462  0.00  0.00    +0.000 A 
ATOM     19  C   UNL     1       1.950  16.311  18.082  0.00  0.00    +0.000 A 
ATOM     20 CL   UNL     1       3.360  16.928  17.312  0.00  0.00    +0.000 Cl
ATOM     21  C   UNL     1       1.837  14.944  18.321  0.00  0.00    +0.000 A 
ATOM     22  C   UNL     1       0.689  14.413  18.931  0.00  0.00    +0.000 A 
BRANCH  16  24
ATOM     23  C   UNL     1      -2.376  15.692  20.492  0.00  0.00    +0.000 C 
ATOM     24  O   UNL     1      -1.453  14.762  19.924  0.00  0.00    +0.000 OA
ENDBRANCH  16  24
ENDBRANCH  12  22
ENDBRANCH   1  13
BRANCH   2  25
ATOM     25  C   UNL     1      -0.513  11.004  22.493  0.00  0.00    +0.000 C 
ATOM     26  O   UNL     1      -0.391  10.461  23.592  0.00  0.00    +0.000 OA
ATOM     27  N   UNL     1      -1.355  12.073  22.244  0.00  0.00    +0.000 N 
ATOM     28  H   UNL     1      -1.410  12.432  21.302  0.00  0.00    +0.000 HD
BRANCH  27  29
ATOM     29  C   UNL     1      -2.154  12.743  23.224  0.00  0.00    +0.000 A 
ATOM     30  C   UNL     1      -3.349  12.177  23.691  0.00  0.00    +0.000 A 
ATOM     31  C   UNL     1      -4.164  12.833  24.607  0.00  0.00    +0.000 A 
ATOM     32  C   UNL     1      -3.781  14.066  25.109  0.00  0.00    +0.000 A 
ATOM     33  C   UNL     1      -2.575  14.656  24.703  0.00  0.00    +0.000 A 
ATOM     34  C   UNL     1      -2.220  15.987  25.313  0.00  0.00    +0.000 C 
ATOM     35  C   UNL     1      -1.753  14.003  23.741  0.00  0.00    +0.000 A 
ATOM     36  C   UNL     1      -0.482  14.658  23.260  0.00  0.00    +0.000 C 
ENDBRANCH  27  29
ENDBRANCH   2  25
TORSDOF 5
ENDMDL
MODEL 7
REMARK VINA RESULT:      -7.2      3.614      8.140
REMARK  Name = 
REMARK  9 active torsions:
REMARK  status: ('A' for Active; 'I' for Inactive)
REMARK    1  A    between atoms: C_1  and  O_2
REMARK    2  A    between atoms: O_2  and  C_3
REMARK    3  A    between atoms: C_9  and  N_10
REMARK    4  A    between atoms: C_11  and  C_13
REMARK    5  A    between atoms: C_14  and  C_15
REMARK    6  A    between atoms: N_17  and  C_18
REMARK    7  A    between atoms: C_22  and  C_23
REMARK    8  A    between atoms: C_24  and  C_25
REMARK    9  A    between atoms: C_29  and  C_30
REMARK                            x       y       z     vdW  Elec       q    Type
REMARK                         _______ _______ _______ _____ _____    ______ ____
ROOT
ATOM      1  C   UNL     1      -1.264  13.576  19.847  0.00  0.00    +0.000 A 
ATOM      2  C   UNL     1      -0.195  12.943  19.305  0.00  0.00    +0.000 A 
ATOM      3  S   UNL     1       1.205  14.014  19.240  0.00  0.00    +0.000 S 
ATOM      4  C   UNL     1       0.319  15.280  20.013  0.00  0.00    +0.000 A 
ATOM      5  N   UNL     1       0.872  16.399  20.330  0.00  0.00    +0.000 NA
ATOM      6  C   UNL     1       0.069  17.318  20.936  0.00  0.00    +0.000 A 
ATOM      7  C   UNL     1       0.732  18.597  21.370  0.00  0.00    +0.000 C 
ATOM      8  C   UNL     1      -1.239  17.127  21.133  0.00  0.00    +0.000 A 
ATOM      9  C   UNL     1      -1.852  15.861  20.684  0.00  0.00    +0.000 A 
ATOM     10  O   UNL     1      -3.074  15.779  20.730  0.00  0.00    +0.000 OA
ATOM     11  N   UNL     1      -0.994  14.905  20.207  0.00  0.00    +0.000 N 
ENDROOT
BRANCH   1  13
ATOM     12  N   UNL     1      -3.662  12.953  19.445  0.00  0.00    +0.000 N 
ATOM     13  C   UNL     1      -2.503  12.779  20.170  0.00  0.00    +0.000 C 
ATOM     14  O   UNL     1      -2.416  11.993  21.113  0.00  0.00    +0.000 OA
ATOM     15  H   UNL     1      -3.739  13.743  18.799  0.00  0.00    +0.000 HD
BRANCH  12  22
ATOM     16  C   UNL     1      -5.317  11.315  18.661  0.00  0.00    +0.000 A 
ATOM     17  C   UNL     1      -6.527  10.625  18.835  0.00  0.00    +0.000 A 
ATOM     18  C   UNL     1      -7.326  10.865  19.952  0.00  0.00    +0.000 A 
ATOM     19  C   UNL     1      -6.904  11.772  20.912  0.00  0.00    +0.000 A 
ATOM     20 CL   UNL     1      -7.881  12.059  22.299  0.00  0.00    +0.000 Cl
ATOM     21  C   UNL     1      -5.695  12.449  20.768  0.00  0.00    +0.000 A 
ATOM     22  C   UNL     1      -4.888  12.247  19.637  0.00  0.00    +0.000 A 
BRANCH  16  24
ATOM     23  C   UNL     1      -3.721   9.938  17.555  0.00  0.00    +0.000 C 
ATOM     24  O   UNL     1      -4.508  11.130  17.563  0.00  0.00    +0.000 OA
ENDBRANCH  16  24
ENDBRANCH  12  22
ENDBRANCH   1  13
BRANCH   2  25
ATOM     25  C   UNL     1       0.125  11.537  18.854  0.00  0.00    +0.000 C 
ATOM     26  O   UNL     1      -0.724  10.956  18.177  0.00  0.00    +0.000 OA
ATOM     27  N   UNL     1       1.275  10.940  19.337  0.00  0.00    +0.000 N 
ATOM     28  H   UNL     1       1.897  11.491  19.911  0.00  0.00    +0.000 HD
BRANCH  27  29
ATOM     29  C   UNL     1       1.681   9.593  19.076  0.00  0.00    +0.000 A 
ATOM     30  C   UNL     1       2.263   9.238  17.851  0.00  0.00    +0.000 A 
ATOM     31  C   UNL     1       2.621   7.926  17.560  0.00  0.00    +0.000 A 
ATOM     32  C   UNL     1       2.434   6.936  18.510  0.00  0.00    +0.000 A 
ATOM     33  C   UNL     1       1.892   7.248  19.766  0.00  0.00    +0.000 A 
ATOM     34  C   UNL     1       1.743   6.117  20.751  0.00  0.00    +0.000 C 
ATOM     35  C   UNL     1       1.495   8.583  20.057  0.00  0.00    +0.000 A 
ATOM     36  C   UNL     1       0.860   8.914  21.386  0.00  0.00    +0.000 C 
ENDBRANCH  27  29
ENDBRANCH   2  25
TORSDOF 5
ENDMDL
MODEL 8
REMARK VINA RESULT:      -7.2      2.117      6.803
REMARK  Name = 
REMARK  9 active torsions:
REMARK  status: ('A' for Active; 'I' for Inactive)
REMARK    1  A    between atoms: C_1  and  O_2
REMARK    2  A    between atoms: O_2  and  C_3
REMARK    3  A    between atoms: C_9  and  N_10
REMARK    4  A    between atoms: C_11  and  C_13
REMARK    5  A    between atoms: C_14  and  C_15
REMARK    6  A    between atoms: N_17  and  C_18
REMARK    7  A    between atoms: C_22  and  C_23
REMARK    8  A    between atoms: C_24  and  C_25
REMARK    9  A    between atoms: C_29  and  C_30
REMARK                            x       y       z     vdW  Elec       q    Type
REMARK                         _______ _______ _______ _____ _____    ______ ____
ROOT
ATOM      1  C   UNL     1      -0.284  12.212  21.489  0.00  0.00    +0.000 A 
ATOM      2  C   UNL     1      -0.003  10.951  21.901  0.00  0.00    +0.000 A 
ATOM      3  S   UNL     1      -1.189  10.394  23.081  0.00  0.00    +0.000 S 
ATOM      4  C   UNL     1      -2.079  11.869  22.939  0.00  0.00    +0.000 A 
ATOM      5  N   UNL     1      -3.190  12.054  23.562  0.00  0.00    +0.000 NA
ATOM      6  C   UNL     1      -3.798  13.258  23.368  0.00  0.00    +0.000 A 
ATOM      7  C   UNL     1      -5.129  13.447  24.041  0.00  0.00    +0.000 C 
ATOM      8  C   UNL     1      -3.256  14.239  22.639  0.00  0.00    +0.000 A 
ATOM      9  C   UNL     1      -1.943  14.016  22.003  0.00  0.00    +0.000 A 
ATOM     10  O   UNL     1      -1.399  14.980  21.478  0.00  0.00    +0.000 OA
ATOM     11  N   UNL     1      -1.426  12.750  22.102  0.00  0.00    +0.000 N 
ENDROOT
BRANCH   1  13
ATOM     12  N   UNL     1       1.270  13.925  20.514  0.00  0.00    +0.000 N 
ATOM     13  C   UNL     1       0.495  12.799  20.339  0.00  0.00    +0.000 C 
ATOM     14  O   UNL     1       0.381  12.229  19.255  0.00  0.00    +0.000 OA
ATOM     15  H   UNL     1       1.185  14.466  21.380  0.00  0.00    +0.000 HD
BRANCH  12  22
ATOM     16  C   UNL     1       1.540  15.660  18.797  0.00  0.00    +0.000 A 
ATOM     17  C   UNL     1       2.313  16.285  17.805  0.00  0.00    +0.000 A 
ATOM     18  C   UNL     1       3.591  15.819  17.504  0.00  0.00    +0.000 A 
ATOM     19  C   UNL     1       4.113  14.747  18.214  0.00  0.00    +0.000 A 
ATOM     20 CL   UNL     1       5.697  14.180  17.855  0.00  0.00    +0.000 Cl
ATOM     21  C   UNL     1       3.370  14.130  19.217  0.00  0.00    +0.000 A 
ATOM     22  C   UNL     1       2.068  14.562  19.516  0.00  0.00    +0.000 A 
BRANCH  16  24
ATOM     23  C   UNL     1       0.098  17.461  19.385  0.00  0.00    +0.000 C 
ATOM     24  O   UNL     1       0.263  16.069  19.110  0.00  0.00    +0.000 OA
ENDBRANCH  16  24
ENDBRANCH  12  22
ENDBRANCH   1  13
BRANCH   2  25
ATOM     25  C   UNL     1       0.992   9.879  21.523  0.00  0.00    +0.000 C 
ATOM     26  O   UNL     1       2.090   9.908  22.080  0.00  0.00    +0.000 OA
ATOM     27  N   UNL     1       0.668   9.022  20.487  0.00  0.00    +0.000 N 
ATOM     28  H   UNL     1      -0.250   9.094  20.072  0.00  0.00    +0.000 HD
BRANCH  27  29
ATOM     29  C   UNL     1       1.526   8.009  19.952  0.00  0.00    +0.000 A 
ATOM     30  C   UNL     1       1.718   6.794  20.625  0.00  0.00    +0.000 A 
ATOM     31  C   UNL     1       2.583   5.817  20.146  0.00  0.00    +0.000 A 
ATOM     32  C   UNL     1       3.257   6.020  18.954  0.00  0.00    +0.000 A 
ATOM     33  C   UNL     1       3.069   7.202  18.222  0.00  0.00    +0.000 A 
ATOM     34  C   UNL     1       3.821   7.336  16.924  0.00  0.00    +0.000 C 
ATOM     35  C   UNL     1       2.208   8.219  18.725  0.00  0.00    +0.000 A 
ATOM     36  C   UNL     1       2.044   9.516  17.970  0.00  0.00    +0.000 C 
ENDBRANCH  27  29
ENDBRANCH   2  25
TORSDOF 5
ENDMDL
MODEL 9
REMARK VINA RESULT:      -7.1      3.130      7.773
REMARK  Name = 
REMARK  9 active torsions:
REMARK  status: ('A' for Active; 'I' for Inactive)
REMARK    1  A    between atoms: C_1  and  O_2
REMARK    2  A    between atoms: O_2  and  C_3
REMARK    3  A    between atoms: C_9  and  N_10
REMARK    4  A    between atoms: C_11  and  C_13
REMARK    5  A    between atoms: C_14  and  C_15
REMARK    6  A    between atoms: N_17  and  C_18
REMARK    7  A    between atoms: C_22  and  C_23
REMARK    8  A    between atoms: C_24  and  C_25
REMARK    9  A    between atoms: C_29  and  C_30
REMARK                            x       y       z     vdW  Elec       q    Type
REMARK                         _______ _______ _______ _____ _____    ______ ____
ROOT
ATOM      1  C   UNL     1      -0.115  12.701  19.286  0.00  0.00    +0.000 A 
ATOM      2  C   UNL     1       0.797  11.772  18.905  0.00  0.00    +0.000 A 
ATOM      3  S   UNL     1       2.369  12.515  18.612  0.00  0.00    +0.000 S 
ATOM      4  C   UNL     1       1.765  14.066  19.077  0.00  0.00    +0.000 A 
ATOM      5  N   UNL     1       2.529  15.100  19.140  0.00  0.00    +0.000 NA
ATOM      6  C   UNL     1       1.935  16.266  19.522  0.00  0.00    +0.000 A 
ATOM      7  C   UNL     1       2.841  17.459  19.663  0.00  0.00    +0.000 C 
ATOM      8  C   UNL     1       0.622  16.377  19.748  0.00  0.00    +0.000 A 
ATOM      9  C   UNL     1      -0.233  15.184  19.589  0.00  0.00    +0.000 A 
ATOM     10  O   UNL     1      -1.446  15.348  19.645  0.00  0.00    +0.000 OA
ATOM     11  N   UNL     1       0.413  14.000  19.342  0.00  0.00    +0.000 N 
ENDROOT
BRANCH   1  13
ATOM     12  N   UNL     1      -2.617  12.625  19.113  0.00  0.00    +0.000 N 
ATOM     13  C   UNL     1      -1.468  12.245  19.772  0.00  0.00    +0.000 C 
ATOM     14  O   UNL     1      -1.477  11.543  20.781  0.00  0.00    +0.000 OA
ATOM     15  H   UNL     1      -2.571  13.355  18.397  0.00  0.00    +0.000 HD
BRANCH  12  22
ATOM     16  C   UNL     1      -4.687  11.414  18.581  0.00  0.00    +0.000 A 
ATOM     17  C   UNL     1      -6.001  11.044  18.906  0.00  0.00    +0.000 A 
ATOM     18  C   UNL     1      -6.599  11.506  20.077  0.00  0.00    +0.000 A 
ATOM     19  C   UNL     1      -5.875  12.314  20.941  0.00  0.00    +0.000 A 
ATOM     20 CL   UNL     1      -6.606  12.873  22.396  0.00  0.00    +0.000 Cl
ATOM     21  C   UNL     1      -4.562  12.672  20.647  0.00  0.00    +0.000 A 
ATOM     22  C   UNL     1      -3.949  12.244  19.458  0.00  0.00    +0.000 A 
BRANCH  16  24
ATOM     23  C   UNL     1      -3.447   9.716  17.464  0.00  0.00    +0.000 C 
ATOM     24  O   UNL     1      -4.065  11.003  17.423  0.00  0.00    +0.000 OA
ENDBRANCH  16  24
ENDBRANCH  12  22
ENDBRANCH   1  13
BRANCH   2  25
ATOM     25  C   UNL     1       0.831  10.267  18.781  0.00  0.00    +0.000 C 
ATOM     26  O   UNL     1      -0.024   9.742  18.067  0.00  0.00    +0.000 OA
ATOM     27  N   UNL     1       1.720   9.565  19.574  0.00  0.00    +0.000 N 
ATOM     28  H   UNL     1       2.365  10.086  20.150  0.00  0.00    +0.000 HD
BRANCH  27  29
ATOM     29  C   UNL     1       1.823   8.139  19.640  0.00  0.00    +0.000 A 
ATOM     30  C   UNL     1       1.253   7.421  20.700  0.00  0.00    +0.000 A 
ATOM     31  C   UNL     1       1.381   6.041  20.807  0.00  0.00    +0.000 A 
ATOM     32  C   UNL     1       2.061   5.336  19.828  0.00  0.00    +0.000 A 
ATOM     33  C   UNL     1       2.615   6.004  18.725  0.00  0.00    +0.000 A 
ATOM     34  C   UNL     1       3.318   5.162  17.693  0.00  0.00    +0.000 C 
ATOM     35  C   UNL     1       2.513   7.420  18.628  0.00  0.00    +0.000 A 
ATOM     36  C   UNL     1       3.155   8.150  17.474  0.00  0.00    +0.000 C 
ENDBRANCH  27  29
ENDBRANCH   2  25
TORSDOF 5
ENDMDL
