MODEL 1
REMARK VINA RESULT:      -7.7      0.000      0.000
REMARK  Name = 
REMARK  8 active torsions:
REMARK  status: ('A' for Active; 'I' for Inactive)
REMARK    1  A    between atoms: C_1  and  C_2
REMARK    2  A    between atoms: C_5  and  N_6
REMARK    3  A    between atoms: C_7  and  C_9
REMARK    4  A    between atoms: C_9  and  S_10
REMARK    5  A    between atoms: S_10  and  C_11
REMARK    6  A    between atoms: C_14  and  C_15
REMARK    7  A    between atoms: C_15  and  C_16
REMARK    8  A    between atoms: C_19  and  C_20
REMARK                            x       y       z     vdW  Elec       q    Type
REMARK                         _______ _______ _______ _____ _____    ______ ____
ROOT
ATOM      1  S   UNL     1       1.747   2.374  18.444  0.00  0.00    +0.000 S 
ENDROOT
BRANCH   1   2
ATOM      2  C   UNL     1       1.779   3.860  19.341  0.00  0.00    +0.000 A 
ATOM      3  N   UNL     1       1.338   4.055  20.569  0.00  0.00    +0.000 NA
ATOM      4  N   UNL     1       1.536   5.397  20.860  0.00  0.00    +0.000 NA
ATOM      5  C   UNL     1       2.086   5.931  19.782  0.00  0.00    +0.000 A 
ATOM      6  O   UNL     1       2.262   5.016  18.780  0.00  0.00    +0.000 OA
BRANCH   5   7
ATOM      7  C   UNL     1       2.455   7.341  19.494  0.00  0.00    +0.000 C 
BRANCH   7   8
ATOM      8  C   UNL     1       1.515   8.341  20.100  0.00  0.00    +0.000 A 
ATOM      9  C   UNL     1       0.829   9.342  19.437  0.00  0.00    +0.000 A 
ATOM     10  S   UNL     1      -0.104  10.259  20.542  0.00  0.00    +0.000 S 
ATOM     11  C   UNL     1       0.472   9.278  21.828  0.00  0.00    +0.000 A 
ATOM     12  C   UNL     1       0.014   9.519  23.226  0.00  0.00    +0.000 C 
ATOM     13  N   UNL     1       1.316   8.330  21.478  0.00  0.00    +0.000 NA
ENDBRANCH   7   8
ENDBRANCH   5   7
ENDBRANCH   1   2
BRANCH   1  14
ATOM     14  C   UNL     1       3.455   1.780  18.572  0.00  0.00    +0.000 C 
BRANCH  14  16
ATOM     15  N   UNL     1       4.665   3.758  17.744  0.00  0.00    +0.000 N 
ATOM     16  C   UNL     1       4.393   2.956  18.849  0.00  0.00    +0.000 C 
ATOM     17  O   UNL     1       4.847   3.121  19.980  0.00  0.00    +0.000 OA
ATOM     18  H   UNL     1       4.100   3.598  16.918  0.00  0.00    +0.000 HD
BRANCH  15  23
ATOM     19  C   UNL     1       8.163   8.324  17.700  0.00  0.00    +0.000 C 
ATOM     20  C   UNL     1       7.236   7.142  17.714  0.00  0.00    +0.000 A 
ATOM     21  C   UNL     1       5.977   7.216  17.115  0.00  0.00    +0.000 A 
ATOM     22  C   UNL     1       5.116   6.110  17.121  0.00  0.00    +0.000 A 
ATOM     23  C   UNL     1       5.492   4.908  17.725  0.00  0.00    +0.000 A 
ATOM     24  C   UNL     1       6.748   4.841  18.345  0.00  0.00    +0.000 A 
ATOM     25  C   UNL     1       7.616   5.944  18.327  0.00  0.00    +0.000 A 
ENDBRANCH  15  23
ENDBRANCH  14  16
ENDBRANCH   1  14
TORSDOF 6
ENDMDL
MODEL 2
REMARK VINA RESULT:      -7.6      0.889      1.521
REMARK  Name = 
REMARK  8 active torsions:
REMARK  status: ('A' for Active; 'I' for Inactive)
REMARK    1  A    between atoms: C_1  and  C_2
REMARK    2  A    between atoms: C_5  and  N_6
REMARK    3  A    between atoms: C_7  and  C_9
REMARK    4  A    between atoms: C_9  and  S_10
REMARK    5  A    between atoms: S_10  and  C_11
REMARK    6  A    between atoms: C_14  and  C_15
REMARK    7  A    between atoms: C_15  and  C_16
REMARK    8  A    between atoms: C_19  and  C_20
REMARK                            x       y       z     vdW  Elec       q    Type
REMARK                         _______ _______ _______ _____ _____    ______ ____
ROOT
ATOM      1  S   UNL     1       1.540   2.564  18.467  0.00  0.00    +0.000 S 
ENDROOT
BRANCH   1   2
ATOM      2  C   UNL     1       1.711   4.023  19.393  0.00  0.00    +0.000 A 
ATOM      3  N   UNL     1       1.516   4.168  20.689  0.00  0.00    +0.000 NA
ATOM      4  N   UNL     1       1.735   5.507  20.983  0.00  0.00    +0.000 NA
ATOM      5  C   UNL     1       2.048   6.089  19.836  0.00  0.00    +0.000 A 
ATOM      6  O   UNL     1       2.045   5.210  18.788  0.00  0.00    +0.000 OA
BRANCH   5   7
ATOM      7  C   UNL     1       2.317   7.518  19.531  0.00  0.00    +0.000 C 
BRANCH   7   8
ATOM      8  C   UNL     1       1.414   8.467  20.264  0.00  0.00    +0.000 A 
ATOM      9  C   UNL     1       1.227   8.543  21.632  0.00  0.00    +0.000 A 
ATOM     10  S   UNL     1       0.081   9.757  22.010  0.00  0.00    +0.000 S 
ATOM     11  C   UNL     1      -0.101  10.094  20.336  0.00  0.00    +0.000 A 
ATOM     12  C   UNL     1      -1.029  11.167  19.878  0.00  0.00    +0.000 C 
ATOM     13  N   UNL     1       0.628   9.351  19.530  0.00  0.00    +0.000 NA
ENDBRANCH   7   8
ENDBRANCH   5   7
ENDBRANCH   1   2
BRANCH   1  14
ATOM     14  C   UNL     1       3.172   1.790  18.614  0.00  0.00    +0.000 C 
BRANCH  14  16
ATOM     15  N   UNL     1       4.462   3.718  17.788  0.00  0.00    +0.000 N 
ATOM     16  C   UNL     1       4.233   2.863  18.863  0.00  0.00    +0.000 C 
ATOM     17  O   UNL     1       4.813   2.908  19.947  0.00  0.00    +0.000 OA
ATOM     18  H   UNL     1       3.804   3.664  17.019  0.00  0.00    +0.000 HD
BRANCH  15  23
ATOM     19  C   UNL     1       8.058   8.204  17.621  0.00  0.00    +0.000 C 
ATOM     20  C   UNL     1       7.132   7.022  17.662  0.00  0.00    +0.000 A 
ATOM     21  C   UNL     1       7.530   5.825  18.261  0.00  0.00    +0.000 A 
ATOM     22  C   UNL     1       6.662   4.725  18.305  0.00  0.00    +0.000 A 
ATOM     23  C   UNL     1       5.381   4.795  17.753  0.00  0.00    +0.000 A 
ATOM     24  C   UNL     1       4.990   5.991  17.134  0.00  0.00    +0.000 A 
ATOM     25  C   UNL     1       5.854   7.097  17.101  0.00  0.00    +0.000 A 
ENDBRANCH  15  23
ENDBRANCH  14  16
ENDBRANCH   1  14
TORSDOF 6
ENDMDL
MODEL 3
REMARK VINA RESULT:      -7.6      2.755      6.997
REMARK  Name = 
REMARK  8 active torsions:
REMARK  status: ('A' for Active; 'I' for Inactive)
REMARK    1  A    between atoms: C_1  and  C_2
REMARK    2  A    between atoms: C_5  and  N_6
REMARK    3  A    between atoms: C_7  and  C_9
REMARK    4  A    between atoms: C_9  and  S_10
REMARK    5  A    between atoms: S_10  and  C_11
REMARK    6  A    between atoms: C_14  and  C_15
REMARK    7  A    between atoms: C_15  and  C_16
REMARK    8  A    between atoms: C_19  and  C_20
REMARK                            x       y       z     vdW  Elec       q    Type
REMARK                         _______ _______ _______ _____ _____    ______ ____
ROOT
ATOM      1  S   UNL     1       2.843   2.500  19.618  0.00  0.00    +0.000 S 
ENDROOT
BRANCH   1   2
ATOM      2  C   UNL     1       3.652   3.571  18.517  0.00  0.00    +0.000 A 
ATOM      3  N   UNL     1       3.097   4.497  17.759  0.00  0.00    +0.000 NA
ATOM      4  N   UNL     1       4.118   5.081  17.023  0.00  0.00    +0.000 NA
ATOM      5  C   UNL     1       5.231   4.464  17.384  0.00  0.00    +0.000 A 
ATOM      6  O   UNL     1       5.008   3.493  18.321  0.00  0.00    +0.000 OA
BRANCH   5   7
ATOM      7  C   UNL     1       6.620   4.623  16.878  0.00  0.00    +0.000 C 
BRANCH   7   8
ATOM      8  C   UNL     1       6.727   4.534  15.385  0.00  0.00    +0.000 A 
ATOM      9  C   UNL     1       6.047   3.662  14.555  0.00  0.00    +0.000 A 
ATOM     10  S   UNL     1       6.510   3.905  12.925  0.00  0.00    +0.000 S 
ATOM     11  C   UNL     1       7.591   5.142  13.426  0.00  0.00    +0.000 A 
ATOM     12  C   UNL     1       8.405   5.886  12.423  0.00  0.00    +0.000 C 
ATOM     13  N   UNL     1       7.627   5.366  14.723  0.00  0.00    +0.000 NA
ENDBRANCH   7   8
ENDBRANCH   5   7
ENDBRANCH   1   2
BRANCH   1  14
ATOM     14  C   UNL     1       2.539   3.549  21.064  0.00  0.00    +0.000 C 
BRANCH  14  16
ATOM     15  N   UNL     1       2.471   5.956  20.550  0.00  0.00    +0.000 N 
ATOM     16  C   UNL     1       1.732   4.780  20.649  0.00  0.00    +0.000 C 
ATOM     17  O   UNL     1       0.523   4.677  20.445  0.00  0.00    +0.000 OA
ATOM     18  H   UNL     1       3.479   5.862  20.591  0.00  0.00    +0.000 HD
BRANCH  15  23
ATOM     19  C   UNL     1       0.469  11.083  18.880  0.00  0.00    +0.000 C 
ATOM     20  C   UNL     1       0.995   9.751  19.332  0.00  0.00    +0.000 A 
ATOM     21  C   UNL     1       0.759   9.293  20.629  0.00  0.00    +0.000 A 
ATOM     22  C   UNL     1       1.243   8.046  21.047  0.00  0.00    +0.000 A 
ATOM     23  C   UNL     1       1.975   7.230  20.180  0.00  0.00    +0.000 A 
ATOM     24  C   UNL     1       2.230   7.700  18.884  0.00  0.00    +0.000 A 
ATOM     25  C   UNL     1       1.733   8.943  18.461  0.00  0.00    +0.000 A 
ENDBRANCH  15  23
ENDBRANCH  14  16
ENDBRANCH   1  14
TORSDOF 6
ENDMDL
MODEL 4
REMARK VINA RESULT:      -7.6      2.400      5.488
REMARK  Name = 
REMARK  8 active torsions:
REMARK  status: ('A' for Active; 'I' for Inactive)
REMARK    1  A    between atoms: C_1  and  C_2
REMARK    2  A    between atoms: C_5  and  N_6
REMARK    3  A    between atoms: C_7  and  C_9
REMARK    4  A    between atoms: C_9  and  S_10
REMARK    5  A    between atoms: S_10  and  C_11
REMARK    6  A    between atoms: C_14  and  C_15
REMARK    7  A    between atoms: C_15  and  C_16
REMARK    8  A    between atoms: C_19  and  C_20
REMARK                            x       y       z     vdW  Elec       q    Type
REMARK                         _______ _______ _______ _____ _____    ______ ____
ROOT
ATOM      1  S   UNL     1       3.468   2.296  20.980  0.00  0.00    +0.000 S 
ENDROOT
BRANCH   1   2
ATOM      2  C   UNL     1       3.277   2.617  19.284  0.00  0.00    +0.000 A 
ATOM      3  N   UNL     1       2.332   2.153  18.491  0.00  0.00    +0.000 NA
ATOM      4  N   UNL     1       2.597   2.643  17.219  0.00  0.00    +0.000 NA
ATOM      5  C   UNL     1       3.694   3.376  17.328  0.00  0.00    +0.000 A 
ATOM      6  O   UNL     1       4.181   3.397  18.606  0.00  0.00    +0.000 OA
BRANCH   5   7
ATOM      7  C   UNL     1       4.477   4.085  16.283  0.00  0.00    +0.000 C 
BRANCH   7   8
ATOM      8  C   UNL     1       5.385   5.145  16.832  0.00  0.00    +0.000 A 
ATOM      9  C   UNL     1       5.427   6.476  16.458  0.00  0.00    +0.000 A 
ATOM     10  S   UNL     1       6.642   7.304  17.335  0.00  0.00    +0.000 S 
ATOM     11  C   UNL     1       7.042   5.843  18.144  0.00  0.00    +0.000 A 
ATOM     12  C   UNL     1       8.118   5.820  19.175  0.00  0.00    +0.000 C 
ATOM     13  N   UNL     1       6.333   4.791  17.788  0.00  0.00    +0.000 NA
ENDBRANCH   7   8
ENDBRANCH   5   7
ENDBRANCH   1   2
BRANCH   1  14
ATOM     14  C   UNL     1       2.033   3.121  21.719  0.00  0.00    +0.000 C 
BRANCH  14  16
ATOM     15  N   UNL     1       2.395   5.382  20.813  0.00  0.00    +0.000 N 
ATOM     16  C   UNL     1       1.568   4.262  20.812  0.00  0.00    +0.000 C 
ATOM     17  O   UNL     1       0.528   4.142  20.165  0.00  0.00    +0.000 OA
ATOM     18  H   UNL     1       3.295   5.280  21.267  0.00  0.00    +0.000 HD
BRANCH  15  23
ATOM     19  C   UNL     1       1.588  10.287  17.920  0.00  0.00    +0.000 C 
ATOM     20  C   UNL     1       1.796   8.997  18.661  0.00  0.00    +0.000 A 
ATOM     21  C   UNL     1       2.425   7.914  18.045  0.00  0.00    +0.000 A 
ATOM     22  C   UNL     1       2.626   6.714  18.740  0.00  0.00    +0.000 A 
ATOM     23  C   UNL     1       2.201   6.568  20.063  0.00  0.00    +0.000 A 
ATOM     24  C   UNL     1       1.550   7.649  20.674  0.00  0.00    +0.000 A 
ATOM     25  C   UNL     1       1.361   8.856  19.982  0.00  0.00    +0.000 A 
ENDBRANCH  15  23
ENDBRANCH  14  16
ENDBRANCH   1  14
TORSDOF 6
ENDMDL
MODEL 5
REMARK VINA RESULT:      -7.5      0.366      1.047
REMARK  Name = 
REMARK  8 active torsions:
REMARK  status: ('A' for Active; 'I' for Inactive)
REMARK    1  A    between atoms: C_1  and  C_2
REMARK    2  A    between atoms: C_5  and  N_6
REMARK    3  A    between atoms: C_7  and  C_9
REMARK    4  A    between atoms: C_9  and  S_10
REMARK    5  A    between atoms: S_10  and  C_11
REMARK    6  A    between atoms: C_14  and  C_15
REMARK    7  A    between atoms: C_15  and  C_16
REMARK    8  A    between atoms: C_19  and  C_20
REMARK                            x       y       z     vdW  Elec       q    Type
REMARK                         _______ _______ _______ _____ _____    ______ ____
ROOT
ATOM      1  S   UNL     1       1.594   2.208  19.082  0.00  0.00    +0.000 S 
ENDROOT
BRANCH   1   2
ATOM      2  C   UNL     1       1.909   3.798  19.703  0.00  0.00    +0.000 A 
ATOM      3  N   UNL     1       1.976   4.155  20.971  0.00  0.00    +0.000 NA
ATOM      4  N   UNL     1       2.214   5.522  20.992  0.00  0.00    +0.000 NA
ATOM      5  C   UNL     1       2.275   5.905  19.727  0.00  0.00    +0.000 A 
ATOM      6  O   UNL     1       2.084   4.866  18.858  0.00  0.00    +0.000 OA
BRANCH   5   7
ATOM      7  C   UNL     1       2.439   7.263  19.146  0.00  0.00    +0.000 C 
BRANCH   7   8
ATOM      8  C   UNL     1       1.590   8.306  19.810  0.00  0.00    +0.000 A 
ATOM      9  C   UNL     1       1.092   9.460  19.233  0.00  0.00    +0.000 A 
ATOM     10  S   UNL     1       0.200  10.363  20.382  0.00  0.00    +0.000 S 
ATOM     11  C   UNL     1       0.542   9.173  21.571  0.00  0.00    +0.000 A 
ATOM     12  C   UNL     1       0.010   9.314  22.956  0.00  0.00    +0.000 C 
ATOM     13  N   UNL     1       1.283   8.165  21.160  0.00  0.00    +0.000 NA
ENDBRANCH   7   8
ENDBRANCH   5   7
ENDBRANCH   1   2
BRANCH   1  14
ATOM     14  C   UNL     1       3.200   1.701  18.414  0.00  0.00    +0.000 C 
BRANCH  14  16
ATOM     15  N   UNL     1       4.474   3.670  17.664  0.00  0.00    +0.000 N 
ATOM     16  C   UNL     1       4.246   2.777  18.708  0.00  0.00    +0.000 C 
ATOM     17  O   UNL     1       4.815   2.793  19.798  0.00  0.00    +0.000 OA
ATOM     18  H   UNL     1       3.824   3.634  16.888  0.00  0.00    +0.000 HD
BRANCH  15  23
ATOM     19  C   UNL     1       8.018   8.200  17.667  0.00  0.00    +0.000 C 
ATOM     20  C   UNL     1       7.106   7.006  17.665  0.00  0.00    +0.000 A 
ATOM     21  C   UNL     1       7.478   5.823  18.305  0.00  0.00    +0.000 A 
ATOM     22  C   UNL     1       6.623   4.713  18.309  0.00  0.00    +0.000 A 
ATOM     23  C   UNL     1       5.380   4.759  17.674  0.00  0.00    +0.000 A 
ATOM     24  C   UNL     1       5.016   5.941  17.013  0.00  0.00    +0.000 A 
ATOM     25  C   UNL     1       5.867   7.057  17.020  0.00  0.00    +0.000 A 
ENDBRANCH  15  23
ENDBRANCH  14  16
ENDBRANCH   1  14
TORSDOF 6
ENDMDL
MODEL 6
REMARK VINA RESULT:      -7.5      2.493      5.721
REMARK  Name = 
REMARK  8 active torsions:
REMARK  status: ('A' for Active; 'I' for Inactive)
REMARK    1  A    between atoms: C_1  and  C_2
REMARK    2  A    between atoms: C_5  and  N_6
REMARK    3  A    between atoms: C_7  and  C_9
REMARK    4  A    between atoms: C_9  and  S_10
REMARK    5  A    between atoms: S_10  and  C_11
REMARK    6  A    between atoms: C_14  and  C_15
REMARK    7  A    between atoms: C_15  and  C_16
REMARK    8  A    between atoms: C_19  and  C_20
REMARK                            x       y       z     vdW  Elec       q    Type
REMARK                         _______ _______ _______ _____ _____    ______ ____
ROOT
ATOM      1  S   UNL     1       3.363   2.238  21.034  0.00  0.00    +0.000 S 
ENDROOT
BRANCH   1   2
ATOM      2  C   UNL     1       3.063   2.516  19.347  0.00  0.00    +0.000 A 
ATOM      3  N   UNL     1       2.305   1.793  18.546  0.00  0.00    +0.000 NA
ATOM      4  N   UNL     1       2.388   2.367  17.285  0.00  0.00    +0.000 NA
ATOM      5  C   UNL     1       3.197   3.407  17.406  0.00  0.00    +0.000 A 
ATOM      6  O   UNL     1       3.666   3.556  18.683  0.00  0.00    +0.000 OA
BRANCH   5   7
ATOM      7  C   UNL     1       3.704   4.350  16.375  0.00  0.00    +0.000 C 
BRANCH   7   8
ATOM      8  C   UNL     1       5.135   4.749  16.581  0.00  0.00    +0.000 A 
ATOM      9  C   UNL     1       6.247   3.934  16.471  0.00  0.00    +0.000 A 
ATOM     10  S   UNL     1       7.670   4.817  16.823  0.00  0.00    +0.000 S 
ATOM     11  C   UNL     1       6.721   6.218  17.110  0.00  0.00    +0.000 A 
ATOM     12  C   UNL     1       7.369   7.507  17.483  0.00  0.00    +0.000 C 
ATOM     13  N   UNL     1       5.421   6.055  16.969  0.00  0.00    +0.000 NA
ENDBRANCH   7   8
ENDBRANCH   5   7
ENDBRANCH   1   2
BRANCH   1  14
ATOM     14  C   UNL     1       2.000   3.115  21.844  0.00  0.00    +0.000 C 
BRANCH  14  16
ATOM     15  N   UNL     1       2.312   5.417  21.028  0.00  0.00    +0.000 N 
ATOM     16  C   UNL     1       1.527   4.269  20.959  0.00  0.00    +0.000 C 
ATOM     17  O   UNL     1       0.517   4.134  20.269  0.00  0.00    +0.000 OA
ATOM     18  H   UNL     1       3.197   5.331  21.513  0.00  0.00    +0.000 HD
BRANCH  15  23
ATOM     19  C   UNL     1       1.493  10.215  17.964  0.00  0.00    +0.000 C 
ATOM     20  C   UNL     1       1.709   8.972  18.779  0.00  0.00    +0.000 A 
ATOM     21  C   UNL     1       1.219   8.879  20.082  0.00  0.00    +0.000 A 
ATOM     22  C   UNL     1       1.414   7.715  20.838  0.00  0.00    +0.000 A 
ATOM     23  C   UNL     1       2.103   6.621  20.311  0.00  0.00    +0.000 A 
ATOM     24  C   UNL     1       2.613   6.722  19.008  0.00  0.00    +0.000 A 
ATOM     25  C   UNL     1       2.406   7.883  18.246  0.00  0.00    +0.000 A 
ENDBRANCH  15  23
ENDBRANCH  14  16
ENDBRANCH   1  14
TORSDOF 6
ENDMDL
MODEL 7
REMARK VINA RESULT:      -7.3      3.444      4.441
REMARK  Name = 
REMARK  8 active torsions:
REMARK  status: ('A' for Active; 'I' for Inactive)
REMARK    1  A    between atoms: C_1  and  C_2
REMARK    2  A    between atoms: C_5  and  N_6
REMARK    3  A    between atoms: C_7  and  C_9
REMARK    4  A    between atoms: C_9  and  S_10
REMARK    5  A    between atoms: S_10  and  C_11
REMARK    6  A    between atoms: C_14  and  C_15
REMARK    7  A    between atoms: C_15  and  C_16
REMARK    8  A    between atoms: C_19  and  C_20
REMARK                            x       y       z     vdW  Elec       q    Type
REMARK                         _______ _______ _______ _____ _____    ______ ____
ROOT
ATOM      1  S   UNL     1       7.360   5.709  19.527  0.00  0.00    +0.000 S 
ENDROOT
BRANCH   1   2
ATOM      2  C   UNL     1       5.796   5.002  19.262  0.00  0.00    +0.000 A 
ATOM      3  N   UNL     1       5.487   3.721  19.308  0.00  0.00    +0.000 NA
ATOM      4  N   UNL     1       4.137   3.622  19.001  0.00  0.00    +0.000 NA
ATOM      5  C   UNL     1       3.716   4.858  18.786  0.00  0.00    +0.000 A 
ATOM      6  O   UNL     1       4.716   5.781  18.928  0.00  0.00    +0.000 OA
BRANCH   5   7
ATOM      7  C   UNL     1       2.382   5.353  18.356  0.00  0.00    +0.000 C 
BRANCH   7   8
ATOM      8  C   UNL     1       2.079   6.744  18.829  0.00  0.00    +0.000 A 
ATOM      9  C   UNL     1       2.056   7.894  18.061  0.00  0.00    +0.000 A 
ATOM     10  S   UNL     1       1.690   9.253  19.035  0.00  0.00    +0.000 S 
ATOM     11  C   UNL     1       1.598   8.232  20.412  0.00  0.00    +0.000 A 
ATOM     12  C   UNL     1       1.265   8.797  21.751  0.00  0.00    +0.000 C 
ATOM     13  N   UNL     1       1.834   6.957  20.183  0.00  0.00    +0.000 NA
ENDBRANCH   7   8
ENDBRANCH   5   7
ENDBRANCH   1   2
BRANCH   1  14
ATOM     14  C   UNL     1       7.783   6.391  17.902  0.00  0.00    +0.000 C 
BRANCH  14  16
ATOM     15  N   UNL     1       6.799   5.729  15.744  0.00  0.00    +0.000 N 
ATOM     16  C   UNL     1       7.580   5.326  16.824  0.00  0.00    +0.000 C 
ATOM     17  O   UNL     1       8.086   4.213  16.963  0.00  0.00    +0.000 OA
ATOM     18  H   UNL     1       6.582   6.717  15.687  0.00  0.00    +0.000 HD
BRANCH  15  23
ATOM     19  C   UNL     1       5.604   2.543  11.107  0.00  0.00    +0.000 C 
ATOM     20  C   UNL     1       5.899   3.379  12.319  0.00  0.00    +0.000 A 
ATOM     21  C   UNL     1       4.990   3.451  13.375  0.00  0.00    +0.000 A 
ATOM     22  C   UNL     1       5.270   4.226  14.509  0.00  0.00    +0.000 A 
ATOM     23  C   UNL     1       6.462   4.946  14.613  0.00  0.00    +0.000 A 
ATOM     24  C   UNL     1       7.367   4.889  13.543  0.00  0.00    +0.000 A 
ATOM     25  C   UNL     1       7.092   4.103  12.413  0.00  0.00    +0.000 A 
ENDBRANCH  15  23
ENDBRANCH  14  16
ENDBRANCH   1  14
TORSDOF 6
ENDMDL
MODEL 8
REMARK VINA RESULT:      -7.3      2.054      2.616
REMARK  Name = 
REMARK  8 active torsions:
REMARK  status: ('A' for Active; 'I' for Inactive)
REMARK    1  A    between atoms: C_1  and  C_2
REMARK    2  A    between atoms: C_5  and  N_6
REMARK    3  A    between atoms: C_7  and  C_9
REMARK    4  A    between atoms: C_9  and  S_10
REMARK    5  A    between atoms: S_10  and  C_11
REMARK    6  A    between atoms: C_14  and  C_15
REMARK    7  A    between atoms: C_15  and  C_16
REMARK    8  A    between atoms: C_19  and  C_20
REMARK                            x       y       z     vdW  Elec       q    Type
REMARK                         _______ _______ _______ _____ _____    ______ ____
ROOT
ATOM      1  S   UNL     1       1.766   2.988  20.918  0.00  0.00    +0.000 S 
ENDROOT
BRANCH   1   2
ATOM      2  C   UNL     1       1.745   4.136  19.616  0.00  0.00    +0.000 A 
ATOM      3  N   UNL     1       1.264   3.951  18.402  0.00  0.00    +0.000 NA
ATOM      4  N   UNL     1       1.492   5.123  17.695  0.00  0.00    +0.000 NA
ATOM      5  C   UNL     1       2.102   5.946  18.532  0.00  0.00    +0.000 A 
ATOM      6  O   UNL     1       2.299   5.384  19.764  0.00  0.00    +0.000 OA
BRANCH   5   7
ATOM      7  C   UNL     1       2.645   7.311  18.307  0.00  0.00    +0.000 C 
BRANCH   7   8
ATOM      8  C   UNL     1       1.888   8.384  19.031  0.00  0.00    +0.000 A 
ATOM      9  C   UNL     1       1.458   8.353  20.345  0.00  0.00    +0.000 A 
ATOM     10  S   UNL     1       0.609   9.789  20.729  0.00  0.00    +0.000 S 
ATOM     11  C   UNL     1       0.856  10.353  19.126  0.00  0.00    +0.000 A 
ATOM     12  C   UNL     1       0.344  11.689  18.708  0.00  0.00    +0.000 C 
ATOM     13  N   UNL     1       1.517   9.532  18.336  0.00  0.00    +0.000 NA
ENDBRANCH   7   8
ENDBRANCH   5   7
ENDBRANCH   1   2
BRANCH   1  14
ATOM     14  C   UNL     1       3.503   2.475  20.985  0.00  0.00    +0.000 C 
BRANCH  14  16
ATOM     15  N   UNL     1       4.729   3.712  19.245  0.00  0.00    +0.000 N 
ATOM     16  C   UNL     1       4.108   2.512  19.581  0.00  0.00    +0.000 C 
ATOM     17  O   UNL     1       4.012   1.528  18.849  0.00  0.00    +0.000 OA
ATOM     18  H   UNL     1       4.872   4.374  19.998  0.00  0.00    +0.000 HD
BRANCH  15  23
ATOM     19  C   UNL     1       7.179   4.935  14.187  0.00  0.00    +0.000 C 
ATOM     20  C   UNL     1       6.554   4.609  15.513  0.00  0.00    +0.000 A 
ATOM     21  C   UNL     1       7.278   4.754  16.697  0.00  0.00    +0.000 A 
ATOM     22  C   UNL     1       6.692   4.458  17.935  0.00  0.00    +0.000 A 
ATOM     23  C   UNL     1       5.372   4.009  18.018  0.00  0.00    +0.000 A 
ATOM     24  C   UNL     1       4.652   3.843  16.826  0.00  0.00    +0.000 A 
ATOM     25  C   UNL     1       5.234   4.153  15.587  0.00  0.00    +0.000 A 
ENDBRANCH  15  23
ENDBRANCH  14  16
ENDBRANCH   1  14
TORSDOF 6
ENDMDL
MODEL 9
REMARK VINA RESULT:      -7.2      1.381      1.417
REMARK  Name = 
REMARK  8 active torsions:
REMARK  status: ('A' for Active; 'I' for Inactive)
REMARK    1  A    between atoms: C_1  and  C_2
REMARK    2  A    between atoms: C_5  and  N_6
REMARK    3  A    between atoms: C_7  and  C_9
REMARK    4  A    between atoms: C_9  and  S_10
REMARK    5  A    between atoms: S_10  and  C_11
REMARK    6  A    between atoms: C_14  and  C_15
REMARK    7  A    between atoms: C_15  and  C_16
REMARK    8  A    between atoms: C_19  and  C_20
REMARK                            x       y       z     vdW  Elec       q    Type
REMARK                         _______ _______ _______ _____ _____    ______ ____
ROOT
ATOM      1  S   UNL     1       1.919   1.941  18.832  0.00  0.00    +0.000 S 
ENDROOT
BRANCH   1   2
ATOM      2  C   UNL     1       1.883   3.661  18.604  0.00  0.00    +0.000 A 
ATOM      3  N   UNL     1       1.533   4.310  17.511  0.00  0.00    +0.000 NA
ATOM      4  N   UNL     1       1.689   5.663  17.776  0.00  0.00    +0.000 NA
ATOM      5  C   UNL     1       2.130   5.745  19.022  0.00  0.00    +0.000 A 
ATOM      6  O   UNL     1       2.281   4.516  19.603  0.00  0.00    +0.000 OA
BRANCH   5   7
ATOM      7  C   UNL     1       2.536   6.934  19.816  0.00  0.00    +0.000 C 
BRANCH   7   8
ATOM      8  C   UNL     1       1.826   8.193  19.416  0.00  0.00    +0.000 A 
ATOM      9  C   UNL     1       2.008   8.912  18.249  0.00  0.00    +0.000 A 
ATOM     10  S   UNL     1       1.000  10.296  18.239  0.00  0.00    +0.000 S 
ATOM     11  C   UNL     1       0.398   9.859  19.786  0.00  0.00    +0.000 A 
ATOM     12  C   UNL     1      -0.639  10.693  20.457  0.00  0.00    +0.000 C 
ATOM     13  N   UNL     1       0.912   8.760  20.300  0.00  0.00    +0.000 NA
ENDBRANCH   7   8
ENDBRANCH   5   7
ENDBRANCH   1   2
BRANCH   1  14
ATOM     14  C   UNL     1       3.645   1.515  18.478  0.00  0.00    +0.000 C 
BRANCH  14  16
ATOM     15  N   UNL     1       4.733   3.573  17.675  0.00  0.00    +0.000 N 
ATOM     16  C   UNL     1       4.544   2.720  18.760  0.00  0.00    +0.000 C 
ATOM     17  O   UNL     1       5.040   2.864  19.876  0.00  0.00    +0.000 OA
ATOM     18  H   UNL     1       4.139   3.418  16.869  0.00  0.00    +0.000 HD
BRANCH  15  23
ATOM     19  C   UNL     1       8.030   8.286  17.654  0.00  0.00    +0.000 C 
ATOM     20  C   UNL     1       7.155   7.065  17.663  0.00  0.00    +0.000 A 
ATOM     21  C   UNL     1       5.862   7.110  17.140  0.00  0.00    +0.000 A 
ATOM     22  C   UNL     1       5.049   5.968  17.141  0.00  0.00    +0.000 A 
ATOM     23  C   UNL     1       5.509   4.758  17.665  0.00  0.00    +0.000 A 
ATOM     24  C   UNL     1       6.801   4.719  18.210  0.00  0.00    +0.000 A 
ATOM     25  C   UNL     1       7.619   5.859  18.197  0.00  0.00    +0.000 A 
ENDBRANCH  15  23
ENDBRANCH  14  16
ENDBRANCH   1  14
TORSDOF 6
ENDMDL
