MODEL 1
REMARK VINA RESULT:      -8.2      0.000      0.000
REMARK  Name = 
REMARK  3 active torsions:
REMARK  status: ('A' for Active; 'I' for Inactive)
REMARK    1  A    between atoms: C_2  and  C_3
REMARK    2  A    between atoms: C_4  and  C_5
REMARK    3  A    between atoms: N_17  and  C_18
REMARK                            x       y       z     vdW  Elec       q    Type
REMARK                         _______ _______ _______ _____ _____    ______ ____
ROOT
ATOM      1  O   UNL     1       2.220   9.689  17.363  0.00  0.00    +0.000 OA
ATOM      2  C   UNL     1       1.787   9.198  18.404  0.00  0.00    +0.000 C 
ATOM      3  N   UNL     1       0.959   9.877  19.272  0.00  0.00    +0.000 N 
ATOM      4  C   UNL     1       0.433   9.367  20.550  0.00  0.00    +0.000 C 
ATOM      5  C   UNL     1       0.747  10.325  21.713  0.00  0.00    +0.000 C 
ATOM      6  N   UNL     1       0.341  11.701  21.387  0.00  0.00    +0.000 N 
ATOM      7  C   UNL     1       0.862  12.233  20.118  0.00  0.00    +0.000 C 
ATOM      8  C   UNL     1       0.564  11.260  18.960  0.00  0.00    +0.000 C 
ENDROOT
BRANCH   6   9
ATOM      9  C   UNL     1      -0.600  12.377  22.134  0.00  0.00    +0.000 A 
ATOM     10  C   UNL     1      -0.475  13.746  22.415  0.00  0.00    +0.000 A 
ATOM     11  C   UNL     1      -1.430  14.427  23.180  0.00  0.00    +0.000 A 
ATOM     12  C   UNL     1      -2.533  13.743  23.675  0.00  0.00    +0.000 A 
ATOM     13 CL   UNL     1      -3.716  14.576  24.604  0.00  0.00    +0.000 Cl
ATOM     14  C   UNL     1      -2.682  12.387  23.421  0.00  0.00    +0.000 A 
ATOM     15  C   UNL     1      -1.722  11.718  22.659  0.00  0.00    +0.000 A 
ENDBRANCH   6   9
BRANCH   2  16
ATOM     16  C   UNL     1       2.132   7.791  18.747  0.00  0.00    +0.000 C 
ATOM     17  C   UNL     1       2.398   6.883  17.806  0.00  0.00    +0.000 C 
BRANCH  17  18
ATOM     18  C   UNL     1       2.623   5.453  18.095  0.00  0.00    +0.000 A 
ATOM     19  C   UNL     1       1.691   4.467  17.691  0.00  0.00    +0.000 A 
ATOM     20  C   UNL     1       1.892   3.113  17.978  0.00  0.00    +0.000 A 
ATOM     21  C   UNL     1       3.033   2.767  18.665  0.00  0.00    +0.000 A 
ATOM     22  C   UNL     1       3.968   3.709  19.028  0.00  0.00    +0.000 A 
ATOM     23  C   UNL     1       3.801   5.051  18.742  0.00  0.00    +0.000 A 
ATOM     24  O   UNL     1       5.020   3.158  19.695  0.00  0.00    +0.000 OA
ATOM     25  C   UNL     1       4.592   1.782  19.788  0.00  0.00    +0.000 C 
ATOM     26  O   UNL     1       3.377   1.512  19.059  0.00  0.00    +0.000 OA
ENDBRANCH  17  18
ENDBRANCH   2  16
TORSDOF 3
ENDMDL
MODEL 2
REMARK VINA RESULT:      -8.1      5.272     10.200
REMARK  Name = 
REMARK  3 active torsions:
REMARK  status: ('A' for Active; 'I' for Inactive)
REMARK    1  A    between atoms: C_2  and  C_3
REMARK    2  A    between atoms: C_4  and  C_5
REMARK    3  A    between atoms: N_17  and  C_18
REMARK                            x       y       z     vdW  Elec       q    Type
REMARK                         _______ _______ _______ _____ _____    ______ ____
ROOT
ATOM      1  O   UNL     1       2.460   4.482  21.446  0.00  0.00    +0.000 OA
ATOM      2  C   UNL     1       2.296   5.244  20.494  0.00  0.00    +0.000 C 
ATOM      3  N   UNL     1       2.909   5.067  19.272  0.00  0.00    +0.000 N 
ATOM      4  C   UNL     1       2.789   5.955  18.103  0.00  0.00    +0.000 C 
ATOM      5  C   UNL     1       4.169   6.400  17.586  0.00  0.00    +0.000 C 
ATOM      6  N   UNL     1       5.056   5.244  17.390  0.00  0.00    +0.000 N 
ATOM      7  C   UNL     1       5.198   4.348  18.549  0.00  0.00    +0.000 C 
ATOM      8  C   UNL     1       3.813   3.922  19.076  0.00  0.00    +0.000 C 
ENDROOT
BRANCH   6   9
ATOM      9  C   UNL     1       5.579   4.930  16.153  0.00  0.00    +0.000 A 
ATOM     10  C   UNL     1       6.883   5.296  15.789  0.00  0.00    +0.000 A 
ATOM     11  C   UNL     1       7.408   4.981  14.530  0.00  0.00    +0.000 A 
ATOM     12  C   UNL     1       6.629   4.288  13.611  0.00  0.00    +0.000 A 
ATOM     13 CL   UNL     1       7.271   3.887  12.067  0.00  0.00    +0.000 Cl
ATOM     14  C   UNL     1       5.332   3.919  13.938  0.00  0.00    +0.000 A 
ATOM     15  C   UNL     1       4.819   4.240  15.197  0.00  0.00    +0.000 A 
ENDBRANCH   6   9
BRANCH   2  16
ATOM     16  C   UNL     1       1.366   6.397  20.633  0.00  0.00    +0.000 C 
ATOM     17  C   UNL     1       1.791   7.658  20.538  0.00  0.00    +0.000 C 
BRANCH  17  18
ATOM     18  C   UNL     1       0.928   8.830  20.792  0.00  0.00    +0.000 A 
ATOM     19  C   UNL     1       0.546   9.700  19.742  0.00  0.00    +0.000 A 
ATOM     20  C   UNL     1      -0.258  10.820  19.981  0.00  0.00    +0.000 A 
ATOM     21  C   UNL     1      -0.672  11.046  21.273  0.00  0.00    +0.000 A 
ATOM     22  C   UNL     1      -0.343  10.186  22.296  0.00  0.00    +0.000 A 
ATOM     23  C   UNL     1       0.435   9.064  22.083  0.00  0.00    +0.000 A 
ATOM     24  O   UNL     1      -0.855  10.590  23.492  0.00  0.00    +0.000 OA
ATOM     25  C   UNL     1      -1.460  11.846  23.117  0.00  0.00    +0.000 C 
ATOM     26  O   UNL     1      -1.424  12.096  21.697  0.00  0.00    +0.000 OA
ENDBRANCH  17  18
ENDBRANCH   2  16
TORSDOF 3
ENDMDL
MODEL 3
REMARK VINA RESULT:      -8.0      1.249      1.859
REMARK  Name = 
REMARK  3 active torsions:
REMARK  status: ('A' for Active; 'I' for Inactive)
REMARK    1  A    between atoms: C_2  and  C_3
REMARK    2  A    between atoms: C_4  and  C_5
REMARK    3  A    between atoms: N_17  and  C_18
REMARK                            x       y       z     vdW  Elec       q    Type
REMARK                         _______ _______ _______ _____ _____    ______ ____
ROOT
ATOM      1  O   UNL     1       1.955  10.163  17.453  0.00  0.00    +0.000 OA
ATOM      2  C   UNL     1       1.511   9.583  18.443  0.00  0.00    +0.000 C 
ATOM      3  N   UNL     1       0.453  10.060  19.186  0.00  0.00    +0.000 N 
ATOM      4  C   UNL     1      -0.106   9.439  20.399  0.00  0.00    +0.000 C 
ATOM      5  C   UNL     1      -0.156  10.434  21.573  0.00  0.00    +0.000 C 
ATOM      6  N   UNL     1      -0.805  11.691  21.171  0.00  0.00    +0.000 N 
ATOM      7  C   UNL     1      -0.255  12.333  19.966  0.00  0.00    +0.000 C 
ATOM      8  C   UNL     1      -0.188  11.327  18.800  0.00  0.00    +0.000 C 
ENDROOT
BRANCH   6   9
ATOM      9  C   UNL     1      -1.956  12.142  21.781  0.00  0.00    +0.000 A 
ATOM     10  C   UNL     1      -2.218  11.895  23.137  0.00  0.00    +0.000 A 
ATOM     11  C   UNL     1      -3.391  12.350  23.751  0.00  0.00    +0.000 A 
ATOM     12  C   UNL     1      -4.325  13.065  23.011  0.00  0.00    +0.000 A 
ATOM     13 CL   UNL     1      -5.762  13.637  23.761  0.00  0.00    +0.000 Cl
ATOM     14  C   UNL     1      -4.099  13.319  21.666  0.00  0.00    +0.000 A 
ATOM     15  C   UNL     1      -2.925  12.859  21.064  0.00  0.00    +0.000 A 
ENDBRANCH   6   9
BRANCH   2  16
ATOM     16  C   UNL     1       2.105   8.282  18.853  0.00  0.00    +0.000 C 
ATOM     17  C   UNL     1       2.485   7.368  17.958  0.00  0.00    +0.000 C 
BRANCH  17  18
ATOM     18  C   UNL     1       2.963   6.019  18.324  0.00  0.00    +0.000 A 
ATOM     19  C   UNL     1       4.110   5.842  19.133  0.00  0.00    +0.000 A 
ATOM     20  C   UNL     1       4.576   4.566  19.467  0.00  0.00    +0.000 A 
ATOM     21  C   UNL     1       3.876   3.483  18.988  0.00  0.00    +0.000 A 
ATOM     22  C   UNL     1       2.735   3.640  18.234  0.00  0.00    +0.000 A 
ATOM     23  C   UNL     1       2.245   4.890  17.904  0.00  0.00    +0.000 A 
ATOM     24  O   UNL     1       2.195   2.446  17.864  0.00  0.00    +0.000 OA
ATOM     25  C   UNL     1       3.178   1.529  18.391  0.00  0.00    +0.000 C 
ATOM     26  O   UNL     1       4.197   2.177  19.180  0.00  0.00    +0.000 OA
ENDBRANCH  17  18
ENDBRANCH   2  16
TORSDOF 3
ENDMDL
MODEL 4
REMARK VINA RESULT:      -8.0      1.013      1.612
REMARK  Name = 
REMARK  3 active torsions:
REMARK  status: ('A' for Active; 'I' for Inactive)
REMARK    1  A    between atoms: C_2  and  C_3
REMARK    2  A    between atoms: C_4  and  C_5
REMARK    3  A    between atoms: N_17  and  C_18
REMARK                            x       y       z     vdW  Elec       q    Type
REMARK                         _______ _______ _______ _____ _____    ______ ____
ROOT
ATOM      1  O   UNL     1       2.458  10.269  17.395  0.00  0.00    +0.000 OA
ATOM      2  C   UNL     1       1.864   9.662  18.284  0.00  0.00    +0.000 C 
ATOM      3  N   UNL     1       0.990  10.271  19.160  0.00  0.00    +0.000 N 
ATOM      4  C   UNL     1       0.273   9.616  20.267  0.00  0.00    +0.000 C 
ATOM      5  C   UNL     1       0.515  10.339  21.604  0.00  0.00    +0.000 C 
ATOM      6  N   UNL     1       0.261  11.783  21.477  0.00  0.00    +0.000 N 
ATOM      7  C   UNL     1       0.975  12.458  20.381  0.00  0.00    +0.000 C 
ATOM      8  C   UNL     1       0.746  11.718  19.048  0.00  0.00    +0.000 C 
ENDROOT
BRANCH   6   9
ATOM      9  C   UNL     1      -0.709  12.419  22.221  0.00  0.00    +0.000 A 
ATOM     10  C   UNL     1      -1.831  11.734  22.711  0.00  0.00    +0.000 A 
ATOM     11  C   UNL     1      -2.817  12.386  23.462  0.00  0.00    +0.000 A 
ATOM     12  C   UNL     1      -2.691  13.742  23.737  0.00  0.00    +0.000 A 
ATOM     13 CL   UNL     1      -3.892  14.546  24.668  0.00  0.00    +0.000 Cl
ATOM     14  C   UNL     1      -1.597  14.449  23.260  0.00  0.00    +0.000 A 
ATOM     15  C   UNL     1      -0.621  13.789  22.511  0.00  0.00    +0.000 A 
ENDBRANCH   6   9
BRANCH   2  16
ATOM     16  C   UNL     1       2.052   8.192  18.416  0.00  0.00    +0.000 C 
ATOM     17  C   UNL     1       3.072   7.558  17.834  0.00  0.00    +0.000 C 
BRANCH  17  18
ATOM     18  C   UNL     1       3.226   6.089  17.838  0.00  0.00    +0.000 A 
ATOM     19  C   UNL     1       4.265   5.460  17.111  0.00  0.00    +0.000 A 
ATOM     20  C   UNL     1       4.404   4.067  17.098  0.00  0.00    +0.000 A 
ATOM     21  C   UNL     1       3.499   3.327  17.822  0.00  0.00    +0.000 A 
ATOM     22  C   UNL     1       2.509   3.928  18.567  0.00  0.00    +0.000 A 
ATOM     23  C   UNL     1       2.361   5.301  18.610  0.00  0.00    +0.000 A 
ATOM     24  O   UNL     1       1.725   3.018  19.209  0.00  0.00    +0.000 OA
ATOM     25  C   UNL     1       2.278   1.782  18.707  0.00  0.00    +0.000 C 
ATOM     26  O   UNL     1       3.458   1.971  17.899  0.00  0.00    +0.000 OA
ENDBRANCH  17  18
ENDBRANCH   2  16
TORSDOF 3
ENDMDL
MODEL 5
REMARK VINA RESULT:      -8.0      5.138     10.211
REMARK  Name = 
REMARK  3 active torsions:
REMARK  status: ('A' for Active; 'I' for Inactive)
REMARK    1  A    between atoms: C_2  and  C_3
REMARK    2  A    between atoms: C_4  and  C_5
REMARK    3  A    between atoms: N_17  and  C_18
REMARK                            x       y       z     vdW  Elec       q    Type
REMARK                         _______ _______ _______ _____ _____    ______ ____
ROOT
ATOM      1  O   UNL     1       2.251   4.345  21.472  0.00  0.00    +0.000 OA
ATOM      2  C   UNL     1       2.134   5.162  20.560  0.00  0.00    +0.000 C 
ATOM      3  N   UNL     1       2.775   5.036  19.347  0.00  0.00    +0.000 N 
ATOM      4  C   UNL     1       2.711   5.991  18.226  0.00  0.00    +0.000 C 
ATOM      5  C   UNL     1       4.116   6.424  17.771  0.00  0.00    +0.000 C 
ATOM      6  N   UNL     1       4.977   5.256  17.533  0.00  0.00    +0.000 N 
ATOM      7  C   UNL     1       5.063   4.293  18.644  0.00  0.00    +0.000 C 
ATOM      8  C   UNL     1       3.653   3.879  19.110  0.00  0.00    +0.000 C 
ENDROOT
BRANCH   6   9
ATOM      9  C   UNL     1       5.525   4.996  16.295  0.00  0.00    +0.000 A 
ATOM     10  C   UNL     1       4.816   4.298  15.306  0.00  0.00    +0.000 A 
ATOM     11  C   UNL     1       5.379   4.031  14.052  0.00  0.00    +0.000 A 
ATOM     12  C   UNL     1       6.668   4.465  13.768  0.00  0.00    +0.000 A 
ATOM     13 CL   UNL     1       7.362   4.152  12.226  0.00  0.00    +0.000 Cl
ATOM     14  C   UNL     1       7.398   5.152  14.727  0.00  0.00    +0.000 A 
ATOM     15  C   UNL     1       6.827   5.410  15.975  0.00  0.00    +0.000 A 
ENDBRANCH   6   9
BRANCH   2  16
ATOM     16  C   UNL     1       1.232   6.332  20.739  0.00  0.00    +0.000 C 
ATOM     17  C   UNL     1       1.706   7.572  20.871  0.00  0.00    +0.000 C 
BRANCH  17  18
ATOM     18  C   UNL     1       0.856   8.742  21.173  0.00  0.00    +0.000 A 
ATOM     19  C   UNL     1       0.461   9.038  22.499  0.00  0.00    +0.000 A 
ATOM     20  C   UNL     1      -0.359  10.135  22.787  0.00  0.00    +0.000 A 
ATOM     21  C   UNL     1      -0.765  10.923  21.735  0.00  0.00    +0.000 A 
ATOM     22  C   UNL     1      -0.356  10.671  20.446  0.00  0.00    +0.000 A 
ATOM     23  C   UNL     1       0.467   9.604  20.137  0.00  0.00    +0.000 A 
ATOM     24  O   UNL     1      -0.868  11.569  19.559  0.00  0.00    +0.000 OA
ATOM     25  C   UNL     1      -1.717  12.352  20.426  0.00  0.00    +0.000 C 
ATOM     26  O   UNL     1      -1.586  12.003  21.819  0.00  0.00    +0.000 OA
ENDBRANCH  17  18
ENDBRANCH   2  16
TORSDOF 3
ENDMDL
MODEL 6
REMARK VINA RESULT:      -7.9      5.220     10.375
REMARK  Name = 
REMARK  3 active torsions:
REMARK  status: ('A' for Active; 'I' for Inactive)
REMARK    1  A    between atoms: C_2  and  C_3
REMARK    2  A    between atoms: C_4  and  C_5
REMARK    3  A    between atoms: N_17  and  C_18
REMARK                            x       y       z     vdW  Elec       q    Type
REMARK                         _______ _______ _______ _____ _____    ______ ____
ROOT
ATOM      1  O   UNL     1       1.989   5.122  21.013  0.00  0.00    +0.000 OA
ATOM      2  C   UNL     1       2.233   5.997  20.183  0.00  0.00    +0.000 C 
ATOM      3  N   UNL     1       2.863   5.744  18.983  0.00  0.00    +0.000 N 
ATOM      4  C   UNL     1       3.218   6.743  17.961  0.00  0.00    +0.000 C 
ATOM      5  C   UNL     1       4.711   6.670  17.593  0.00  0.00    +0.000 C 
ATOM      6  N   UNL     1       5.108   5.292  17.268  0.00  0.00    +0.000 N 
ATOM      7  C   UNL     1       4.769   4.278  18.281  0.00  0.00    +0.000 C 
ATOM      8  C   UNL     1       3.278   4.369  18.661  0.00  0.00    +0.000 C 
ENDROOT
BRANCH   6   9
ATOM      9  C   UNL     1       5.604   4.951  16.028  0.00  0.00    +0.000 A 
ATOM     10  C   UNL     1       6.904   5.298  15.633  0.00  0.00    +0.000 A 
ATOM     11  C   UNL     1       7.402   4.955  14.369  0.00  0.00    +0.000 A 
ATOM     12  C   UNL     1       6.599   4.254  13.479  0.00  0.00    +0.000 A 
ATOM     13 CL   UNL     1       7.207   3.819  11.930  0.00  0.00    +0.000 Cl
ATOM     14  C   UNL     1       5.305   3.903  13.836  0.00  0.00    +0.000 A 
ATOM     15  C   UNL     1       4.819   4.252  15.098  0.00  0.00    +0.000 A 
ENDBRANCH   6   9
BRANCH   2  16
ATOM     16  C   UNL     1       1.803   7.396  20.449  0.00  0.00    +0.000 C 
ATOM     17  C   UNL     1       0.936   7.694  21.418  0.00  0.00    +0.000 C 
BRANCH  17  18
ATOM     18  C   UNL     1       0.391   9.049  21.636  0.00  0.00    +0.000 A 
ATOM     19  C   UNL     1      -0.309   9.376  22.822  0.00  0.00    +0.000 A 
ATOM     20  C   UNL     1      -0.842  10.654  23.023  0.00  0.00    +0.000 A 
ATOM     21  C   UNL     1      -0.658  11.589  22.031  0.00  0.00    +0.000 A 
ATOM     22  C   UNL     1       0.056  11.296  20.890  0.00  0.00    +0.000 A 
ATOM     23  C   UNL     1       0.606  10.047  20.675  0.00  0.00    +0.000 A 
ATOM     24  O   UNL     1       0.122  12.358  20.040  0.00  0.00    +0.000 OA
ATOM     25  C   UNL     1      -0.709  13.314  20.734  0.00  0.00    +0.000 C 
ATOM     26  O   UNL     1      -1.131  12.863  22.037  0.00  0.00    +0.000 OA
ENDBRANCH  17  18
ENDBRANCH   2  16
TORSDOF 3
ENDMDL
MODEL 7
REMARK VINA RESULT:      -7.9      0.517      1.073
REMARK  Name = 
REMARK  3 active torsions:
REMARK  status: ('A' for Active; 'I' for Inactive)
REMARK    1  A    between atoms: C_2  and  C_3
REMARK    2  A    between atoms: C_4  and  C_5
REMARK    3  A    between atoms: N_17  and  C_18
REMARK                            x       y       z     vdW  Elec       q    Type
REMARK                         _______ _______ _______ _____ _____    ______ ____
ROOT
ATOM      1  O   UNL     1       2.569  10.192  17.450  0.00  0.00    +0.000 OA
ATOM      2  C   UNL     1       1.809   9.596  18.211  0.00  0.00    +0.000 C 
ATOM      3  N   UNL     1       0.945  10.240  19.071  0.00  0.00    +0.000 N 
ATOM      4  C   UNL     1       0.035   9.595  20.033  0.00  0.00    +0.000 C 
ATOM      5  C   UNL     1       0.239  10.140  21.458  0.00  0.00    +0.000 C 
ATOM      6  N   UNL     1       0.204  11.610  21.471  0.00  0.00    +0.000 N 
ATOM      7  C   UNL     1       1.112  12.275  20.523  0.00  0.00    +0.000 C 
ATOM      8  C   UNL     1       0.919  11.711  19.101  0.00  0.00    +0.000 C 
ENDROOT
BRANCH   6   9
ATOM      9  C   UNL     1      -0.738  12.308  22.196  0.00  0.00    +0.000 A 
ATOM     10  C   UNL     1      -1.828  11.666  22.803  0.00  0.00    +0.000 A 
ATOM     11  C   UNL     1      -2.786  12.380  23.533  0.00  0.00    +0.000 A 
ATOM     12  C   UNL     1      -2.664  13.757  23.669  0.00  0.00    +0.000 A 
ATOM     13 CL   UNL     1      -3.829  14.640  24.574  0.00  0.00    +0.000 Cl
ATOM     14  C   UNL     1      -1.601  14.424  23.074  0.00  0.00    +0.000 A 
ATOM     15  C   UNL     1      -0.654  13.700  22.347  0.00  0.00    +0.000 A 
ENDBRANCH   6   9
BRANCH   2  16
ATOM     16  C   UNL     1       1.775   8.109  18.194  0.00  0.00    +0.000 C 
ATOM     17  C   UNL     1       2.749   7.377  18.739  0.00  0.00    +0.000 C 
BRANCH  17  18
ATOM     18  C   UNL     1       2.816   5.905  18.636  0.00  0.00    +0.000 A 
ATOM     19  C   UNL     1       1.844   5.176  17.909  0.00  0.00    +0.000 A 
ATOM     20  C   UNL     1       1.895   3.780  17.824  0.00  0.00    +0.000 A 
ATOM     21  C   UNL     1       2.927   3.137  18.467  0.00  0.00    +0.000 A 
ATOM     22  C   UNL     1       3.901   3.835  19.142  0.00  0.00    +0.000 A 
ATOM     23  C   UNL     1       3.883   5.214  19.227  0.00  0.00    +0.000 A 
ATOM     24  O   UNL     1       4.829   3.011  19.703  0.00  0.00    +0.000 OA
ATOM     25  C   UNL     1       4.273   1.718  19.381  0.00  0.00    +0.000 C 
ATOM     26  O   UNL     1       3.117   1.792  18.522  0.00  0.00    +0.000 OA
ENDBRANCH  17  18
ENDBRANCH   2  16
TORSDOF 3
ENDMDL
MODEL 8
REMARK VINA RESULT:      -7.9      1.486      1.866
REMARK  Name = 
REMARK  3 active torsions:
REMARK  status: ('A' for Active; 'I' for Inactive)
REMARK    1  A    between atoms: C_2  and  C_3
REMARK    2  A    between atoms: C_4  and  C_5
REMARK    3  A    between atoms: N_17  and  C_18
REMARK                            x       y       z     vdW  Elec       q    Type
REMARK                         _______ _______ _______ _____ _____    ______ ____
ROOT
ATOM      1  O   UNL     1       1.853  10.103  17.438  0.00  0.00    +0.000 OA
ATOM      2  C   UNL     1       1.456   9.560  18.468  0.00  0.00    +0.000 C 
ATOM      3  N   UNL     1       0.394  10.033  19.209  0.00  0.00    +0.000 N 
ATOM      4  C   UNL     1      -0.111   9.457  20.467  0.00  0.00    +0.000 C 
ATOM      5  C   UNL     1      -0.178  10.513  21.586  0.00  0.00    +0.000 C 
ATOM      6  N   UNL     1      -0.890  11.718  21.132  0.00  0.00    +0.000 N 
ATOM      7  C   UNL     1      -0.395  12.314  19.880  0.00  0.00    +0.000 C 
ATOM      8  C   UNL     1      -0.309  11.248  18.770  0.00  0.00    +0.000 C 
ENDROOT
BRANCH   6   9
ATOM      9  C   UNL     1      -2.046  12.153  21.743  0.00  0.00    +0.000 A 
ATOM     10  C   UNL     1      -2.266  11.975  23.117  0.00  0.00    +0.000 A 
ATOM     11  C   UNL     1      -3.445  12.413  23.734  0.00  0.00    +0.000 A 
ATOM     12  C   UNL     1      -4.426  13.042  22.977  0.00  0.00    +0.000 A 
ATOM     13 CL   UNL     1      -5.871  13.594  23.729  0.00  0.00    +0.000 Cl
ATOM     14  C   UNL     1      -4.242  13.227  21.614  0.00  0.00    +0.000 A 
ATOM     15  C   UNL     1      -3.063  12.784  21.011  0.00  0.00    +0.000 A 
ENDBRANCH   6   9
BRANCH   2  16
ATOM     16  C   UNL     1       2.115   8.311  18.935  0.00  0.00    +0.000 C 
ATOM     17  C   UNL     1       2.893   7.583  18.132  0.00  0.00    +0.000 C 
BRANCH  17  18
ATOM     18  C   UNL     1       3.464   6.276  18.516  0.00  0.00    +0.000 A 
ATOM     19  C   UNL     1       4.652   5.791  17.919  0.00  0.00    +0.000 A 
ATOM     20  C   UNL     1       5.187   4.546  18.268  0.00  0.00    +0.000 A 
ATOM     21  C   UNL     1       4.521   3.808  19.219  0.00  0.00    +0.000 A 
ATOM     22  C   UNL     1       3.388   4.284  19.837  0.00  0.00    +0.000 A 
ATOM     23  C   UNL     1       2.849   5.518  19.523  0.00  0.00    +0.000 A 
ATOM     24  O   UNL     1       2.888   3.402  20.746  0.00  0.00    +0.000 OA
ATOM     25  C   UNL     1       3.782   2.283  20.557  0.00  0.00    +0.000 C 
ATOM     26  O   UNL     1       4.871   2.569  19.656  0.00  0.00    +0.000 OA
ENDBRANCH  17  18
ENDBRANCH   2  16
TORSDOF 3
ENDMDL
MODEL 9
REMARK VINA RESULT:      -7.8      1.548      2.038
REMARK  Name = 
REMARK  3 active torsions:
REMARK  status: ('A' for Active; 'I' for Inactive)
REMARK    1  A    between atoms: C_2  and  C_3
REMARK    2  A    between atoms: C_4  and  C_5
REMARK    3  A    between atoms: N_17  and  C_18
REMARK                            x       y       z     vdW  Elec       q    Type
REMARK                         _______ _______ _______ _____ _____    ______ ____
ROOT
ATOM      1  O   UNL     1       2.304  10.958  17.767  0.00  0.00    +0.000 OA
ATOM      2  C   UNL     1       1.603  10.208  18.445  0.00  0.00    +0.000 C 
ATOM      3  N   UNL     1       0.498  10.639  19.147  0.00  0.00    +0.000 N 
ATOM      4  C   UNL     1      -0.365   9.808  20.005  0.00  0.00    +0.000 C 
ATOM      5  C   UNL     1      -0.501  10.405  21.417  0.00  0.00    +0.000 C 
ATOM      6  N   UNL     1      -0.881  11.824  21.356  0.00  0.00    +0.000 N 
ATOM      7  C   UNL     1      -0.027  12.674  20.510  0.00  0.00    +0.000 C 
ATOM      8  C   UNL     1       0.124  12.061  19.104  0.00  0.00    +0.000 C 
ENDROOT
BRANCH   6   9
ATOM      9  C   UNL     1      -2.054  12.287  21.912  0.00  0.00    +0.000 A 
ATOM     10  C   UNL     1      -2.932  13.116  21.197  0.00  0.00    +0.000 A 
ATOM     11  C   UNL     1      -4.120  13.590  21.768  0.00  0.00    +0.000 A 
ATOM     12  C   UNL     1      -4.449  13.235  23.071  0.00  0.00    +0.000 A 
ATOM     13 CL   UNL     1      -5.912  13.802  23.775  0.00  0.00    +0.000 Cl
ATOM     14  C   UNL     1      -3.598  12.423  23.807  0.00  0.00    +0.000 A 
ATOM     15  C   UNL     1      -2.415  11.959  23.227  0.00  0.00    +0.000 A 
ENDBRANCH   6   9
BRANCH   2  16
ATOM     16  C   UNL     1       1.922   8.756  18.493  0.00  0.00    +0.000 C 
ATOM     17  C   UNL     1       2.911   8.228  17.770  0.00  0.00    +0.000 C 
BRANCH  17  18
ATOM     18  C   UNL     1       3.181   6.778  17.695  0.00  0.00    +0.000 A 
ATOM     19  C   UNL     1       4.436   6.287  17.262  0.00  0.00    +0.000 A 
ATOM     20  C   UNL     1       4.689   4.913  17.174  0.00  0.00    +0.000 A 
ATOM     21  C   UNL     1       3.677   4.052  17.528  0.00  0.00    +0.000 A 
ATOM     22  C   UNL     1       2.466   4.515  17.989  0.00  0.00    +0.000 A 
ATOM     23  C   UNL     1       2.197   5.865  18.102  0.00  0.00    +0.000 A 
ATOM     24  O   UNL     1       1.608   3.500  18.286  0.00  0.00    +0.000 OA
ATOM     25  C   UNL     1       2.385   2.356  17.870  0.00  0.00    +0.000 C 
ATOM     26  O   UNL     1       3.730   2.695  17.473  0.00  0.00    +0.000 OA
ENDBRANCH  17  18
ENDBRANCH   2  16
TORSDOF 3
ENDMDL
