MODEL 1
REMARK VINA RESULT:      -8.5      0.000      0.000
REMARK  Name = 
REMARK  4 active torsions:
REMARK  status: ('A' for Active; 'I' for Inactive)
REMARK    1  A    between atoms: C_1  and  C_2
REMARK    2  A    between atoms: C_7  and  N_8
REMARK    3  A    between atoms: N_11  and  S_12
REMARK    4  A    between atoms: S_12  and  C_15
REMARK                            x       y       z     vdW  Elec       q    Type
REMARK                         _______ _______ _______ _____ _____    ______ ____
ROOT
ATOM      1  N   UNL     1       1.985   7.012  19.845  0.00  0.00    +0.000 N 
ATOM      2  C   UNL     1       2.197   5.785  20.650  0.00  0.00    +0.000 C 
ATOM      3  C   UNL     1       2.219   4.523  19.766  0.00  0.00    +0.000 C 
ATOM      4  N   UNL     1       3.193   4.625  18.633  0.00  0.00    +0.000 NA
ATOM      5  C   UNL     1       2.907   5.861  17.832  0.00  0.00    +0.000 C 
ATOM      6  C   UNL     1       2.934   7.129  18.703  0.00  0.00    +0.000 C 
ENDROOT
BRANCH   1  13
ATOM      7  C   UNL     1      -0.732  12.819  21.218  0.00  0.00    +0.000 C 
ATOM      8  C   UNL     1      -0.310  11.560  21.864  0.00  0.00    +0.000 A 
ATOM      9  N   UNL     1      -0.428  11.228  23.136  0.00  0.00    +0.000 NA
ATOM     10  N   UNL     1       0.058   9.948  23.288  0.00  0.00    +0.000 NA
ATOM     11  C   UNL     1       0.460   9.529  22.107  0.00  0.00    +0.000 A 
ATOM     12  C   UNL     1       1.025   8.316  21.667  0.00  0.00    +0.000 A 
ATOM     13  C   UNL     1       1.385   8.155  20.381  0.00  0.00    +0.000 A 
ATOM     14  C   UNL     1       1.100   9.349  19.499  0.00  0.00    +0.000 A 
ATOM     15  N   UNL     1       0.573  10.483  19.846  0.00  0.00    +0.000 NA
ATOM     16  N   UNL     1       0.268  10.524  21.174  0.00  0.00    +0.000 N 
ENDBRANCH   1  13
BRANCH   4  17
ATOM     17  S   UNL     1       4.840   4.392  19.005  0.00  0.00    +0.000 S 
ATOM     18  O   UNL     1       5.281   5.510  19.806  0.00  0.00    +0.000 OA
ATOM     19  O   UNL     1       5.008   3.031  19.467  0.00  0.00    +0.000 OA
BRANCH  17  20
ATOM     20  C   UNL     1       5.642   4.541  17.425  0.00  0.00    +0.000 A 
ATOM     21  C   UNL     1       5.238   3.703  16.379  0.00  0.00    +0.000 A 
ATOM     22  C   UNL     1       5.822   3.849  15.119  0.00  0.00    +0.000 A 
ATOM     23  C   UNL     1       6.794   4.828  14.912  0.00  0.00    +0.000 A 
ATOM     24 CL   UNL     1       7.497   5.018  13.353  0.00  0.00    +0.000 Cl
ATOM     25  C   UNL     1       7.197   5.661  15.958  0.00  0.00    +0.000 A 
ATOM     26  C   UNL     1       6.620   5.519  17.223  0.00  0.00    +0.000 A 
ENDBRANCH  17  20
ENDBRANCH   4  17
TORSDOF 3
ENDMDL
MODEL 2
REMARK VINA RESULT:      -7.7      0.726      1.460
REMARK  Name = 
REMARK  4 active torsions:
REMARK  status: ('A' for Active; 'I' for Inactive)
REMARK    1  A    between atoms: C_1  and  C_2
REMARK    2  A    between atoms: C_7  and  N_8
REMARK    3  A    between atoms: N_11  and  S_12
REMARK    4  A    between atoms: S_12  and  C_15
REMARK                            x       y       z     vdW  Elec       q    Type
REMARK                         _______ _______ _______ _____ _____    ______ ____
ROOT
ATOM      1  N   UNL     1       2.062   6.998  19.603  0.00  0.00    +0.000 N 
ATOM      2  C   UNL     1       2.304   5.859  20.521  0.00  0.00    +0.000 C 
ATOM      3  C   UNL     1       2.330   4.516  19.765  0.00  0.00    +0.000 C 
ATOM      4  N   UNL     1       3.282   4.518  18.610  0.00  0.00    +0.000 NA
ATOM      5  C   UNL     1       2.965   5.666  17.697  0.00  0.00    +0.000 C 
ATOM      6  C   UNL     1       2.989   7.014  18.438  0.00  0.00    +0.000 C 
ENDROOT
BRANCH   1  13
ATOM      7  C   UNL     1      -0.912  11.951  22.702  0.00  0.00    +0.000 C 
ATOM      8  C   UNL     1      -0.386  11.569  21.378  0.00  0.00    +0.000 A 
ATOM      9  N   UNL     1      -0.364  12.298  20.277  0.00  0.00    +0.000 NA
ATOM     10  N   UNL     1       0.255  11.561  19.290  0.00  0.00    +0.000 NA
ATOM     11  C   UNL     1       0.596  10.402  19.811  0.00  0.00    +0.000 A 
ATOM     12  C   UNL     1       1.255   9.276  19.280  0.00  0.00    +0.000 A 
ATOM     13  C   UNL     1       1.454   8.180  20.035  0.00  0.00    +0.000 A 
ATOM     14  C   UNL     1       0.947   8.300  21.454  0.00  0.00    +0.000 A 
ATOM     15  N   UNL     1       0.346   9.313  21.999  0.00  0.00    +0.000 NA
ATOM     16  N   UNL     1       0.192  10.349  21.127  0.00  0.00    +0.000 N 
ENDBRANCH   1  13
BRANCH   4  17
ATOM     17  S   UNL     1       4.938   4.344  18.972  0.00  0.00    +0.000 S 
ATOM     18  O   UNL     1       5.347   5.482  19.763  0.00  0.00    +0.000 OA
ATOM     19  O   UNL     1       5.155   2.993  19.444  0.00  0.00    +0.000 OA
BRANCH  17  20
ATOM     20  C   UNL     1       5.726   4.507  17.386  0.00  0.00    +0.000 A 
ATOM     21  C   UNL     1       5.317   3.672  16.340  0.00  0.00    +0.000 A 
ATOM     22  C   UNL     1       5.889   3.829  15.075  0.00  0.00    +0.000 A 
ATOM     23  C   UNL     1       6.853   4.816  14.865  0.00  0.00    +0.000 A 
ATOM     24 CL   UNL     1       7.540   5.019  13.301  0.00  0.00    +0.000 Cl
ATOM     25  C   UNL     1       7.259   5.646  15.912  0.00  0.00    +0.000 A 
ATOM     26  C   UNL     1       6.694   5.493  17.181  0.00  0.00    +0.000 A 
ENDBRANCH  17  20
ENDBRANCH   4  17
TORSDOF 3
ENDMDL
MODEL 3
REMARK VINA RESULT:      -7.3      4.880      9.590
REMARK  Name = 
REMARK  4 active torsions:
REMARK  status: ('A' for Active; 'I' for Inactive)
REMARK    1  A    between atoms: C_1  and  C_2
REMARK    2  A    between atoms: C_7  and  N_8
REMARK    3  A    between atoms: N_11  and  S_12
REMARK    4  A    between atoms: S_12  and  C_15
REMARK                            x       y       z     vdW  Elec       q    Type
REMARK                         _______ _______ _______ _____ _____    ______ ____
ROOT
ATOM      1  N   UNL     1       1.519   8.193  19.718  0.00  0.00    +0.000 N 
ATOM      2  C   UNL     1       1.213   9.556  19.223  0.00  0.00    +0.000 C 
ATOM      3  C   UNL     1      -0.250   9.949  19.509  0.00  0.00    +0.000 C 
ATOM      4  N   UNL     1      -0.626   9.778  20.947  0.00  0.00    +0.000 NA
ATOM      5  C   UNL     1      -0.332   8.372  21.382  0.00  0.00    +0.000 C 
ATOM      6  C   UNL     1       1.141   7.994  21.145  0.00  0.00    +0.000 C 
ENDROOT
BRANCH   1  13
ATOM      7  C   UNL     1       6.157   5.312  16.088  0.00  0.00    +0.000 C 
ATOM      8  C   UNL     1       5.375   5.121  17.325  0.00  0.00    +0.000 A 
ATOM      9  N   UNL     1       5.462   4.126  18.189  0.00  0.00    +0.000 NA
ATOM     10  N   UNL     1       4.577   4.374  19.215  0.00  0.00    +0.000 NA
ATOM     11  C   UNL     1       3.973   5.514  18.956  0.00  0.00    +0.000 A 
ATOM     12  C   UNL     1       2.996   6.254  19.650  0.00  0.00    +0.000 A 
ATOM     13  C   UNL     1       2.512   7.399  19.136  0.00  0.00    +0.000 A 
ATOM     14  C   UNL     1       3.127   7.799  17.814  0.00  0.00    +0.000 A 
ATOM     15  N   UNL     1       4.035   7.165  17.138  0.00  0.00    +0.000 NA
ATOM     16  N   UNL     1       4.429   6.017  17.757  0.00  0.00    +0.000 N 
ENDBRANCH   1  13
BRANCH   4  17
ATOM     17  S   UNL     1      -0.093  10.977  22.035  0.00  0.00    +0.000 S 
ATOM     18  O   UNL     1       0.139  10.350  23.315  0.00  0.00    +0.000 OA
ATOM     19  O   UNL     1       0.945  11.746  21.383  0.00  0.00    +0.000 OA
BRANCH  17  20
ATOM     20  C   UNL     1      -1.518  12.024  22.223  0.00  0.00    +0.000 A 
ATOM     21  C   UNL     1      -2.354  11.837  23.329  0.00  0.00    +0.000 A 
ATOM     22  C   UNL     1      -3.444  12.690  23.517  0.00  0.00    +0.000 A 
ATOM     23  C   UNL     1      -3.685  13.721  22.608  0.00  0.00    +0.000 A 
ATOM     24 CL   UNL     1      -5.017  14.782  22.853  0.00  0.00    +0.000 Cl
ATOM     25  C   UNL     1      -2.850  13.904  21.504  0.00  0.00    +0.000 A 
ATOM     26  C   UNL     1      -1.759  13.053  21.307  0.00  0.00    +0.000 A 
ENDBRANCH  17  20
ENDBRANCH   4  17
TORSDOF 3
ENDMDL
MODEL 4
REMARK VINA RESULT:      -7.3      4.888      9.552
REMARK  Name = 
REMARK  4 active torsions:
REMARK  status: ('A' for Active; 'I' for Inactive)
REMARK    1  A    between atoms: C_1  and  C_2
REMARK    2  A    between atoms: C_7  and  N_8
REMARK    3  A    between atoms: N_11  and  S_12
REMARK    4  A    between atoms: S_12  and  C_15
REMARK                            x       y       z     vdW  Elec       q    Type
REMARK                         _______ _______ _______ _____ _____    ______ ____
ROOT
ATOM      1  N   UNL     1       1.677   8.318  19.204  0.00  0.00    +0.000 N 
ATOM      2  C   UNL     1       1.428   9.525  18.381  0.00  0.00    +0.000 C 
ATOM      3  C   UNL     1      -0.039   9.990  18.484  0.00  0.00    +0.000 C 
ATOM      4  N   UNL     1      -0.490  10.173  19.900  0.00  0.00    +0.000 NA
ATOM      5  C   UNL     1      -0.250   8.910  20.673  0.00  0.00    +0.000 C 
ATOM      6  C   UNL     1       1.223   8.471  20.614  0.00  0.00    +0.000 C 
ENDROOT
BRANCH   1  13
ATOM      7  C   UNL     1       6.587   4.741  16.737  0.00  0.00    +0.000 C 
ATOM      8  C   UNL     1       5.594   4.740  17.828  0.00  0.00    +0.000 A 
ATOM      9  N   UNL     1       5.444   3.839  18.782  0.00  0.00    +0.000 NA
ATOM     10  N   UNL     1       4.424   4.258  19.608  0.00  0.00    +0.000 NA
ATOM     11  C   UNL     1       3.976   5.404  19.141  0.00  0.00    +0.000 A 
ATOM     12  C   UNL     1       2.966   6.282  19.579  0.00  0.00    +0.000 A 
ATOM     13  C   UNL     1       2.680   7.398  18.884  0.00  0.00    +0.000 A 
ATOM     14  C   UNL     1       3.542   7.609  17.660  0.00  0.00    +0.000 A 
ATOM     15  N   UNL     1       4.492   6.843  17.217  0.00  0.00    +0.000 NA
ATOM     16  N   UNL     1       4.671   5.742  18.000  0.00  0.00    +0.000 N 
ENDBRANCH   1  13
BRANCH   4  17
ATOM     17  S   UNL     1       0.014  11.593  20.696  0.00  0.00    +0.000 S 
ATOM     18  O   UNL     1       0.954  11.218  21.728  0.00  0.00    +0.000 OA
ATOM     19  O   UNL     1       0.364  12.572  19.690  0.00  0.00    +0.000 OA
BRANCH  17  20
ATOM     20  C   UNL     1      -1.461  12.150  21.518  0.00  0.00    +0.000 A 
ATOM     21  C   UNL     1      -2.446  12.804  20.769  0.00  0.00    +0.000 A 
ATOM     22  C   UNL     1      -3.633  13.197  21.392  0.00  0.00    +0.000 A 
ATOM     23  C   UNL     1      -3.829  12.927  22.747  0.00  0.00    +0.000 A 
ATOM     24 CL   UNL     1      -5.300  13.395  23.506  0.00  0.00    +0.000 Cl
ATOM     25  C   UNL     1      -2.844  12.275  23.492  0.00  0.00    +0.000 A 
ATOM     26  C   UNL     1      -1.652  11.883  22.876  0.00  0.00    +0.000 A 
ENDBRANCH  17  20
ENDBRANCH   4  17
TORSDOF 3
ENDMDL
MODEL 5
REMARK VINA RESULT:      -7.2      1.298      1.724
REMARK  Name = 
REMARK  4 active torsions:
REMARK  status: ('A' for Active; 'I' for Inactive)
REMARK    1  A    between atoms: C_1  and  C_2
REMARK    2  A    between atoms: C_7  and  N_8
REMARK    3  A    between atoms: N_11  and  S_12
REMARK    4  A    between atoms: S_12  and  C_15
REMARK                            x       y       z     vdW  Elec       q    Type
REMARK                         _______ _______ _______ _____ _____    ______ ____
ROOT
ATOM      1  N   UNL     1       2.177   6.948  20.218  0.00  0.00    +0.000 N 
ATOM      2  C   UNL     1       3.224   7.015  19.170  0.00  0.00    +0.000 C 
ATOM      3  C   UNL     1       4.264   5.889  19.334  0.00  0.00    +0.000 C 
ATOM      4  N   UNL     1       3.640   4.531  19.417  0.00  0.00    +0.000 NA
ATOM      5  C   UNL     1       2.619   4.511  20.517  0.00  0.00    +0.000 C 
ATOM      6  C   UNL     1       1.551   5.602  20.328  0.00  0.00    +0.000 C 
ENDROOT
BRANCH   1  13
ATOM      7  C   UNL     1      -1.008  12.620  21.039  0.00  0.00    +0.000 C 
ATOM      8  C   UNL     1      -0.488  11.468  21.800  0.00  0.00    +0.000 A 
ATOM      9  N   UNL     1      -0.583  11.250  23.099  0.00  0.00    +0.000 NA
ATOM     10  N   UNL     1       0.005  10.034  23.371  0.00  0.00    +0.000 NA
ATOM     11  C   UNL     1       0.444   9.538  22.234  0.00  0.00    +0.000 A 
ATOM     12  C   UNL     1       1.108   8.338  21.911  0.00  0.00    +0.000 A 
ATOM     13  C   UNL     1       1.484   8.085  20.644  0.00  0.00    +0.000 A 
ATOM     14  C   UNL     1       1.107   9.162  19.653  0.00  0.00    +0.000 A 
ATOM     15  N   UNL     1       0.487  10.277  19.892  0.00  0.00    +0.000 NA
ATOM     16  N   UNL     1       0.175  10.420  21.210  0.00  0.00    +0.000 N 
ENDBRANCH   1  13
BRANCH   4  17
ATOM     17  S   UNL     1       3.113   3.830  17.955  0.00  0.00    +0.000 S 
ATOM     18  O   UNL     1       3.157   2.394  18.105  0.00  0.00    +0.000 OA
ATOM     19  O   UNL     1       1.897   4.500  17.548  0.00  0.00    +0.000 OA
BRANCH  17  20
ATOM     20  C   UNL     1       4.395   4.269  16.804  0.00  0.00    +0.000 A 
ATOM     21  C   UNL     1       5.263   3.271  16.345  0.00  0.00    +0.000 A 
ATOM     22  C   UNL     1       6.237   3.593  15.397  0.00  0.00    +0.000 A 
ATOM     23  C   UNL     1       6.333   4.898  14.914  0.00  0.00    +0.000 A 
ATOM     24 CL   UNL     1       7.522   5.286  13.732  0.00  0.00    +0.000 Cl
ATOM     25  C   UNL     1       5.467   5.892  15.375  0.00  0.00    +0.000 A 
ATOM     26  C   UNL     1       4.491   5.579  16.325  0.00  0.00    +0.000 A 
ENDBRANCH  17  20
ENDBRANCH   4  17
TORSDOF 3
ENDMDL
MODEL 6
REMARK VINA RESULT:      -7.2      4.859      9.606
REMARK  Name = 
REMARK  4 active torsions:
REMARK  status: ('A' for Active; 'I' for Inactive)
REMARK    1  A    between atoms: C_1  and  C_2
REMARK    2  A    between atoms: C_7  and  N_8
REMARK    3  A    between atoms: N_11  and  S_12
REMARK    4  A    between atoms: S_12  and  C_15
REMARK                            x       y       z     vdW  Elec       q    Type
REMARK                         _______ _______ _______ _____ _____    ______ ____
ROOT
ATOM      1  N   UNL     1       1.662   8.213  19.491  0.00  0.00    +0.000 N 
ATOM      2  C   UNL     1       1.250   9.572  19.063  0.00  0.00    +0.000 C 
ATOM      3  C   UNL     1      -0.218   9.863  19.434  0.00  0.00    +0.000 C 
ATOM      4  N   UNL     1      -0.510   9.617  20.882  0.00  0.00    +0.000 NA
ATOM      5  C   UNL     1      -0.110   8.217  21.247  0.00  0.00    +0.000 C 
ATOM      6  C   UNL     1       1.369   7.940  20.925  0.00  0.00    +0.000 C 
ENDROOT
BRANCH   1  13
ATOM      7  C   UNL     1       6.366   4.158  17.388  0.00  0.00    +0.000 C 
ATOM      8  C   UNL     1       5.660   5.399  17.015  0.00  0.00    +0.000 A 
ATOM      9  N   UNL     1       5.829   6.127  15.926  0.00  0.00    +0.000 NA
ATOM     10  N   UNL     1       4.934   7.173  15.969  0.00  0.00    +0.000 NA
ATOM     11  C   UNL     1       4.239   7.059  17.081  0.00  0.00    +0.000 A 
ATOM     12  C   UNL     1       3.196   7.827  17.636  0.00  0.00    +0.000 A 
ATOM     13  C   UNL     1       2.671   7.504  18.831  0.00  0.00    +0.000 A 
ATOM     14  C   UNL     1       3.272   6.271  19.465  0.00  0.00    +0.000 A 
ATOM     15  N   UNL     1       4.222   5.521  18.996  0.00  0.00    +0.000 NA
ATOM     16  N   UNL     1       4.677   5.962  17.790  0.00  0.00    +0.000 N 
ENDBRANCH   1  13
BRANCH   4  17
ATOM     17  S   UNL     1       0.003  10.807  21.988  0.00  0.00    +0.000 S 
ATOM     18  O   UNL     1       0.238  10.165  23.260  0.00  0.00    +0.000 OA
ATOM     19  O   UNL     1       1.035  11.598  21.351  0.00  0.00    +0.000 OA
BRANCH  17  20
ATOM     20  C   UNL     1      -1.435  11.834  22.184  0.00  0.00    +0.000 A 
ATOM     21  C   UNL     1      -1.793  12.702  21.146  0.00  0.00    +0.000 A 
ATOM     22  C   UNL     1      -2.952  13.472  21.266  0.00  0.00    +0.000 A 
ATOM     23  C   UNL     1      -3.743  13.365  22.411  0.00  0.00    +0.000 A 
ATOM     24 CL   UNL     1      -5.181  14.300  22.546  0.00  0.00    +0.000 Cl
ATOM     25  C   UNL     1      -3.382  12.499  23.445  0.00  0.00    +0.000 A 
ATOM     26  C   UNL     1      -2.222  11.728  23.334  0.00  0.00    +0.000 A 
ENDBRANCH  17  20
ENDBRANCH   4  17
TORSDOF 3
ENDMDL
MODEL 7
REMARK VINA RESULT:      -7.1      4.725      9.528
REMARK  Name = 
REMARK  4 active torsions:
REMARK  status: ('A' for Active; 'I' for Inactive)
REMARK    1  A    between atoms: C_1  and  C_2
REMARK    2  A    between atoms: C_7  and  N_8
REMARK    3  A    between atoms: N_11  and  S_12
REMARK    4  A    between atoms: S_12  and  C_15
REMARK                            x       y       z     vdW  Elec       q    Type
REMARK                         _______ _______ _______ _____ _____    ______ ____
ROOT
ATOM      1  N   UNL     1       1.558   8.015  19.411  0.00  0.00    +0.000 N 
ATOM      2  C   UNL     1       1.319   9.417  18.992  0.00  0.00    +0.000 C 
ATOM      3  C   UNL     1      -0.081   9.905  19.417  0.00  0.00    +0.000 C 
ATOM      4  N   UNL     1      -0.347   9.702  20.876  0.00  0.00    +0.000 NA
ATOM      5  C   UNL     1      -0.127   8.261  21.234  0.00  0.00    +0.000 C 
ATOM      6  C   UNL     1       1.287   7.786  20.858  0.00  0.00    +0.000 C 
ENDROOT
BRANCH   1  13
ATOM      7  C   UNL     1       6.045   5.112  15.612  0.00  0.00    +0.000 C 
ATOM      8  C   UNL     1       4.993   4.801  16.599  0.00  0.00    +0.000 A 
ATOM      9  N   UNL     1       4.652   3.615  17.068  0.00  0.00    +0.000 NA
ATOM     10  N   UNL     1       3.653   3.795  17.999  0.00  0.00    +0.000 NA
ATOM     11  C   UNL     1       3.408   5.086  18.078  0.00  0.00    +0.000 A 
ATOM     12  C   UNL     1       2.510   5.839  18.859  0.00  0.00    +0.000 A 
ATOM     13  C   UNL     1       2.435   7.175  18.718  0.00  0.00    +0.000 A 
ATOM     14  C   UNL     1       3.397   7.751  17.704  0.00  0.00    +0.000 A 
ATOM     15  N   UNL     1       4.251   7.108  16.968  0.00  0.00    +0.000 NA
ATOM     16  N   UNL     1       4.217   5.765  17.194  0.00  0.00    +0.000 N 
ENDBRANCH   1  13
BRANCH   4  17
ATOM     17  S   UNL     1       0.366  10.812  21.955  0.00  0.00    +0.000 S 
ATOM     18  O   UNL     1       0.701  10.105  23.169  0.00  0.00    +0.000 OA
ATOM     19  O   UNL     1       1.367  11.564  21.229  0.00  0.00    +0.000 OA
BRANCH  17  20
ATOM     20  C   UNL     1      -0.971  11.916  22.351  0.00  0.00    +0.000 A 
ATOM     21  C   UNL     1      -1.003  13.181  21.754  0.00  0.00    +0.000 A 
ATOM     22  C   UNL     1      -2.077  14.036  22.014  0.00  0.00    +0.000 A 
ATOM     23  C   UNL     1      -3.108  13.619  22.858  0.00  0.00    +0.000 A 
ATOM     24 CL   UNL     1      -4.439  14.666  23.161  0.00  0.00    +0.000 Cl
ATOM     25  C   UNL     1      -3.072  12.357  23.454  0.00  0.00    +0.000 A 
ATOM     26  C   UNL     1      -1.999  11.498  23.201  0.00  0.00    +0.000 A 
ENDBRANCH  17  20
ENDBRANCH   4  17
TORSDOF 3
ENDMDL
MODEL 8
REMARK VINA RESULT:      -7.1      4.920      9.597
REMARK  Name = 
REMARK  4 active torsions:
REMARK  status: ('A' for Active; 'I' for Inactive)
REMARK    1  A    between atoms: C_1  and  C_2
REMARK    2  A    between atoms: C_7  and  N_8
REMARK    3  A    between atoms: N_11  and  S_12
REMARK    4  A    between atoms: S_12  and  C_15
REMARK                            x       y       z     vdW  Elec       q    Type
REMARK                         _______ _______ _______ _____ _____    ______ ____
ROOT
ATOM      1  N   UNL     1       1.638   8.427  19.173  0.00  0.00    +0.000 N 
ATOM      2  C   UNL     1       1.388   9.563  18.255  0.00  0.00    +0.000 C 
ATOM      3  C   UNL     1      -0.050  10.101  18.396  0.00  0.00    +0.000 C 
ATOM      4  N   UNL     1      -0.408  10.434  19.811  0.00  0.00    +0.000 NA
ATOM      5  C   UNL     1      -0.172   9.237  20.686  0.00  0.00    +0.000 C 
ATOM      6  C   UNL     1       1.276   8.729  20.585  0.00  0.00    +0.000 C 
ENDROOT
BRANCH   1  13
ATOM      7  C   UNL     1       6.328   4.482  16.841  0.00  0.00    +0.000 C 
ATOM      8  C   UNL     1       5.329   4.573  17.924  0.00  0.00    +0.000 A 
ATOM      9  N   UNL     1       5.117   3.710  18.900  0.00  0.00    +0.000 NA
ATOM     10  N   UNL     1       4.121   4.215  19.706  0.00  0.00    +0.000 NA
ATOM     11  C   UNL     1       3.749   5.373  19.205  0.00  0.00    +0.000 A 
ATOM     12  C   UNL     1       2.793   6.325  19.612  0.00  0.00    +0.000 A 
ATOM     13  C   UNL     1       2.583   7.437  18.885  0.00  0.00    +0.000 A 
ATOM     14  C   UNL     1       3.464   7.560  17.663  0.00  0.00    +0.000 A 
ATOM     15  N   UNL     1       4.366   6.724  17.248  0.00  0.00    +0.000 NA
ATOM     16  N   UNL     1       4.471   5.636  18.061  0.00  0.00    +0.000 N 
ENDBRANCH   1  13
BRANCH   4  17
ATOM     17  S   UNL     1       0.199  11.896  20.440  0.00  0.00    +0.000 S 
ATOM     18  O   UNL     1       1.236  11.578  21.393  0.00  0.00    +0.000 OA
ATOM     19  O   UNL     1       0.455  12.790  19.331  0.00  0.00    +0.000 OA
BRANCH  17  20
ATOM     20  C   UNL     1      -1.173  12.547  21.365  0.00  0.00    +0.000 A 
ATOM     21  C   UNL     1      -0.975  12.910  22.703  0.00  0.00    +0.000 A 
ATOM     22  C   UNL     1      -2.030  13.475  23.423  0.00  0.00    +0.000 A 
ATOM     23  C   UNL     1      -3.264  13.678  22.804  0.00  0.00    +0.000 A 
ATOM     24 CL   UNL     1      -4.556  14.391  23.689  0.00  0.00    +0.000 Cl
ATOM     25  C   UNL     1      -3.459  13.313  21.470  0.00  0.00    +0.000 A 
ATOM     26  C   UNL     1      -2.409  12.744  20.744  0.00  0.00    +0.000 A 
ENDBRANCH  17  20
ENDBRANCH   4  17
TORSDOF 3
ENDMDL
MODEL 9
REMARK VINA RESULT:      -7.1      4.781      9.571
REMARK  Name = 
REMARK  4 active torsions:
REMARK  status: ('A' for Active; 'I' for Inactive)
REMARK    1  A    between atoms: C_1  and  C_2
REMARK    2  A    between atoms: C_7  and  N_8
REMARK    3  A    between atoms: N_11  and  S_12
REMARK    4  A    between atoms: S_12  and  C_15
REMARK                            x       y       z     vdW  Elec       q    Type
REMARK                         _______ _______ _______ _____ _____    ______ ____
ROOT
ATOM      1  N   UNL     1       1.604   8.146  19.285  0.00  0.00    +0.000 N 
ATOM      2  C   UNL     1       1.237   9.532  18.907  0.00  0.00    +0.000 C 
ATOM      3  C   UNL     1      -0.178   9.898  19.397  0.00  0.00    +0.000 C 
ATOM      4  N   UNL     1      -0.369   9.646  20.860  0.00  0.00    +0.000 NA
ATOM      5  C   UNL     1      -0.021   8.221  21.176  0.00  0.00    +0.000 C 
ATOM      6  C   UNL     1       1.409   7.867  20.734  0.00  0.00    +0.000 C 
ENDROOT
BRANCH   1  13
ATOM      7  C   UNL     1       5.333   3.644  16.316  0.00  0.00    +0.000 C 
ATOM      8  C   UNL     1       5.173   5.105  16.448  0.00  0.00    +0.000 A 
ATOM      9  N   UNL     1       5.878   6.050  15.855  0.00  0.00    +0.000 NA
ATOM     10  N   UNL     1       5.360   7.269  16.233  0.00  0.00    +0.000 NA
ATOM     11  C   UNL     1       4.351   7.040  17.047  0.00  0.00    +0.000 A 
ATOM     12  C   UNL     1       3.458   7.895  17.722  0.00  0.00    +0.000 A 
ATOM     13  C   UNL     1       2.515   7.392  18.539  0.00  0.00    +0.000 A 
ATOM     14  C   UNL     1       2.501   5.883  18.622  0.00  0.00    +0.000 A 
ATOM     15  N   UNL     1       3.289   5.048  18.015  0.00  0.00    +0.000 NA
ATOM     16  N   UNL     1       4.206   5.683  17.232  0.00  0.00    +0.000 N 
ENDBRANCH   1  13
BRANCH   4  17
ATOM     17  S   UNL     1       0.297  10.788  21.935  0.00  0.00    +0.000 S 
ATOM     18  O   UNL     1       0.561  10.122  23.190  0.00  0.00    +0.000 OA
ATOM     19  O   UNL     1       1.343  11.506  21.238  0.00  0.00    +0.000 OA
BRANCH  17  20
ATOM     20  C   UNL     1      -1.048  11.916  22.222  0.00  0.00    +0.000 A 
ATOM     21  C   UNL     1      -2.000  11.599  23.197  0.00  0.00    +0.000 A 
ATOM     22  C   UNL     1      -3.029  12.503  23.470  0.00  0.00    +0.000 A 
ATOM     23  C   UNL     1      -3.094  13.713  22.776  0.00  0.00    +0.000 A 
ATOM     24 CL   UNL     1      -4.352  14.833  23.129  0.00  0.00    +0.000 Cl
ATOM     25  C   UNL     1      -2.143  14.025  21.803  0.00  0.00    +0.000 A 
ATOM     26  C   UNL     1      -1.113  13.124  21.522  0.00  0.00    +0.000 A 
ENDBRANCH  17  20
ENDBRANCH   4  17
TORSDOF 3
ENDMDL
