MODEL 1
REMARK VINA RESULT:      -7.0      0.000      0.000
REMARK  Name = 
REMARK  9 active torsions:
REMARK  status: ('A' for Active; 'I' for Inactive)
REMARK    1  A    between atoms: C_1  and  O_2
REMARK    2  A    between atoms: O_2  and  C_3
REMARK    3  A    between atoms: C_6  and  C_7
REMARK    4  A    between atoms: C_8  and  C_9
REMARK    5  A    between atoms: C_9  and  C_11
REMARK    6  A    between atoms: C_14  and  C_15
REMARK    7  A    between atoms: C_17  and  O_18
REMARK    8  A    between atoms: N_21  and  C_22
REMARK    9  A    between atoms: C_22  and  C_23
REMARK                            x       y       z     vdW  Elec       q    Type
REMARK                         _______ _______ _______ _____ _____    ______ ____
ROOT
ATOM      1  C   UNL     1      -0.997  12.240  20.662  0.00  0.00    +0.000 C 
ATOM      2  C   UNL     1      -0.658  10.877  20.144  0.00  0.00    +0.000 C 
ATOM      3  C   UNL     1      -0.301  10.031  21.123  0.00  0.00    +0.000 C 
ATOM      4  C   UNL     1      -0.399  10.772  22.402  0.00  0.00    +0.000 C 
ATOM      5  O   UNL     1      -0.237  10.303  23.509  0.00  0.00    +0.000 OA
ATOM      6  N   UNL     1      -0.744  12.074  22.081  0.00  0.00    +0.000 N 
ENDROOT
BRANCH   1  10
ATOM      7  C   UNL     1       1.194  15.518  18.856  0.00  0.00    +0.000 A 
ATOM      8  C   UNL     1      -0.188  15.582  19.023  0.00  0.00    +0.000 A 
ATOM      9  C   UNL     1      -0.876  14.536  19.637  0.00  0.00    +0.000 A 
ATOM     10  C   UNL     1      -0.195  13.395  20.090  0.00  0.00    +0.000 A 
ATOM     11  C   UNL     1       1.203  13.366  19.971  0.00  0.00    +0.000 A 
ATOM     12  C   UNL     1       1.889  14.411  19.342  0.00  0.00    +0.000 A 
BRANCH   7  14
ATOM     13  C   UNL     1       0.879  17.680  17.946  0.00  0.00    +0.000 C 
ATOM     14  O   UNL     1       1.737  16.569  18.174  0.00  0.00    +0.000 OA
ENDBRANCH   7  14
ENDBRANCH   1  10
BRANCH   2  15
ATOM     15  C   UNL     1      -0.672  10.425  18.732  0.00  0.00    +0.000 C 
ATOM     16  O   UNL     1       0.331   9.827  18.328  0.00  0.00    +0.000 OA
BRANCH  15  17
ATOM     17  C   UNL     1      -1.805  10.660  17.863  0.00  0.00    +0.000 A 
ATOM     18  C   UNL     1      -2.968  11.372  18.101  0.00  0.00    +0.000 A 
ATOM     19  C   UNL     1      -3.756  11.278  16.931  0.00  0.00    +0.000 A 
ATOM     20  C   UNL     1      -3.019  10.541  16.031  0.00  0.00    +0.000 A 
ATOM     21  C   UNL     1      -3.256  10.113  14.639  0.00  0.00    +0.000 C 
ATOM     22  O   UNL     1      -1.829  10.179  16.585  0.00  0.00    +0.000 OA
ENDBRANCH  15  17
ENDBRANCH   2  15
BRANCH   3  23
ATOM     23  O   UNL     1       0.074   8.719  21.036  0.00  0.00    +0.000 OA
ATOM     24  H   UNL     1      -0.717   8.170  21.232  0.00  0.00    +0.000 HD
ENDBRANCH   3  23
BRANCH   6  25
ATOM     25  C   UNL     1      -1.121  13.052  23.092  0.00  0.00    +0.000 C 
BRANCH  25  26
ATOM     26  C   UNL     1      -2.610  13.224  23.204  0.00  0.00    +0.000 A 
ATOM     27  C   UNL     1      -3.252  14.366  22.716  0.00  0.00    +0.000 A 
ATOM     28  C   UNL     1      -4.625  14.517  22.886  0.00  0.00    +0.000 A 
ATOM     29  C   UNL     1      -5.318  13.510  23.535  0.00  0.00    +0.000 A 
ATOM     30  N   UNL     1      -4.741  12.379  23.994  0.00  0.00    +0.000 NA
ATOM     31  C   UNL     1      -3.407  12.258  23.808  0.00  0.00    +0.000 A 
ENDBRANCH  25  26
ENDBRANCH   6  25
TORSDOF 7
ENDMDL
MODEL 2
REMARK VINA RESULT:      -6.9      0.467      1.032
REMARK  Name = 
REMARK  9 active torsions:
REMARK  status: ('A' for Active; 'I' for Inactive)
REMARK    1  A    between atoms: C_1  and  O_2
REMARK    2  A    between atoms: O_2  and  C_3
REMARK    3  A    between atoms: C_6  and  C_7
REMARK    4  A    between atoms: C_8  and  C_9
REMARK    5  A    between atoms: C_9  and  C_11
REMARK    6  A    between atoms: C_14  and  C_15
REMARK    7  A    between atoms: C_17  and  O_18
REMARK    8  A    between atoms: N_21  and  C_22
REMARK    9  A    between atoms: C_22  and  C_23
REMARK                            x       y       z     vdW  Elec       q    Type
REMARK                         _______ _______ _______ _____ _____    ______ ____
ROOT
ATOM      1  C   UNL     1      -1.024  12.194  20.581  0.00  0.00    +0.000 C 
ATOM      2  C   UNL     1      -0.672  10.829  20.076  0.00  0.00    +0.000 C 
ATOM      3  C   UNL     1      -0.259  10.011  21.057  0.00  0.00    +0.000 C 
ATOM      4  C   UNL     1      -0.329  10.774  22.324  0.00  0.00    +0.000 C 
ATOM      5  O   UNL     1      -0.115  10.330  23.433  0.00  0.00    +0.000 OA
ATOM      6  N   UNL     1      -0.715  12.061  21.992  0.00  0.00    +0.000 N 
ENDROOT
BRANCH   1  10
ATOM      7  C   UNL     1       1.241  15.520  18.965  0.00  0.00    +0.000 A 
ATOM      8  C   UNL     1       1.861  14.313  19.279  0.00  0.00    +0.000 A 
ATOM      9  C   UNL     1       1.116  13.239  19.765  0.00  0.00    +0.000 A 
ATOM     10  C   UNL     1      -0.271  13.355  19.957  0.00  0.00    +0.000 A 
ATOM     11  C   UNL     1      -0.894  14.555  19.582  0.00  0.00    +0.000 A 
ATOM     12  C   UNL     1      -0.141  15.635  19.108  0.00  0.00    +0.000 A 
BRANCH   7  14
ATOM     13  C   UNL     1       3.264  16.100  17.880  0.00  0.00    +0.000 C 
ATOM     14  O   UNL     1       2.092  16.513  18.571  0.00  0.00    +0.000 OA
ENDBRANCH   7  14
ENDBRANCH   1  10
BRANCH   2  15
ATOM     15  C   UNL     1      -0.727  10.349  18.674  0.00  0.00    +0.000 C 
ATOM     16  O   UNL     1       0.264   9.742  18.253  0.00  0.00    +0.000 OA
BRANCH  15  17
ATOM     17  C   UNL     1      -1.883  10.568  17.833  0.00  0.00    +0.000 A 
ATOM     18  C   UNL     1      -3.085  11.190  18.128  0.00  0.00    +0.000 A 
ATOM     19  C   UNL     1      -3.882  11.122  16.962  0.00  0.00    +0.000 A 
ATOM     20  C   UNL     1      -3.113  10.491  16.010  0.00  0.00    +0.000 A 
ATOM     21  C   UNL     1      -3.343  10.138  14.596  0.00  0.00    +0.000 C 
ATOM     22  O   UNL     1      -1.896  10.169  16.528  0.00  0.00    +0.000 OA
ENDBRANCH  15  17
ENDBRANCH   2  15
BRANCH   3  23
ATOM     23  O   UNL     1       0.142   8.706  20.981  0.00  0.00    +0.000 OA
ATOM     24  H   UNL     1      -0.548   8.156  21.411  0.00  0.00    +0.000 HD
ENDBRANCH   3  23
BRANCH   6  25
ATOM     25  C   UNL     1      -1.078  13.050  22.998  0.00  0.00    +0.000 C 
BRANCH  25  26
ATOM     26  C   UNL     1      -2.566  13.216  23.135  0.00  0.00    +0.000 A 
ATOM     27  C   UNL     1      -3.219  14.362  22.673  0.00  0.00    +0.000 A 
ATOM     28  C   UNL     1      -4.589  14.507  22.868  0.00  0.00    +0.000 A 
ATOM     29  C   UNL     1      -5.269  13.488  23.514  0.00  0.00    +0.000 A 
ATOM     30  N   UNL     1      -4.682  12.353  23.948  0.00  0.00    +0.000 NA
ATOM     31  C   UNL     1      -3.350  12.239  23.739  0.00  0.00    +0.000 A 
ENDBRANCH  25  26
ENDBRANCH   6  25
TORSDOF 7
ENDMDL
MODEL 3
REMARK VINA RESULT:      -6.5      3.444      6.210
REMARK  Name = 
REMARK  9 active torsions:
REMARK  status: ('A' for Active; 'I' for Inactive)
REMARK    1  A    between atoms: C_1  and  O_2
REMARK    2  A    between atoms: O_2  and  C_3
REMARK    3  A    between atoms: C_6  and  C_7
REMARK    4  A    between atoms: C_8  and  C_9
REMARK    5  A    between atoms: C_9  and  C_11
REMARK    6  A    between atoms: C_14  and  C_15
REMARK    7  A    between atoms: C_17  and  O_18
REMARK    8  A    between atoms: N_21  and  C_22
REMARK    9  A    between atoms: C_22  and  C_23
REMARK                            x       y       z     vdW  Elec       q    Type
REMARK                         _______ _______ _______ _____ _____    ______ ____
ROOT
ATOM      1  C   UNL     1      -4.226  11.830  19.426  0.00  0.00    +0.000 C 
ATOM      2  C   UNL     1      -3.426  12.871  20.146  0.00  0.00    +0.000 C 
ATOM      3  C   UNL     1      -4.146  13.970  20.421  0.00  0.00    +0.000 C 
ATOM      4  C   UNL     1      -5.519  13.733  19.918  0.00  0.00    +0.000 C 
ATOM      5  O   UNL     1      -6.468  14.475  20.069  0.00  0.00    +0.000 OA
ATOM      6  N   UNL     1      -5.503  12.502  19.287  0.00  0.00    +0.000 N 
ENDROOT
BRANCH   1  10
ATOM      7  C   UNL     1      -2.847  10.434  15.559  0.00  0.00    +0.000 A 
ATOM      8  C   UNL     1      -4.055  11.115  15.689  0.00  0.00    +0.000 A 
ATOM      9  C   UNL     1      -4.471  11.589  16.932  0.00  0.00    +0.000 A 
ATOM     10  C   UNL     1      -3.687  11.383  18.079  0.00  0.00    +0.000 A 
ATOM     11  C   UNL     1      -2.444  10.748  17.928  0.00  0.00    +0.000 A 
ATOM     12  C   UNL     1      -2.037  10.261  16.681  0.00  0.00    +0.000 A 
BRANCH   7  14
ATOM     13  C   UNL     1      -3.673  10.003  13.383  0.00  0.00    +0.000 C 
ATOM     14  O   UNL     1      -2.591   9.957  14.305  0.00  0.00    +0.000 OA
ENDBRANCH   7  14
ENDBRANCH   1  10
BRANCH   2  15
ATOM     15  C   UNL     1      -1.998  12.794  20.538  0.00  0.00    +0.000 C 
ATOM     16  O   UNL     1      -1.247  13.664  20.083  0.00  0.00    +0.000 OA
BRANCH  15  17
ATOM     17  C   UNL     1      -1.500  11.759  21.418  0.00  0.00    +0.000 A 
ATOM     18  C   UNL     1      -1.668  11.603  22.783  0.00  0.00    +0.000 A 
ATOM     19  C   UNL     1      -0.962  10.436  23.156  0.00  0.00    +0.000 A 
ATOM     20  C   UNL     1      -0.427   9.926  21.994  0.00  0.00    +0.000 A 
ATOM     21  C   UNL     1       0.383   8.730  21.693  0.00  0.00    +0.000 C 
ATOM     22  O   UNL     1      -0.764  10.714  20.937  0.00  0.00    +0.000 OA
ENDBRANCH  15  17
ENDBRANCH   2  15
BRANCH   3  23
ATOM     23  O   UNL     1      -3.761  15.117  21.059  0.00  0.00    +0.000 OA
ATOM     24  H   UNL     1      -3.931  14.995  22.019  0.00  0.00    +0.000 HD
ENDBRANCH   3  23
BRANCH   6  25
ATOM     25  C   UNL     1      -6.721  11.843  18.834  0.00  0.00    +0.000 C 
BRANCH  25  26
ATOM     26  C   UNL     1      -7.127  10.703  19.727  0.00  0.00    +0.000 A 
ATOM     27  C   UNL     1      -7.592  10.923  21.026  0.00  0.00    +0.000 A 
ATOM     28  C   UNL     1      -7.905   9.841  21.844  0.00  0.00    +0.000 A 
ATOM     29  C   UNL     1      -7.750   8.565  21.329  0.00  0.00    +0.000 A 
ATOM     30  N   UNL     1      -7.333   8.311  20.070  0.00  0.00    +0.000 NA
ATOM     31  C   UNL     1      -7.043   9.383  19.297  0.00  0.00    +0.000 A 
ENDBRANCH  25  26
ENDBRANCH   6  25
TORSDOF 7
ENDMDL
MODEL 4
REMARK VINA RESULT:      -6.5      8.053     10.988
REMARK  Name = 
REMARK  9 active torsions:
REMARK  status: ('A' for Active; 'I' for Inactive)
REMARK    1  A    between atoms: C_1  and  O_2
REMARK    2  A    between atoms: O_2  and  C_3
REMARK    3  A    between atoms: C_6  and  C_7
REMARK    4  A    between atoms: C_8  and  C_9
REMARK    5  A    between atoms: C_9  and  C_11
REMARK    6  A    between atoms: C_14  and  C_15
REMARK    7  A    between atoms: C_17  and  O_18
REMARK    8  A    between atoms: N_21  and  C_22
REMARK    9  A    between atoms: C_22  and  C_23
REMARK                            x       y       z     vdW  Elec       q    Type
REMARK                         _______ _______ _______ _____ _____    ______ ____
ROOT
ATOM      1  C   UNL     1       4.709   4.297  18.357  0.00  0.00    +0.000 C 
ATOM      2  C   UNL     1       3.294   4.619  18.724  0.00  0.00    +0.000 C 
ATOM      3  C   UNL     1       2.415   4.175  17.812  0.00  0.00    +0.000 C 
ATOM      4  C   UNL     1       3.189   3.486  16.754  0.00  0.00    +0.000 C 
ATOM      5  O   UNL     1       2.722   2.882  15.811  0.00  0.00    +0.000 OA
ATOM      6  N   UNL     1       4.526   3.639  17.077  0.00  0.00    +0.000 N 
ENDROOT
BRANCH   1  10
ATOM      7  C   UNL     1       7.420   7.640  17.825  0.00  0.00    +0.000 A 
ATOM      8  C   UNL     1       6.154   7.641  17.243  0.00  0.00    +0.000 A 
ATOM      9  C   UNL     1       5.279   6.576  17.450  0.00  0.00    +0.000 A 
ATOM     10  C   UNL     1       5.657   5.477  18.240  0.00  0.00    +0.000 A 
ATOM     11  C   UNL     1       6.910   5.514  18.870  0.00  0.00    +0.000 A 
ATOM     12  C   UNL     1       7.792   6.578  18.649  0.00  0.00    +0.000 A 
BRANCH   7  14
ATOM     13  C   UNL     1       8.584   9.572  18.545  0.00  0.00    +0.000 C 
ATOM     14  O   UNL     1       8.206   8.704  17.484  0.00  0.00    +0.000 OA
ENDBRANCH   7  14
ENDBRANCH   1  10
BRANCH   2  15
ATOM     15  C   UNL     1       2.822   5.350  19.925  0.00  0.00    +0.000 C 
ATOM     16  O   UNL     1       2.915   4.762  21.008  0.00  0.00    +0.000 OA
BRANCH  15  17
ATOM     17  C   UNL     1       2.283   6.690  19.844  0.00  0.00    +0.000 A 
ATOM     18  C   UNL     1       1.605   7.429  20.799  0.00  0.00    +0.000 A 
ATOM     19  C   UNL     1       1.282   8.672  20.206  0.00  0.00    +0.000 A 
ATOM     20  C   UNL     1       1.807   8.636  18.934  0.00  0.00    +0.000 A 
ATOM     21  C   UNL     1       1.840   9.610  17.826  0.00  0.00    +0.000 C 
ATOM     22  O   UNL     1       2.429   7.445  18.715  0.00  0.00    +0.000 OA
ENDBRANCH  15  17
ENDBRANCH   2  15
BRANCH   3  23
ATOM     23  O   UNL     1       1.052   4.282  17.803  0.00  0.00    +0.000 OA
ATOM     24  H   UNL     1       0.805   4.997  18.429  0.00  0.00    +0.000 HD
ENDBRANCH   3  23
BRANCH   6  25
ATOM     25  C   UNL     1       5.585   2.929  16.372  0.00  0.00    +0.000 C 
BRANCH  25  26
ATOM     26  C   UNL     1       6.147   3.722  15.224  0.00  0.00    +0.000 A 
ATOM     27  C   UNL     1       5.694   3.533  13.916  0.00  0.00    +0.000 A 
ATOM     28  C   UNL     1       6.275   4.244  12.870  0.00  0.00    +0.000 A 
ATOM     29  C   UNL     1       7.292   5.134  13.171  0.00  0.00    +0.000 A 
ATOM     30  N   UNL     1       7.737   5.368  14.423  0.00  0.00    +0.000 NA
ATOM     31  C   UNL     1       7.148   4.667  15.419  0.00  0.00    +0.000 A 
ENDBRANCH  25  26
ENDBRANCH   6  25
TORSDOF 7
ENDMDL
MODEL 5
REMARK VINA RESULT:      -6.5      2.745      4.786
REMARK  Name = 
REMARK  9 active torsions:
REMARK  status: ('A' for Active; 'I' for Inactive)
REMARK    1  A    between atoms: C_1  and  O_2
REMARK    2  A    between atoms: O_2  and  C_3
REMARK    3  A    between atoms: C_6  and  C_7
REMARK    4  A    between atoms: C_8  and  C_9
REMARK    5  A    between atoms: C_9  and  C_11
REMARK    6  A    between atoms: C_14  and  C_15
REMARK    7  A    between atoms: C_17  and  O_18
REMARK    8  A    between atoms: N_21  and  C_22
REMARK    9  A    between atoms: C_22  and  C_23
REMARK                            x       y       z     vdW  Elec       q    Type
REMARK                         _______ _______ _______ _____ _____    ______ ____
ROOT
ATOM      1  C   UNL     1      -0.007  11.189  20.267  0.00  0.00    +0.000 C 
ATOM      2  C   UNL     1       0.226  10.339  21.477  0.00  0.00    +0.000 C 
ATOM      3  C   UNL     1      -0.670  10.575  22.449  0.00  0.00    +0.000 C 
ATOM      4  C   UNL     1      -1.606  11.605  21.943  0.00  0.00    +0.000 C 
ATOM      5  O   UNL     1      -2.599  12.004  22.515  0.00  0.00    +0.000 OA
ATOM      6  N   UNL     1      -1.144  11.983  20.694  0.00  0.00    +0.000 N 
ENDROOT
BRANCH   1  10
ATOM      7  C   UNL     1       3.187  13.868  19.073  0.00  0.00    +0.000 A 
ATOM      8  C   UNL     1       2.714  13.851  20.383  0.00  0.00    +0.000 A 
ATOM      9  C   UNL     1       1.711  12.961  20.763  0.00  0.00    +0.000 A 
ATOM     10  C   UNL     1       1.150  12.071  19.833  0.00  0.00    +0.000 A 
ATOM     11  C   UNL     1       1.674  12.054  18.531  0.00  0.00    +0.000 A 
ATOM     12  C   UNL     1       2.672  12.958  18.150  0.00  0.00    +0.000 A 
BRANCH   7  14
ATOM     13  C   UNL     1       4.964  15.200  19.894  0.00  0.00    +0.000 C 
ATOM     14  O   UNL     1       4.116  14.835  18.812  0.00  0.00    +0.000 OA
ENDBRANCH   7  14
ENDBRANCH   1  10
BRANCH   2  15
ATOM     15  C   UNL     1       1.301   9.338  21.677  0.00  0.00    +0.000 C 
ATOM     16  O   UNL     1       1.925   9.395  22.742  0.00  0.00    +0.000 OA
BRANCH  15  17
ATOM     17  C   UNL     1       1.608   8.334  20.682  0.00  0.00    +0.000 A 
ATOM     18  C   UNL     1       1.938   8.485  19.346  0.00  0.00    +0.000 A 
ATOM     19  C   UNL     1       2.124   7.187  18.816  0.00  0.00    +0.000 A 
ATOM     20  C   UNL     1       1.928   6.316  19.864  0.00  0.00    +0.000 A 
ATOM     21  C   UNL     1       2.000   4.847  19.985  0.00  0.00    +0.000 C 
ATOM     22  O   UNL     1       1.632   7.006  21.000  0.00  0.00    +0.000 OA
ENDBRANCH  15  17
ENDBRANCH   2  15
BRANCH   3  23
ATOM     23  O   UNL     1      -0.774   9.999  23.684  0.00  0.00    +0.000 OA
ATOM     24  H   UNL     1      -0.611  10.700  24.354  0.00  0.00    +0.000 HD
ENDBRANCH   3  23
BRANCH   6  25
ATOM     25  C   UNL     1      -1.916  12.839  19.804  0.00  0.00    +0.000 C 
BRANCH  25  26
ATOM     26  C   UNL     1      -2.608  12.066  18.715  0.00  0.00    +0.000 A 
ATOM     27  C   UNL     1      -1.923  11.643  17.573  0.00  0.00    +0.000 A 
ATOM     28  C   UNL     1      -2.607  10.978  16.559  0.00  0.00    +0.000 A 
ATOM     29  C   UNL     1      -3.963  10.750  16.726  0.00  0.00    +0.000 A 
ATOM     30  N   UNL     1      -4.654  11.116  17.826  0.00  0.00    +0.000 NA
ATOM     31  C   UNL     1      -3.960  11.754  18.797  0.00  0.00    +0.000 A 
ENDBRANCH  25  26
ENDBRANCH   6  25
TORSDOF 7
ENDMDL
MODEL 6
REMARK VINA RESULT:      -6.5      2.576      4.657
REMARK  Name = 
REMARK  9 active torsions:
REMARK  status: ('A' for Active; 'I' for Inactive)
REMARK    1  A    between atoms: C_1  and  O_2
REMARK    2  A    between atoms: O_2  and  C_3
REMARK    3  A    between atoms: C_6  and  C_7
REMARK    4  A    between atoms: C_8  and  C_9
REMARK    5  A    between atoms: C_9  and  C_11
REMARK    6  A    between atoms: C_14  and  C_15
REMARK    7  A    between atoms: C_17  and  O_18
REMARK    8  A    between atoms: N_21  and  C_22
REMARK    9  A    between atoms: C_22  and  C_23
REMARK                            x       y       z     vdW  Elec       q    Type
REMARK                         _______ _______ _______ _____ _____    ______ ____
ROOT
ATOM      1  C   UNL     1      -0.017  11.248  20.310  0.00  0.00    +0.000 C 
ATOM      2  C   UNL     1       0.195  10.410  21.533  0.00  0.00    +0.000 C 
ATOM      3  C   UNL     1      -0.729  10.642  22.479  0.00  0.00    +0.000 C 
ATOM      4  C   UNL     1      -1.664  11.656  21.941  0.00  0.00    +0.000 C 
ATOM      5  O   UNL     1      -2.677  12.047  22.483  0.00  0.00    +0.000 OA
ATOM      6  N   UNL     1      -1.174  12.030  20.701  0.00  0.00    +0.000 N 
ENDROOT
BRANCH   1  10
ATOM      7  C   UNL     1       3.173  13.958  19.177  0.00  0.00    +0.000 A 
ATOM      8  C   UNL     1       2.655  13.957  20.470  0.00  0.00    +0.000 A 
ATOM      9  C   UNL     1       1.654  13.058  20.832  0.00  0.00    +0.000 A 
ATOM     10  C   UNL     1       1.140  12.141  19.900  0.00  0.00    +0.000 A 
ATOM     11  C   UNL     1       1.709  12.109  18.617  0.00  0.00    +0.000 A 
ATOM     12  C   UNL     1       2.705  13.023  18.254  0.00  0.00    +0.000 A 
BRANCH   7  14
ATOM     13  C   UNL     1       5.079  14.638  17.949  0.00  0.00    +0.000 C 
ATOM     14  O   UNL     1       4.094  14.936  18.930  0.00  0.00    +0.000 OA
ENDBRANCH   7  14
ENDBRANCH   1  10
BRANCH   2  15
ATOM     15  C   UNL     1       1.277   9.425  21.769  0.00  0.00    +0.000 C 
ATOM     16  O   UNL     1       1.877   9.502  22.848  0.00  0.00    +0.000 OA
BRANCH  15  17
ATOM     17  C   UNL     1       1.617   8.411  20.795  0.00  0.00    +0.000 A 
ATOM     18  C   UNL     1       1.540   7.032  20.890  0.00  0.00    +0.000 A 
ATOM     19  C   UNL     1       2.010   6.506  19.664  0.00  0.00    +0.000 A 
ATOM     20  C   UNL     1       2.318   7.592  18.876  0.00  0.00    +0.000 A 
ATOM     21  C   UNL     1       2.823   7.730  17.496  0.00  0.00    +0.000 C 
ATOM     22  O   UNL     1       2.066   8.748  19.550  0.00  0.00    +0.000 OA
ENDBRANCH  15  17
ENDBRANCH   2  15
BRANCH   3  23
ATOM     23  O   UNL     1      -0.858  10.075  23.717  0.00  0.00    +0.000 OA
ATOM     24  H   UNL     1      -0.547  10.730  24.378  0.00  0.00    +0.000 HD
ENDBRANCH   3  23
BRANCH   6  25
ATOM     25  C   UNL     1      -1.933  12.870  19.784  0.00  0.00    +0.000 C 
BRANCH  25  26
ATOM     26  C   UNL     1      -2.609  12.077  18.700  0.00  0.00    +0.000 A 
ATOM     27  C   UNL     1      -1.905  11.623  17.581  0.00  0.00    +0.000 A 
ATOM     28  C   UNL     1      -2.575  10.940  16.569  0.00  0.00    +0.000 A 
ATOM     29  C   UNL     1      -3.934  10.724  16.716  0.00  0.00    +0.000 A 
ATOM     30  N   UNL     1      -4.644  11.118  17.794  0.00  0.00    +0.000 NA
ATOM     31  C   UNL     1      -3.965  11.773  18.763  0.00  0.00    +0.000 A 
ENDBRANCH  25  26
ENDBRANCH   6  25
TORSDOF 7
ENDMDL
MODEL 7
REMARK VINA RESULT:      -6.4      2.160      6.186
REMARK  Name = 
REMARK  9 active torsions:
REMARK  status: ('A' for Active; 'I' for Inactive)
REMARK    1  A    between atoms: C_1  and  O_2
REMARK    2  A    between atoms: O_2  and  C_3
REMARK    3  A    between atoms: C_6  and  C_7
REMARK    4  A    between atoms: C_8  and  C_9
REMARK    5  A    between atoms: C_9  and  C_11
REMARK    6  A    between atoms: C_14  and  C_15
REMARK    7  A    between atoms: C_17  and  O_18
REMARK    8  A    between atoms: N_21  and  C_22
REMARK    9  A    between atoms: C_22  and  C_23
REMARK                            x       y       z     vdW  Elec       q    Type
REMARK                         _______ _______ _______ _____ _____    ______ ____
ROOT
ATOM      1  C   UNL     1      -1.125  12.352  19.583  0.00  0.00    +0.000 C 
ATOM      2  C   UNL     1       0.204  13.042  19.547  0.00  0.00    +0.000 C 
ATOM      3  C   UNL     1       1.180  12.247  19.081  0.00  0.00    +0.000 C 
ATOM      4  C   UNL     1       0.563  10.946  18.739  0.00  0.00    +0.000 C 
ATOM      5  O   UNL     1       1.125  10.010  18.208  0.00  0.00    +0.000 OA
ATOM      6  N   UNL     1      -0.768  11.028  19.109  0.00  0.00    +0.000 N 
ENDROOT
BRANCH   1  10
ATOM      7  C   UNL     1      -3.109  12.370  23.439  0.00  0.00    +0.000 A 
ATOM      8  C   UNL     1      -3.764  12.811  22.291  0.00  0.00    +0.000 A 
ATOM      9  C   UNL     1      -3.127  12.768  21.051  0.00  0.00    +0.000 A 
ATOM     10  C   UNL     1      -1.812  12.289  20.935  0.00  0.00    +0.000 A 
ATOM     11  C   UNL     1      -1.182  11.793  22.087  0.00  0.00    +0.000 A 
ATOM     12  C   UNL     1      -1.819  11.850  23.331  0.00  0.00    +0.000 A 
BRANCH   7  14
ATOM     13  C   UNL     1      -5.228  12.597  24.469  0.00  0.00    +0.000 C 
ATOM     14  O   UNL     1      -3.813  12.535  24.597  0.00  0.00    +0.000 OA
ENDBRANCH   7  14
ENDBRANCH   1  10
BRANCH   2  15
ATOM     15  C   UNL     1       0.506  14.431  19.968  0.00  0.00    +0.000 C 
ATOM     16  O   UNL     1       1.451  14.584  20.750  0.00  0.00    +0.000 OA
BRANCH  15  17
ATOM     17  C   UNL     1      -0.258  15.561  19.488  0.00  0.00    +0.000 A 
ATOM     18  C   UNL     1      -1.448  16.089  19.961  0.00  0.00    +0.000 A 
ATOM     19  C   UNL     1      -1.777  17.181  19.124  0.00  0.00    +0.000 A 
ATOM     20  C   UNL     1      -0.756  17.279  18.205  0.00  0.00    +0.000 A 
ATOM     21  C   UNL     1      -0.484  18.208  17.091  0.00  0.00    +0.000 C 
ATOM     22  O   UNL     1       0.174  16.311  18.432  0.00  0.00    +0.000 OA
ENDBRANCH  15  17
ENDBRANCH   2  15
BRANCH   3  23
ATOM     23  O   UNL     1       2.508  12.524  18.908  0.00  0.00    +0.000 OA
ATOM     24  H   UNL     1       2.941  12.468  19.787  0.00  0.00    +0.000 HD
ENDBRANCH   3  23
BRANCH   6  25
ATOM     25  C   UNL     1      -1.742  10.006  18.750  0.00  0.00    +0.000 C 
BRANCH  25  26
ATOM     26  C   UNL     1      -2.533  10.367  17.524  0.00  0.00    +0.000 A 
ATOM     27  C   UNL     1      -2.159   9.915  16.255  0.00  0.00    +0.000 A 
ATOM     28  C   UNL     1      -2.882  10.314  15.135  0.00  0.00    +0.000 A 
ATOM     29  C   UNL     1      -3.969  11.152  15.322  0.00  0.00    +0.000 A 
ATOM     30  N   UNL     1      -4.380  11.586  16.532  0.00  0.00    +0.000 NA
ATOM     31  C   UNL     1      -3.662  11.175  17.602  0.00  0.00    +0.000 A 
ENDBRANCH  25  26
ENDBRANCH   6  25
TORSDOF 7
ENDMDL
MODEL 8
REMARK VINA RESULT:      -6.4      8.069     11.834
REMARK  Name = 
REMARK  9 active torsions:
REMARK  status: ('A' for Active; 'I' for Inactive)
REMARK    1  A    between atoms: C_1  and  O_2
REMARK    2  A    between atoms: O_2  and  C_3
REMARK    3  A    between atoms: C_6  and  C_7
REMARK    4  A    between atoms: C_8  and  C_9
REMARK    5  A    between atoms: C_9  and  C_11
REMARK    6  A    between atoms: C_14  and  C_15
REMARK    7  A    between atoms: C_17  and  O_18
REMARK    8  A    between atoms: N_21  and  C_22
REMARK    9  A    between atoms: C_22  and  C_23
REMARK                            x       y       z     vdW  Elec       q    Type
REMARK                         _______ _______ _______ _____ _____    ______ ____
ROOT
ATOM      1  C   UNL     1       4.365   5.376  16.775  0.00  0.00    +0.000 C 
ATOM      2  C   UNL     1       4.402   6.800  17.236  0.00  0.00    +0.000 C 
ATOM      3  C   UNL     1       5.652   7.286  17.293  0.00  0.00    +0.000 C 
ATOM      4  C   UNL     1       6.564   6.210  16.842  0.00  0.00    +0.000 C 
ATOM      5  O   UNL     1       7.762   6.316  16.679  0.00  0.00    +0.000 OA
ATOM      6  N   UNL     1       5.779   5.094  16.614  0.00  0.00    +0.000 N 
ENDROOT
BRANCH   1  10
ATOM      7  C   UNL     1       2.354   2.681  19.515  0.00  0.00    +0.000 A 
ATOM      8  C   UNL     1       1.691   3.211  18.410  0.00  0.00    +0.000 A 
ATOM      9  C   UNL     1       2.358   4.049  17.518  0.00  0.00    +0.000 A 
ATOM     10  C   UNL     1       3.708   4.383  17.717  0.00  0.00    +0.000 A 
ATOM     11  C   UNL     1       4.383   3.798  18.799  0.00  0.00    +0.000 A 
ATOM     12  C   UNL     1       3.706   2.968  19.701  0.00  0.00    +0.000 A 
BRANCH   7  14
ATOM     13  C   UNL     1       1.348   2.477  21.647  0.00  0.00    +0.000 C 
ATOM     14  O   UNL     1       1.570   1.939  20.350  0.00  0.00    +0.000 OA
ENDBRANCH   7  14
ENDBRANCH   1  10
BRANCH   2  15
ATOM     15  C   UNL     1       3.250   7.650  17.620  0.00  0.00    +0.000 C 
ATOM     16  O   UNL     1       2.864   8.477  16.785  0.00  0.00    +0.000 OA
BRANCH  15  17
ATOM     17  C   UNL     1       2.596   7.521  18.903  0.00  0.00    +0.000 A 
ATOM     18  C   UNL     1       2.673   6.500  19.836  0.00  0.00    +0.000 A 
ATOM     19  C   UNL     1       1.825   6.857  20.910  0.00  0.00    +0.000 A 
ATOM     20  C   UNL     1       1.302   8.090  20.590  0.00  0.00    +0.000 A 
ATOM     21  C   UNL     1       0.385   9.012  21.288  0.00  0.00    +0.000 C 
ATOM     22  O   UNL     1       1.779   8.504  19.384  0.00  0.00    +0.000 OA
ENDBRANCH  15  17
ENDBRANCH   2  15
BRANCH   3  23
ATOM     23  O   UNL     1       6.078   8.532  17.666  0.00  0.00    +0.000 OA
ATOM     24  H   UNL     1       6.520   8.939  16.890  0.00  0.00    +0.000 HD
ENDBRANCH   3  23
BRANCH   6  25
ATOM     25  C   UNL     1       6.298   3.893  15.974  0.00  0.00    +0.000 C 
BRANCH  25  26
ATOM     26  C   UNL     1       6.452   4.051  14.487  0.00  0.00    +0.000 A 
ATOM     27  C   UNL     1       5.604   3.394  13.591  0.00  0.00    +0.000 A 
ATOM     28  C   UNL     1       5.811   3.519  12.220  0.00  0.00    +0.000 A 
ATOM     29  C   UNL     1       6.862   4.310  11.787  0.00  0.00    +0.000 A 
ATOM     30  N   UNL     1       7.684   4.985  12.618  0.00  0.00    +0.000 NA
ATOM     31  C   UNL     1       7.453   4.849  13.944  0.00  0.00    +0.000 A 
ENDBRANCH  25  26
ENDBRANCH   6  25
TORSDOF 7
ENDMDL
MODEL 9
REMARK VINA RESULT:      -6.3      2.713      4.418
REMARK  Name = 
REMARK  9 active torsions:
REMARK  status: ('A' for Active; 'I' for Inactive)
REMARK    1  A    between atoms: C_1  and  O_2
REMARK    2  A    between atoms: O_2  and  C_3
REMARK    3  A    between atoms: C_6  and  C_7
REMARK    4  A    between atoms: C_8  and  C_9
REMARK    5  A    between atoms: C_9  and  C_11
REMARK    6  A    between atoms: C_14  and  C_15
REMARK    7  A    between atoms: C_17  and  O_18
REMARK    8  A    between atoms: N_21  and  C_22
REMARK    9  A    between atoms: C_22  and  C_23
REMARK                            x       y       z     vdW  Elec       q    Type
REMARK                         _______ _______ _______ _____ _____    ______ ____
ROOT
ATOM      1  C   UNL     1      -0.125  11.338  20.337  0.00  0.00    +0.000 C 
ATOM      2  C   UNL     1       0.189  10.418  21.476  0.00  0.00    +0.000 C 
ATOM      3  C   UNL     1      -0.663  10.567  22.503  0.00  0.00    +0.000 C 
ATOM      4  C   UNL     1      -1.647  11.602  22.112  0.00  0.00    +0.000 C 
ATOM      5  O   UNL     1      -2.620  11.938  22.756  0.00  0.00    +0.000 OA
ATOM      6  N   UNL     1      -1.257  12.072  20.870  0.00  0.00    +0.000 N 
ENDROOT
BRANCH   1  10
ATOM      7  C   UNL     1       3.154  13.859  19.035  0.00  0.00    +0.000 A 
ATOM      8  C   UNL     1       2.411  13.117  18.120  0.00  0.00    +0.000 A 
ATOM      9  C   UNL     1       1.337  12.337  18.547  0.00  0.00    +0.000 A 
ATOM     10  C   UNL     1       0.988  12.276  19.907  0.00  0.00    +0.000 A 
ATOM     11  C   UNL     1       1.706  13.073  20.812  0.00  0.00    +0.000 A 
ATOM     12  C   UNL     1       2.792  13.844  20.381  0.00  0.00    +0.000 A 
BRANCH   7  14
ATOM     13  C   UNL     1       5.014  15.275  19.409  0.00  0.00    +0.000 C 
ATOM     14  O   UNL     1       4.224  14.519  18.500  0.00  0.00    +0.000 OA
ENDBRANCH   7  14
ENDBRANCH   1  10
BRANCH   2  15
ATOM     15  C   UNL     1       1.295   9.435  21.559  0.00  0.00    +0.000 C 
ATOM     16  O   UNL     1       1.930   9.397  22.618  0.00  0.00    +0.000 OA
BRANCH  15  17
ATOM     17  C   UNL     1       1.620   8.552  20.459  0.00  0.00    +0.000 A 
ATOM     18  C   UNL     1       1.802   8.842  19.118  0.00  0.00    +0.000 A 
ATOM     19  C   UNL     1       2.085   7.620  18.466  0.00  0.00    +0.000 A 
ATOM     20  C   UNL     1       2.090   6.655  19.448  0.00  0.00    +0.000 A 
ATOM     21  C   UNL     1       2.341   5.201  19.437  0.00  0.00    +0.000 C 
ATOM     22  O   UNL     1       1.826   7.217  20.660  0.00  0.00    +0.000 OA
ENDBRANCH  15  17
ENDBRANCH   2  15
BRANCH   3  23
ATOM     23  O   UNL     1      -0.692   9.911  23.703  0.00  0.00    +0.000 OA
ATOM     24  H   UNL     1      -0.122  10.409  24.328  0.00  0.00    +0.000 HD
ENDBRANCH   3  23
BRANCH   6  25
ATOM     25  C   UNL     1      -2.092  12.963  20.075  0.00  0.00    +0.000 C 
BRANCH  25  26
ATOM     26  C   UNL     1      -3.194  12.234  19.358  0.00  0.00    +0.000 A 
ATOM     27  C   UNL     1      -2.925  11.359  18.302  0.00  0.00    +0.000 A 
ATOM     28  C   UNL     1      -3.974  10.745  17.624  0.00  0.00    +0.000 A 
ATOM     29  C   UNL     1      -5.267  11.022  18.033  0.00  0.00    +0.000 A 
ATOM     30  N   UNL     1      -5.569  11.837  19.066  0.00  0.00    +0.000 NA
ATOM     31  C   UNL     1      -4.528  12.413  19.710  0.00  0.00    +0.000 A 
ENDBRANCH  25  26
ENDBRANCH   6  25
TORSDOF 7
ENDMDL
