MODEL 1
REMARK VINA RESULT:      -8.1      0.000      0.000
REMARK  Name = 
REMARK  9 active torsions:
REMARK  status: ('A' for Active; 'I' for Inactive)
REMARK    1  A    between atoms: C_1  and  C_2
REMARK    2  A    between atoms: C_2  and  C_3
REMARK    3  A    between atoms: C_3  and  C_4
REMARK    4  A    between atoms: C_3  and  N_13
REMARK    5  A    between atoms: N_6  and  C_7
REMARK    6  A    between atoms: C_7  and  C_8
REMARK    7  A    between atoms: C_15  and  C_16
REMARK    8  A    between atoms: C_18  and  C_19
REMARK    9  A    between atoms: N_20  and  C_21
REMARK                            x       y       z     vdW  Elec       q    Type
REMARK                         _______ _______ _______ _____ _____    ______ ____
ROOT
ATOM      1  N   UNL     1       2.723   5.295  19.294  0.00  0.00    +0.000 N 
ATOM      2  N   UNL     1       3.122   6.134  18.259  0.00  0.00    +0.000 NA
ATOM      3  C   UNL     1       2.782   7.383  18.206  0.00  0.00    +0.000 A 
ATOM      4  C   UNL     1       3.265   8.178  17.031  0.00  0.00    +0.000 C 
ATOM      5  C   UNL     1       1.974   7.935  19.257  0.00  0.00    +0.000 A 
ATOM      6  C   UNL     1       1.467   9.198  19.490  0.00  0.00    +0.000 A 
ATOM      7  C   UNL     1       1.692  10.466  18.747  0.00  0.00    +0.000 C 
ATOM      8  N   UNL     1       0.715   9.090  20.666  0.00  0.00    +0.000 N 
ATOM      9  N   UNL     1       0.892   7.863  21.250  0.00  0.00    +0.000 NA
ATOM     10  C   UNL     1       1.596   7.147  20.354  0.00  0.00    +0.000 A 
ATOM     11  C   UNL     1       1.999   5.730  20.432  0.00  0.00    +0.000 A 
ATOM     12  O   UNL     1       1.757   4.989  21.383  0.00  0.00    +0.000 OA
ENDROOT
BRANCH   8  13
ATOM     13  C   UNL     1      -0.156  10.062  21.261  0.00  0.00    +0.000 A 
ATOM     14  C   UNL     1      -0.773  11.066  20.498  0.00  0.00    +0.000 A 
ATOM     15  C   UNL     1      -1.621  12.008  21.088  0.00  0.00    +0.000 A 
ATOM     16  C   UNL     1      -1.875  11.953  22.453  0.00  0.00    +0.000 A 
ATOM     17  C   UNL     1      -1.280  10.956  23.224  0.00  0.00    +0.000 A 
ATOM     18  C   UNL     1      -0.431  10.007  22.634  0.00  0.00    +0.000 A 
ENDBRANCH   8  13
BRANCH   1  19
ATOM     19  C   UNL     1       3.178   3.882  19.139  0.00  0.00    +0.000 C 
BRANCH  19  20
ATOM     20  C   UNL     1       4.683   3.885  18.793  0.00  0.00    +0.000 C 
ATOM     21  O   UNL     1       5.563   3.548  19.585  0.00  0.00    +0.000 OA
ATOM     22  N   UNL     1       5.002   4.376  17.545  0.00  0.00    +0.000 N 
ATOM     23  H   UNL     1       4.271   4.623  16.883  0.00  0.00    +0.000 HD
BRANCH  22  24
ATOM     24  C   UNL     1       6.379   4.406  17.110  0.00  0.00    +0.000 C 
BRANCH  24  25
ATOM     25  C   UNL     1       7.014   5.674  17.534  0.00  0.00    +0.000 A 
ATOM     26  C   UNL     1       7.775   6.036  18.627  0.00  0.00    +0.000 A 
ATOM     27  C   UNL     1       8.098   7.403  18.454  0.00  0.00    +0.000 A 
ATOM     28  C   UNL     1       7.516   7.788  17.269  0.00  0.00    +0.000 A 
ATOM     29  O   UNL     1       6.860   6.745  16.701  0.00  0.00    +0.000 OA
ENDBRANCH  24  25
ENDBRANCH  22  24
ENDBRANCH  19  20
BRANCH  19  31
ATOM     30  C   UNL     1       1.089   2.420  18.547  0.00  0.00    +0.000 C 
ATOM     31  C   UNL     1       2.326   3.160  18.059  0.00  0.00    +0.000 C 
ENDBRANCH  19  31
ENDBRANCH   1  19
TORSDOF 6
ENDMDL
MODEL 2
REMARK VINA RESULT:      -8.1      1.294      1.860
REMARK  Name = 
REMARK  9 active torsions:
REMARK  status: ('A' for Active; 'I' for Inactive)
REMARK    1  A    between atoms: C_1  and  C_2
REMARK    2  A    between atoms: C_2  and  C_3
REMARK    3  A    between atoms: C_3  and  C_4
REMARK    4  A    between atoms: C_3  and  N_13
REMARK    5  A    between atoms: N_6  and  C_7
REMARK    6  A    between atoms: C_7  and  C_8
REMARK    7  A    between atoms: C_15  and  C_16
REMARK    8  A    between atoms: C_18  and  C_19
REMARK    9  A    between atoms: N_20  and  C_21
REMARK                            x       y       z     vdW  Elec       q    Type
REMARK                         _______ _______ _______ _____ _____    ______ ____
ROOT
ATOM      1  N   UNL     1       2.992   5.356  19.175  0.00  0.00    +0.000 N 
ATOM      2  N   UNL     1       3.291   6.201  18.110  0.00  0.00    +0.000 NA
ATOM      3  C   UNL     1       2.873   7.426  18.057  0.00  0.00    +0.000 A 
ATOM      4  C   UNL     1       3.251   8.230  16.850  0.00  0.00    +0.000 C 
ATOM      5  C   UNL     1       2.083   7.946  19.138  0.00  0.00    +0.000 A 
ATOM      6  C   UNL     1       1.513   9.180  19.379  0.00  0.00    +0.000 A 
ATOM      7  C   UNL     1       1.626  10.447  18.609  0.00  0.00    +0.000 C 
ATOM      8  N   UNL     1       0.825   9.046  20.591  0.00  0.00    +0.000 N 
ATOM      9  N   UNL     1       1.103   7.842  21.181  0.00  0.00    +0.000 NA
ATOM     10  C   UNL     1       1.806   7.155  20.263  0.00  0.00    +0.000 A 
ATOM     11  C   UNL     1       2.297   5.766  20.339  0.00  0.00    +0.000 A 
ATOM     12  O   UNL     1       2.145   5.027  21.311  0.00  0.00    +0.000 OA
ENDROOT
BRANCH   8  13
ATOM     13  C   UNL     1      -0.075   9.974  21.214  0.00  0.00    +0.000 A 
ATOM     14  C   UNL     1      -0.756  10.953  20.473  0.00  0.00    +0.000 A 
ATOM     15  C   UNL     1      -1.631  11.852  21.091  0.00  0.00    +0.000 A 
ATOM     16  C   UNL     1      -1.847  11.778  22.461  0.00  0.00    +0.000 A 
ATOM     17  C   UNL     1      -1.188  10.804  23.211  0.00  0.00    +0.000 A 
ATOM     18  C   UNL     1      -0.311   9.899  22.593  0.00  0.00    +0.000 A 
ENDBRANCH   8  13
BRANCH   1  19
ATOM     19  C   UNL     1       3.524   3.971  19.016  0.00  0.00    +0.000 C 
BRANCH  19  20
ATOM     20  C   UNL     1       5.024   4.057  18.661  0.00  0.00    +0.000 C 
ATOM     21  O   UNL     1       5.921   4.097  19.503  0.00  0.00    +0.000 OA
ATOM     22  N   UNL     1       5.308   4.173  17.317  0.00  0.00    +0.000 N 
ATOM     23  H   UNL     1       4.566   4.108  16.623  0.00  0.00    +0.000 HD
BRANCH  22  24
ATOM     24  C   UNL     1       6.679   4.241  16.870  0.00  0.00    +0.000 C 
BRANCH  24  25
ATOM     25  C   UNL     1       6.724   4.319  15.392  0.00  0.00    +0.000 A 
ATOM     26  C   UNL     1       6.024   3.687  14.386  0.00  0.00    +0.000 A 
ATOM     27  C   UNL     1       6.525   4.201  13.166  0.00  0.00    +0.000 A 
ATOM     28  C   UNL     1       7.495   5.114  13.504  0.00  0.00    +0.000 A 
ATOM     29  O   UNL     1       7.621   5.196  14.852  0.00  0.00    +0.000 OA
ENDBRANCH  24  25
ENDBRANCH  22  24
ENDBRANCH  19  20
BRANCH  19  31
ATOM     30  C   UNL     1       1.556   2.342  18.444  0.00  0.00    +0.000 C 
ATOM     31  C   UNL     1       2.706   3.202  17.941  0.00  0.00    +0.000 C 
ENDBRANCH  19  31
ENDBRANCH   1  19
TORSDOF 6
ENDMDL
MODEL 3
REMARK VINA RESULT:      -7.9      2.012      4.596
REMARK  Name = 
REMARK  9 active torsions:
REMARK  status: ('A' for Active; 'I' for Inactive)
REMARK    1  A    between atoms: C_1  and  C_2
REMARK    2  A    between atoms: C_2  and  C_3
REMARK    3  A    between atoms: C_3  and  C_4
REMARK    4  A    between atoms: C_3  and  N_13
REMARK    5  A    between atoms: N_6  and  C_7
REMARK    6  A    between atoms: C_7  and  C_8
REMARK    7  A    between atoms: C_15  and  C_16
REMARK    8  A    between atoms: C_18  and  C_19
REMARK    9  A    between atoms: N_20  and  C_21
REMARK                            x       y       z     vdW  Elec       q    Type
REMARK                         _______ _______ _______ _____ _____    ______ ____
ROOT
ATOM      1  N   UNL     1       3.857   6.323  17.842  0.00  0.00    +0.000 N 
ATOM      2  N   UNL     1       3.242   5.939  19.030  0.00  0.00    +0.000 NA
ATOM      3  C   UNL     1       2.410   6.705  19.662  0.00  0.00    +0.000 A 
ATOM      4  C   UNL     1       1.826   6.181  20.938  0.00  0.00    +0.000 C 
ATOM      5  C   UNL     1       2.094   7.996  19.118  0.00  0.00    +0.000 A 
ATOM      6  C   UNL     1       1.260   9.014  19.534  0.00  0.00    +0.000 A 
ATOM      7  C   UNL     1       0.306   9.058  20.675  0.00  0.00    +0.000 C 
ATOM      8  N   UNL     1       1.420  10.040  18.595  0.00  0.00    +0.000 N 
ATOM      9  N   UNL     1       2.177   9.618  17.533  0.00  0.00    +0.000 NA
ATOM     10  C   UNL     1       2.639   8.407  17.892  0.00  0.00    +0.000 A 
ATOM     11  C   UNL     1       3.569   7.529  17.157  0.00  0.00    +0.000 A 
ATOM     12  O   UNL     1       4.046   7.790  16.053  0.00  0.00    +0.000 OA
ENDROOT
BRANCH   8  13
ATOM     13  C   UNL     1       0.915  11.381  18.642  0.00  0.00    +0.000 A 
ATOM     14  C   UNL     1      -0.461  11.656  18.572  0.00  0.00    +0.000 A 
ATOM     15  C   UNL     1      -0.942  12.968  18.620  0.00  0.00    +0.000 A 
ATOM     16  C   UNL     1      -0.054  14.027  18.750  0.00  0.00    +0.000 A 
ATOM     17  C   UNL     1       1.315  13.773  18.834  0.00  0.00    +0.000 A 
ATOM     18  C   UNL     1       1.800  12.458  18.789  0.00  0.00    +0.000 A 
ENDBRANCH   8  13
BRANCH   1  19
ATOM     19  C   UNL     1       4.819   5.317  17.305  0.00  0.00    +0.000 C 
BRANCH  19  20
ATOM     20  C   UNL     1       4.642   3.999  18.089  0.00  0.00    +0.000 C 
ATOM     21  O   UNL     1       5.477   3.562  18.881  0.00  0.00    +0.000 OA
ATOM     22  N   UNL     1       3.508   3.277  17.785  0.00  0.00    +0.000 N 
ATOM     23  H   UNL     1       2.806   3.656  17.154  0.00  0.00    +0.000 HD
BRANCH  22  24
ATOM     24  C   UNL     1       3.232   2.037  18.473  0.00  0.00    +0.000 C 
BRANCH  24  25
ATOM     25  C   UNL     1       2.500   2.310  19.730  0.00  0.00    +0.000 A 
ATOM     26  C   UNL     1       1.169   2.518  20.028  0.00  0.00    +0.000 A 
ATOM     27  C   UNL     1       1.099   2.718  21.427  0.00  0.00    +0.000 A 
ATOM     28  C   UNL     1       2.388   2.618  21.894  0.00  0.00    +0.000 A 
ATOM     29  O   UNL     1       3.245   2.366  20.873  0.00  0.00    +0.000 OA
ENDBRANCH  24  25
ENDBRANCH  22  24
ENDBRANCH  19  20
BRANCH  19  31
ATOM     30  C   UNL     1       7.227   5.438  16.287  0.00  0.00    +0.000 C 
ATOM     31  C   UNL     1       6.271   5.864  17.390  0.00  0.00    +0.000 C 
ENDBRANCH  19  31
ENDBRANCH   1  19
TORSDOF 6
ENDMDL
MODEL 4
REMARK VINA RESULT:      -7.8      0.681      1.118
REMARK  Name = 
REMARK  9 active torsions:
REMARK  status: ('A' for Active; 'I' for Inactive)
REMARK    1  A    between atoms: C_1  and  C_2
REMARK    2  A    between atoms: C_2  and  C_3
REMARK    3  A    between atoms: C_3  and  C_4
REMARK    4  A    between atoms: C_3  and  N_13
REMARK    5  A    between atoms: N_6  and  C_7
REMARK    6  A    between atoms: C_7  and  C_8
REMARK    7  A    between atoms: C_15  and  C_16
REMARK    8  A    between atoms: C_18  and  C_19
REMARK    9  A    between atoms: N_20  and  C_21
REMARK                            x       y       z     vdW  Elec       q    Type
REMARK                         _______ _______ _______ _____ _____    ______ ____
ROOT
ATOM      1  N   UNL     1       2.720   5.257  19.169  0.00  0.00    +0.000 N 
ATOM      2  N   UNL     1       3.105   6.123  18.149  0.00  0.00    +0.000 NA
ATOM      3  C   UNL     1       2.767   7.373  18.133  0.00  0.00    +0.000 A 
ATOM      4  C   UNL     1       3.233   8.197  16.972  0.00  0.00    +0.000 C 
ATOM      5  C   UNL     1       1.977   7.900  19.211  0.00  0.00    +0.000 A 
ATOM      6  C   UNL     1       1.478   9.157  19.485  0.00  0.00    +0.000 A 
ATOM      7  C   UNL     1       1.695  10.444  18.771  0.00  0.00    +0.000 C 
ATOM      8  N   UNL     1       0.745   9.021  20.670  0.00  0.00    +0.000 N 
ATOM      9  N   UNL     1       0.927   7.779  21.219  0.00  0.00    +0.000 NA
ATOM     10  C   UNL     1       1.614   7.085  20.294  0.00  0.00    +0.000 A 
ATOM     11  C   UNL     1       2.015   5.665  20.328  0.00  0.00    +0.000 A 
ATOM     12  O   UNL     1       1.786   4.900  21.264  0.00  0.00    +0.000 OA
ENDROOT
BRANCH   8  13
ATOM     13  C   UNL     1      -0.114   9.979  21.303  0.00  0.00    +0.000 A 
ATOM     14  C   UNL     1      -0.400   9.921  22.677  0.00  0.00    +0.000 A 
ATOM     15  C   UNL     1      -1.240  10.861  23.283  0.00  0.00    +0.000 A 
ATOM     16  C   UNL     1      -1.797  11.883  22.525  0.00  0.00    +0.000 A 
ATOM     17  C   UNL     1      -1.515  11.963  21.162  0.00  0.00    +0.000 A 
ATOM     18  C   UNL     1      -0.671  11.023  20.552  0.00  0.00    +0.000 A 
ENDBRANCH   8  13
BRANCH   1  19
ATOM     19  C   UNL     1       3.168   3.848  18.970  0.00  0.00    +0.000 C 
BRANCH  19  20
ATOM     20  C   UNL     1       4.549   3.864  18.281  0.00  0.00    +0.000 C 
ATOM     21  O   UNL     1       4.772   3.335  17.192  0.00  0.00    +0.000 OA
ATOM     22  N   UNL     1       5.567   4.445  19.007  0.00  0.00    +0.000 N 
ATOM     23  H   UNL     1       5.372   4.908  19.892  0.00  0.00    +0.000 HD
BRANCH  22  24
ATOM     24  C   UNL     1       6.897   4.531  18.451  0.00  0.00    +0.000 C 
BRANCH  24  25
ATOM     25  C   UNL     1       7.244   5.947  18.190  0.00  0.00    +0.000 A 
ATOM     26  C   UNL     1       8.193   6.803  18.709  0.00  0.00    +0.000 A 
ATOM     27  C   UNL     1       8.027   8.038  18.038  0.00  0.00    +0.000 A 
ATOM     28  C   UNL     1       6.991   7.857  17.152  0.00  0.00    +0.000 A 
ATOM     29  O   UNL     1       6.512   6.590  17.234  0.00  0.00    +0.000 OA
ENDBRANCH  24  25
ENDBRANCH  22  24
ENDBRANCH  19  20
BRANCH  19  31
ATOM     30  C   UNL     1       0.969   2.429  18.937  0.00  0.00    +0.000 C 
ATOM     31  C   UNL     1       2.109   3.059  18.151  0.00  0.00    +0.000 C 
ENDBRANCH  19  31
ENDBRANCH   1  19
TORSDOF 6
ENDMDL
MODEL 5
REMARK VINA RESULT:      -7.7      2.117      4.606
REMARK  Name = 
REMARK  9 active torsions:
REMARK  status: ('A' for Active; 'I' for Inactive)
REMARK    1  A    between atoms: C_1  and  C_2
REMARK    2  A    between atoms: C_2  and  C_3
REMARK    3  A    between atoms: C_3  and  C_4
REMARK    4  A    between atoms: C_3  and  N_13
REMARK    5  A    between atoms: N_6  and  C_7
REMARK    6  A    between atoms: C_7  and  C_8
REMARK    7  A    between atoms: C_15  and  C_16
REMARK    8  A    between atoms: C_18  and  C_19
REMARK    9  A    between atoms: N_20  and  C_21
REMARK                            x       y       z     vdW  Elec       q    Type
REMARK                         _______ _______ _______ _____ _____    ______ ____
ROOT
ATOM      1  N   UNL     1       3.916   6.276  17.850  0.00  0.00    +0.000 N 
ATOM      2  N   UNL     1       3.280   5.891  19.027  0.00  0.00    +0.000 NA
ATOM      3  C   UNL     1       2.440   6.660  19.646  0.00  0.00    +0.000 A 
ATOM      4  C   UNL     1       1.833   6.136  20.911  0.00  0.00    +0.000 C 
ATOM      5  C   UNL     1       2.138   7.953  19.099  0.00  0.00    +0.000 A 
ATOM      6  C   UNL     1       1.301   8.974  19.504  0.00  0.00    +0.000 A 
ATOM      7  C   UNL     1       0.328   9.018  20.628  0.00  0.00    +0.000 C 
ATOM      8  N   UNL     1       1.481  10.000  18.569  0.00  0.00    +0.000 N 
ATOM      9  N   UNL     1       2.253   9.577  17.519  0.00  0.00    +0.000 NA
ATOM     10  C   UNL     1       2.705   8.364  17.884  0.00  0.00    +0.000 A 
ATOM     11  C   UNL     1       3.644   7.484  17.162  0.00  0.00    +0.000 A 
ATOM     12  O   UNL     1       4.141   7.745  16.067  0.00  0.00    +0.000 OA
ENDROOT
BRANCH   8  13
ATOM     13  C   UNL     1       0.979  11.344  18.610  0.00  0.00    +0.000 A 
ATOM     14  C   UNL     1       1.838  12.450  18.704  0.00  0.00    +0.000 A 
ATOM     15  C   UNL     1       1.338  13.755  18.744  0.00  0.00    +0.000 A 
ATOM     16  C   UNL     1      -0.032  13.975  18.679  0.00  0.00    +0.000 A 
ATOM     17  C   UNL     1      -0.899  12.888  18.574  0.00  0.00    +0.000 A 
ATOM     18  C   UNL     1      -0.400  11.578  18.531  0.00  0.00    +0.000 A 
ENDBRANCH   8  13
BRANCH   1  19
ATOM     19  C   UNL     1       4.883   5.267  17.327  0.00  0.00    +0.000 C 
BRANCH  19  20
ATOM     20  C   UNL     1       4.471   3.873  17.847  0.00  0.00    +0.000 C 
ATOM     21  O   UNL     1       3.905   3.028  17.154  0.00  0.00    +0.000 OA
ATOM     22  N   UNL     1       4.702   3.650  19.188  0.00  0.00    +0.000 N 
ATOM     23  H   UNL     1       5.198   4.338  19.750  0.00  0.00    +0.000 HD
BRANCH  22  24
ATOM     24  C   UNL     1       4.373   2.373  19.777  0.00  0.00    +0.000 C 
BRANCH  24  25
ATOM     25  C   UNL     1       3.050   2.448  20.437  0.00  0.00    +0.000 A 
ATOM     26  C   UNL     1       2.648   2.503  21.756  0.00  0.00    +0.000 A 
ATOM     27  C   UNL     1       1.234   2.574  21.740  0.00  0.00    +0.000 A 
ATOM     28  C   UNL     1       0.864   2.562  20.416  0.00  0.00    +0.000 A 
ATOM     29  O   UNL     1       1.959   2.490  19.617  0.00  0.00    +0.000 OA
ENDBRANCH  24  25
ENDBRANCH  22  24
ENDBRANCH  19  20
BRANCH  19  31
ATOM     30  C   UNL     1       7.442   4.721  17.271  0.00  0.00    +0.000 C 
ATOM     31  C   UNL     1       6.331   5.647  17.743  0.00  0.00    +0.000 C 
ENDBRANCH  19  31
ENDBRANCH   1  19
TORSDOF 6
ENDMDL
MODEL 6
REMARK VINA RESULT:      -7.5      3.429      8.460
REMARK  Name = 
REMARK  9 active torsions:
REMARK  status: ('A' for Active; 'I' for Inactive)
REMARK    1  A    between atoms: C_1  and  C_2
REMARK    2  A    between atoms: C_2  and  C_3
REMARK    3  A    between atoms: C_3  and  C_4
REMARK    4  A    between atoms: C_3  and  N_13
REMARK    5  A    between atoms: N_6  and  C_7
REMARK    6  A    between atoms: C_7  and  C_8
REMARK    7  A    between atoms: C_15  and  C_16
REMARK    8  A    between atoms: C_18  and  C_19
REMARK    9  A    between atoms: N_20  and  C_21
REMARK                            x       y       z     vdW  Elec       q    Type
REMARK                         _______ _______ _______ _____ _____    ______ ____
ROOT
ATOM      1  N   UNL     1       0.269  10.716  21.029  0.00  0.00    +0.000 N 
ATOM      2  N   UNL     1       0.877  11.009  19.812  0.00  0.00    +0.000 NA
ATOM      3  C   UNL     1       1.527  10.121  19.129  0.00  0.00    +0.000 A 
ATOM      4  C   UNL     1       2.148  10.564  17.839  0.00  0.00    +0.000 C 
ATOM      5  C   UNL     1       1.620   8.778  19.631  0.00  0.00    +0.000 A 
ATOM      6  C   UNL     1       2.217   7.632  19.147  0.00  0.00    +0.000 A 
ATOM      7  C   UNL     1       2.895   7.388  17.846  0.00  0.00    +0.000 C 
ATOM      8  N   UNL     1       1.994   6.652  20.122  0.00  0.00    +0.000 N 
ATOM      9  N   UNL     1       1.137   7.109  21.089  0.00  0.00    +0.000 NA
ATOM     10  C   UNL     1       0.974   8.417  20.823  0.00  0.00    +0.000 A 
ATOM     11  C   UNL     1       0.213   9.418  21.594  0.00  0.00    +0.000 A 
ATOM     12  O   UNL     1      -0.426   9.170  22.616  0.00  0.00    +0.000 OA
ENDROOT
BRANCH   8  13
ATOM     13  C   UNL     1       2.542   5.329  20.199  0.00  0.00    +0.000 A 
ATOM     14  C   UNL     1       3.725   4.979  19.528  0.00  0.00    +0.000 A 
ATOM     15  C   UNL     1       4.250   3.685  19.611  0.00  0.00    +0.000 A 
ATOM     16  C   UNL     1       3.605   2.723  20.377  0.00  0.00    +0.000 A 
ATOM     17  C   UNL     1       2.436   3.056  21.060  0.00  0.00    +0.000 A 
ATOM     18  C   UNL     1       1.908   4.353  20.981  0.00  0.00    +0.000 A 
ENDBRANCH   8  13
BRANCH   1  19
ATOM     19  C   UNL     1      -0.383  11.891  21.679  0.00  0.00    +0.000 C 
BRANCH  19  20
ATOM     20  C   UNL     1      -1.794  12.064  21.078  0.00  0.00    +0.000 C 
ATOM     21  O   UNL     1      -2.788  12.349  21.747  0.00  0.00    +0.000 OA
ATOM     22  N   UNL     1      -1.901  11.796  19.730  0.00  0.00    +0.000 N 
ATOM     23  H   UNL     1      -1.073  11.592  19.175  0.00  0.00    +0.000 HD
BRANCH  22  24
ATOM     24  C   UNL     1      -3.172  11.945  19.060  0.00  0.00    +0.000 C 
BRANCH  24  25
ATOM     25  C   UNL     1      -3.146  11.230  17.764  0.00  0.00    +0.000 A 
ATOM     26  C   UNL     1      -2.365  10.212  17.257  0.00  0.00    +0.000 A 
ATOM     27  C   UNL     1      -2.842   9.957  15.949  0.00  0.00    +0.000 A 
ATOM     28  C   UNL     1      -3.883  10.831  15.742  0.00  0.00    +0.000 A 
ATOM     29  O   UNL     1      -4.078  11.605  16.840  0.00  0.00    +0.000 OA
ENDBRANCH  24  25
ENDBRANCH  22  24
ENDBRANCH  19  20
BRANCH  19  31
ATOM     30  C   UNL     1       0.063  14.404  22.260  0.00  0.00    +0.000 C 
ATOM     31  C   UNL     1       0.495  13.160  21.497  0.00  0.00    +0.000 C 
ENDBRANCH  19  31
ENDBRANCH   1  19
TORSDOF 6
ENDMDL
MODEL 7
REMARK VINA RESULT:      -7.5      2.797      9.063
REMARK  Name = 
REMARK  9 active torsions:
REMARK  status: ('A' for Active; 'I' for Inactive)
REMARK    1  A    between atoms: C_1  and  C_2
REMARK    2  A    between atoms: C_2  and  C_3
REMARK    3  A    between atoms: C_3  and  C_4
REMARK    4  A    between atoms: C_3  and  N_13
REMARK    5  A    between atoms: N_6  and  C_7
REMARK    6  A    between atoms: C_7  and  C_8
REMARK    7  A    between atoms: C_15  and  C_16
REMARK    8  A    between atoms: C_18  and  C_19
REMARK    9  A    between atoms: N_20  and  C_21
REMARK                            x       y       z     vdW  Elec       q    Type
REMARK                         _______ _______ _______ _____ _____    ______ ____
ROOT
ATOM      1  N   UNL     1       1.126   9.441  19.113  0.00  0.00    +0.000 N 
ATOM      2  N   UNL     1       0.983   8.442  20.073  0.00  0.00    +0.000 NA
ATOM      3  C   UNL     1       1.681   7.352  20.050  0.00  0.00    +0.000 A 
ATOM      4  C   UNL     1       1.423   6.348  21.131  0.00  0.00    +0.000 C 
ATOM      5  C   UNL     1       2.651   7.161  19.007  0.00  0.00    +0.000 A 
ATOM      6  C   UNL     1       3.536   6.141  18.721  0.00  0.00    +0.000 A 
ATOM      7  C   UNL     1       3.850   4.908  19.491  0.00  0.00    +0.000 C 
ATOM      8  N   UNL     1       4.184   6.526  17.541  0.00  0.00    +0.000 N 
ATOM      9  N   UNL     1       3.858   7.813  17.201  0.00  0.00    +0.000 NA
ATOM     10  C   UNL     1       2.877   8.163  18.052  0.00  0.00    +0.000 A 
ATOM     11  C   UNL     1       2.101   9.417  18.086  0.00  0.00    +0.000 A 
ATOM     12  O   UNL     1       2.276  10.364  17.321  0.00  0.00    +0.000 OA
ENDROOT
BRANCH   8  13
ATOM     13  C   UNL     1       5.075   5.758  16.720  0.00  0.00    +0.000 A 
ATOM     14  C   UNL     1       6.441   6.068  16.622  0.00  0.00    +0.000 A 
ATOM     15  C   UNL     1       7.300   5.312  15.819  0.00  0.00    +0.000 A 
ATOM     16  C   UNL     1       6.807   4.225  15.109  0.00  0.00    +0.000 A 
ATOM     17  C   UNL     1       5.456   3.895  15.203  0.00  0.00    +0.000 A 
ATOM     18  C   UNL     1       4.592   4.651  16.010  0.00  0.00    +0.000 A 
ENDBRANCH   8  13
BRANCH   1  19
ATOM     19  C   UNL     1       0.191  10.590  19.291  0.00  0.00    +0.000 C 
BRANCH  19  20
ATOM     20  C   UNL     1       0.251  11.051  20.764  0.00  0.00    +0.000 C 
ATOM     21  O   UNL     1       1.251  11.550  21.280  0.00  0.00    +0.000 OA
ATOM     22  N   UNL     1      -0.877  10.790  21.512  0.00  0.00    +0.000 N 
ATOM     23  H   UNL     1      -1.711  10.407  21.074  0.00  0.00    +0.000 HD
BRANCH  22  24
ATOM     24  C   UNL     1      -0.937  11.196  22.897  0.00  0.00    +0.000 C 
BRANCH  24  25
ATOM     25  C   UNL     1      -2.027  12.180  23.087  0.00  0.00    +0.000 A 
ATOM     26  C   UNL     1      -2.177  13.508  22.744  0.00  0.00    +0.000 A 
ATOM     27  C   UNL     1      -3.462  13.894  23.196  0.00  0.00    +0.000 A 
ATOM     28  C   UNL     1      -4.014  12.780  23.782  0.00  0.00    +0.000 A 
ATOM     29  O   UNL     1      -3.152  11.733  23.718  0.00  0.00    +0.000 OA
ENDBRANCH  24  25
ENDBRANCH  22  24
ENDBRANCH  19  20
BRANCH  19  31
ATOM     30  C   UNL     1      -1.507  10.093  17.362  0.00  0.00    +0.000 C 
ATOM     31  C   UNL     1      -1.245  10.185  18.859  0.00  0.00    +0.000 C 
ENDBRANCH  19  31
ENDBRANCH   1  19
TORSDOF 6
ENDMDL
MODEL 8
REMARK VINA RESULT:      -7.5      3.666      9.445
REMARK  Name = 
REMARK  9 active torsions:
REMARK  status: ('A' for Active; 'I' for Inactive)
REMARK    1  A    between atoms: C_1  and  C_2
REMARK    2  A    between atoms: C_2  and  C_3
REMARK    3  A    between atoms: C_3  and  C_4
REMARK    4  A    between atoms: C_3  and  N_13
REMARK    5  A    between atoms: N_6  and  C_7
REMARK    6  A    between atoms: C_7  and  C_8
REMARK    7  A    between atoms: C_15  and  C_16
REMARK    8  A    between atoms: C_18  and  C_19
REMARK    9  A    between atoms: N_20  and  C_21
REMARK                            x       y       z     vdW  Elec       q    Type
REMARK                         _______ _______ _______ _____ _____    ______ ____
ROOT
ATOM      1  N   UNL     1      -0.619  11.657  22.098  0.00  0.00    +0.000 N 
ATOM      2  N   UNL     1      -0.388  12.264  20.867  0.00  0.00    +0.000 NA
ATOM      3  C   UNL     1       0.205  11.651  19.891  0.00  0.00    +0.000 A 
ATOM      4  C   UNL     1       0.407  12.418  18.620  0.00  0.00    +0.000 C 
ATOM      5  C   UNL     1       0.631  10.291  20.072  0.00  0.00    +0.000 A 
ATOM      6  C   UNL     1       1.262   9.386  19.243  0.00  0.00    +0.000 A 
ATOM      7  C   UNL     1       1.625   9.502  17.806  0.00  0.00    +0.000 C 
ATOM      8  N   UNL     1       1.447   8.233  20.018  0.00  0.00    +0.000 N 
ATOM      9  N   UNL     1       0.796   8.341  21.218  0.00  0.00    +0.000 NA
ATOM     10  C   UNL     1       0.367   9.615  21.272  0.00  0.00    +0.000 A 
ATOM     11  C   UNL     1      -0.328  10.300  22.379  0.00  0.00    +0.000 A 
ATOM     12  O   UNL     1      -0.645   9.762  23.439  0.00  0.00    +0.000 OA
ENDROOT
BRANCH   8  13
ATOM     13  C   UNL     1       2.199   7.055  19.699  0.00  0.00    +0.000 A 
ATOM     14  C   UNL     1       2.053   5.865  20.429  0.00  0.00    +0.000 A 
ATOM     15  C   UNL     1       2.792   4.722  20.109  0.00  0.00    +0.000 A 
ATOM     16  C   UNL     1       3.682   4.748  19.043  0.00  0.00    +0.000 A 
ATOM     17  C   UNL     1       3.831   5.917  18.299  0.00  0.00    +0.000 A 
ATOM     18  C   UNL     1       3.089   7.065  18.616  0.00  0.00    +0.000 A 
ENDBRANCH   8  13
BRANCH   1  19
ATOM     19  C   UNL     1      -1.267  12.552  23.102  0.00  0.00    +0.000 C 
BRANCH  19  20
ATOM     20  C   UNL     1      -2.799  12.441  22.944  0.00  0.00    +0.000 C 
ATOM     21  O   UNL     1      -3.528  11.880  23.761  0.00  0.00    +0.000 OA
ATOM     22  N   UNL     1      -3.310  12.945  21.767  0.00  0.00    +0.000 N 
ATOM     23  H   UNL     1      -2.709  13.436  21.109  0.00  0.00    +0.000 HD
BRANCH  22  24
ATOM     24  C   UNL     1      -4.733  12.912  21.523  0.00  0.00    +0.000 C 
BRANCH  24  25
ATOM     25  C   UNL     1      -5.005  12.276  20.213  0.00  0.00    +0.000 A 
ATOM     26  C   UNL     1      -6.133  11.726  19.641  0.00  0.00    +0.000 A 
ATOM     27  C   UNL     1      -5.753  11.288  18.350  0.00  0.00    +0.000 A 
ATOM     28  C   UNL     1      -4.421  11.600  18.215  0.00  0.00    +0.000 A 
ATOM     29  O   UNL     1      -3.959  12.205  19.339  0.00  0.00    +0.000 OA
ENDBRANCH  24  25
ENDBRANCH  22  24
ENDBRANCH  19  20
BRANCH  19  31
ATOM     30  C   UNL     1      -1.207  15.019  23.974  0.00  0.00    +0.000 C 
ATOM     31  C   UNL     1      -0.760  14.010  22.927  0.00  0.00    +0.000 C 
ENDBRANCH  19  31
ENDBRANCH   1  19
TORSDOF 6
ENDMDL
MODEL 9
REMARK VINA RESULT:      -7.5      0.596      1.169
REMARK  Name = 
REMARK  9 active torsions:
REMARK  status: ('A' for Active; 'I' for Inactive)
REMARK    1  A    between atoms: C_1  and  C_2
REMARK    2  A    between atoms: C_2  and  C_3
REMARK    3  A    between atoms: C_3  and  C_4
REMARK    4  A    between atoms: C_3  and  N_13
REMARK    5  A    between atoms: N_6  and  C_7
REMARK    6  A    between atoms: C_7  and  C_8
REMARK    7  A    between atoms: C_15  and  C_16
REMARK    8  A    between atoms: C_18  and  C_19
REMARK    9  A    between atoms: N_20  and  C_21
REMARK                            x       y       z     vdW  Elec       q    Type
REMARK                         _______ _______ _______ _____ _____    ______ ____
ROOT
ATOM      1  N   UNL     1       2.786   5.374  19.256  0.00  0.00    +0.000 N 
ATOM      2  N   UNL     1       3.163   6.232  18.227  0.00  0.00    +0.000 NA
ATOM      3  C   UNL     1       2.795   7.474  18.188  0.00  0.00    +0.000 A 
ATOM      4  C   UNL     1       3.256   8.291  17.020  0.00  0.00    +0.000 C 
ATOM      5  C   UNL     1       1.980   7.998  19.248  0.00  0.00    +0.000 A 
ATOM      6  C   UNL     1       1.447   9.247  19.496  0.00  0.00    +0.000 A 
ATOM      7  C   UNL     1       1.642  10.527  18.764  0.00  0.00    +0.000 C 
ATOM      8  N   UNL     1       0.702   9.111  20.674  0.00  0.00    +0.000 N 
ATOM      9  N   UNL     1       0.908   7.883  21.244  0.00  0.00    +0.000 NA
ATOM     10  C   UNL     1       1.623   7.191  20.339  0.00  0.00    +0.000 A 
ATOM     11  C   UNL     1       2.057   5.782  20.400  0.00  0.00    +0.000 A 
ATOM     12  O   UNL     1       1.835   5.026  21.345  0.00  0.00    +0.000 OA
ENDROOT
BRANCH   8  13
ATOM     13  C   UNL     1      -0.187  10.058  21.282  0.00  0.00    +0.000 A 
ATOM     14  C   UNL     1      -0.450  10.046  22.661  0.00  0.00    +0.000 A 
ATOM     15  C   UNL     1      -1.319  10.974  23.242  0.00  0.00    +0.000 A 
ATOM     16  C   UNL     1      -1.932  11.938  22.453  0.00  0.00    +0.000 A 
ATOM     17  C   UNL     1      -1.673  11.974  21.083  0.00  0.00    +0.000 A 
ATOM     18  C   UNL     1      -0.800  11.045  20.497  0.00  0.00    +0.000 A 
ENDBRANCH   8  13
BRANCH   1  19
ATOM     19  C   UNL     1       3.270   3.973  19.085  0.00  0.00    +0.000 C 
BRANCH  19  20
ATOM     20  C   UNL     1       4.791   4.007  18.819  0.00  0.00    +0.000 C 
ATOM     21  O   UNL     1       5.637   3.748  19.674  0.00  0.00    +0.000 OA
ATOM     22  N   UNL     1       5.163   4.435  17.562  0.00  0.00    +0.000 N 
ATOM     23  H   UNL     1       4.461   4.618  16.849  0.00  0.00    +0.000 HD
BRANCH  22  24
ATOM     24  C   UNL     1       6.559   4.487  17.198  0.00  0.00    +0.000 C 
BRANCH  24  25
ATOM     25  C   UNL     1       7.102   5.837  17.474  0.00  0.00    +0.000 A 
ATOM     26  C   UNL     1       6.975   7.058  16.844  0.00  0.00    +0.000 A 
ATOM     27  C   UNL     1       7.734   7.980  17.604  0.00  0.00    +0.000 A 
ATOM     28  C   UNL     1       8.273   7.266  18.648  0.00  0.00    +0.000 A 
ATOM     29  O   UNL     1       7.891   5.965  18.580  0.00  0.00    +0.000 OA
ENDBRANCH  24  25
ENDBRANCH  22  24
ENDBRANCH  19  20
BRANCH  19  31
ATOM     30  C   UNL     1       1.207   3.948  17.474  0.00  0.00    +0.000 C 
ATOM     31  C   UNL     1       2.487   3.271  17.941  0.00  0.00    +0.000 C 
ENDBRANCH  19  31
ENDBRANCH   1  19
TORSDOF 6
ENDMDL
