MODEL 1
REMARK VINA RESULT:      -7.0      0.000      0.000
REMARK  Name = 
REMARK  23 active torsions:
REMARK  status: ('A' for Active; 'I' for Inactive)
REMARK    1  A    between atoms: CG1_1  and  CB_2
REMARK    2  A    between atoms: CB_2  and  CG2_3
REMARK    3  A    between atoms: CB_2  and  CA_4
REMARK    4  A    between atoms: CA_4  and  N_5
REMARK    5  A    between atoms: CA_4  and  C_31
REMARK    6  A    between atoms: C_6  and  CA_8
REMARK    7  A    between atoms: CA_8  and  CB_9
REMARK    8  A    between atoms: CA_8  and  N_13
REMARK    9  A    between atoms: CB_9  and  CG_10
REMARK   10  A    between atoms: CG_10  and  OD2_12
REMARK   11  A    between atoms: C_14  and  C_16
REMARK   12  A    between atoms: C_16  and  N_17
REMARK   13  A    between atoms: C_16  and  C_27
REMARK   14  A    between atoms: C_18  and  CA_20
REMARK   15  A    between atoms: CA_20  and  N_21
REMARK   16  A    between atoms: CA_20  and  CB_22
REMARK   17  A    between atoms: CB_22  and  CG_23
REMARK   18  A    between atoms: CG_23  and  CD_24
REMARK   19  A    between atoms: CD_24  and  OE2_26
REMARK   20  A    between atoms: C_27  and  C_28
REMARK   21  A    between atoms: C_27  and  C_29
REMARK   22  A    between atoms: C_29  and  O_30
REMARK   23  A    between atoms: C_31  and  OXT_33
REMARK                            x       y       z     vdW  Elec       q    Type
REMARK                         _______ _______ _______ _____ _____    ______ ____
ROOT
ATOM      1  N   ASP A   3       2.291   6.821  19.902  0.00  0.00    +0.000 N 
ATOM      2  C   UNK A   2       2.050   5.490  20.186  0.00  0.00    +0.000 C 
ATOM      3  O   UNK A   2       1.031   5.111  20.756  0.00  0.00    +0.000 OA
ATOM      4  H   ASP A   3       3.212   7.065  19.552  0.00  0.00    +0.000 HD
ENDROOT
BRANCH   2   5
ATOM      5  C   UNK A   2       3.075   4.519  19.547  0.00  0.00    +0.000 C 
BRANCH   5   6
ATOM      6  N   UNK A   2       4.286   5.276  19.220  0.00  0.00    +0.000 N 
ATOM      7  C   GLU A   1       5.502   4.616  19.194  0.00  0.00    +0.000 C 
ATOM      8  O   GLU A   1       5.603   3.409  19.418  0.00  0.00    +0.000 OA
ATOM      9  H   UNK A   2       4.292   6.267  19.439  0.00  0.00    +0.000 HD
BRANCH   7  10
ATOM     10  CA  GLU A   1       6.744   5.499  18.966  0.00  0.00    +0.000 C 
BRANCH  10  11
ATOM     11  N   GLU A   1       7.595   5.518  20.176  0.00  0.00    +0.000 NA
ATOM     12  H1  GLU A   1       7.506   6.397  20.671  0.00  0.00    +0.000 HD
ATOM     13  H2  GLU A   1       8.570   5.437  19.892  0.00  0.00    +0.000 HD
ENDBRANCH  10  11
BRANCH  10  14
ATOM     14  CB  GLU A   1       7.551   5.006  17.754  0.00  0.00    +0.000 C 
BRANCH  14  15
ATOM     15  CG  GLU A   1       6.682   4.452  16.612  0.00  0.00    +0.000 C 
BRANCH  15  16
ATOM     16  CD  GLU A   1       6.591   5.428  15.466  0.00  0.00    +0.000 C 
ATOM     17  OE1 GLU A   1       5.657   6.181  15.259  0.00  0.00    +0.000 OA
BRANCH  16  18
ATOM     18  OE2 GLU A   1       7.654   5.404  14.638  0.00  0.00    +0.000 OA
ATOM     19  HE2 GLU A   1       8.146   4.546  14.563  0.00  0.00    +0.000 HD
ENDBRANCH  16  18
ENDBRANCH  15  16
ENDBRANCH  14  15
ENDBRANCH  10  14
ENDBRANCH   7  10
ENDBRANCH   5   6
BRANCH   5  20
ATOM     20  C   UNK A   2       2.545   3.693  18.354  0.00  0.00    +0.000 C 
ATOM     21  C   UNK A   2       1.358   4.285  17.593  0.00  0.00    +0.000 C 
BRANCH  20  22
ATOM     22  C   UNK A   2       2.211   2.264  18.798  0.00  0.00    +0.000 C 
BRANCH  22  23
ATOM     23  O   UNK A   2       3.273   1.381  18.468  0.00  0.00    +0.000 OA
ATOM     24  H   UNK A   2       4.098   1.744  18.836  0.00  0.00    +0.000 HD
ENDBRANCH  22  23
ENDBRANCH  20  22
ENDBRANCH   5  20
ENDBRANCH   2   5
BRANCH   1  25
ATOM     25  CA  ASP A   3       1.419   7.911  20.347  0.00  0.00    +0.000 C 
BRANCH  25  27
ATOM     26  N   VAL A   4       0.849  10.261  19.863  0.00  0.00    +0.000 N 
ATOM     27  C   ASP A   3       1.491   9.135  19.416  0.00  0.00    +0.000 C 
ATOM     28  O   ASP A   3       2.106   9.100  18.348  0.00  0.00    +0.000 OA
ATOM     29  H   VAL A   4       0.473  10.262  20.809  0.00  0.00    +0.000 HD
BRANCH  26  30
ATOM     30  CA  VAL A   4       0.883  11.514  19.101  0.00  0.00    +0.000 C 
BRANCH  30  32
ATOM     31  CG1 VAL A   4      -1.329  10.951  18.034  0.00  0.00    +0.000 C 
ATOM     32  CB  VAL A   4      -0.565  11.997  18.864  0.00  0.00    +0.000 C 
ATOM     33  CG2 VAL A   4      -0.674  13.346  18.150  0.00  0.00    +0.000 C 
ENDBRANCH  30  32
BRANCH  30  34
ATOM     34  C   VAL A   4       1.793  12.482  19.890  0.00  0.00    +0.000 C 
ATOM     35  O   VAL A   4       2.640  13.210  19.376  0.00  0.00    +0.000 OA
BRANCH  34  36
ATOM     36  OXT VAL A   4       1.560  12.513  21.225  0.00  0.00    +0.000 OA
ATOM     37  HXT VAL A   4       2.306  12.216  21.778  0.00  0.00    +0.000 HD
ENDBRANCH  34  36
ENDBRANCH  30  34
ENDBRANCH  26  30
ENDBRANCH  25  27
BRANCH  25  38
ATOM     38  CB  ASP A   3       1.741   8.388  21.762  0.00  0.00    +0.000 C 
BRANCH  38  39
ATOM     39  CG  ASP A   3       0.556   9.103  22.360  0.00  0.00    +0.000 C 
ATOM     40  OD1 ASP A   3       0.639  10.186  22.920  0.00  0.00    +0.000 OA
BRANCH  39  41
ATOM     41  OD2 ASP A   3      -0.630   8.488  22.160  0.00  0.00    +0.000 OA
ATOM     42  HD2 ASP A   3      -1.410   8.980  22.505  0.00  0.00    +0.000 HD
ENDBRANCH  39  41
ENDBRANCH  38  39
ENDBRANCH  25  38
ENDBRANCH   1  25
TORSDOF 20
ENDMDL
MODEL 2
REMARK VINA RESULT:      -7.0      1.402      1.889
REMARK  Name = 
REMARK  23 active torsions:
REMARK  status: ('A' for Active; 'I' for Inactive)
REMARK    1  A    between atoms: CG1_1  and  CB_2
REMARK    2  A    between atoms: CB_2  and  CG2_3
REMARK    3  A    between atoms: CB_2  and  CA_4
REMARK    4  A    between atoms: CA_4  and  N_5
REMARK    5  A    between atoms: CA_4  and  C_31
REMARK    6  A    between atoms: C_6  and  CA_8
REMARK    7  A    between atoms: CA_8  and  CB_9
REMARK    8  A    between atoms: CA_8  and  N_13
REMARK    9  A    between atoms: CB_9  and  CG_10
REMARK   10  A    between atoms: CG_10  and  OD2_12
REMARK   11  A    between atoms: C_14  and  C_16
REMARK   12  A    between atoms: C_16  and  N_17
REMARK   13  A    between atoms: C_16  and  C_27
REMARK   14  A    between atoms: C_18  and  CA_20
REMARK   15  A    between atoms: CA_20  and  N_21
REMARK   16  A    between atoms: CA_20  and  CB_22
REMARK   17  A    between atoms: CB_22  and  CG_23
REMARK   18  A    between atoms: CG_23  and  CD_24
REMARK   19  A    between atoms: CD_24  and  OE2_26
REMARK   20  A    between atoms: C_27  and  C_28
REMARK   21  A    between atoms: C_27  and  C_29
REMARK   22  A    between atoms: C_29  and  O_30
REMARK   23  A    between atoms: C_31  and  OXT_33
REMARK                            x       y       z     vdW  Elec       q    Type
REMARK                         _______ _______ _______ _____ _____    ______ ____
ROOT
ATOM      1  N   ASP A   3       2.180   7.138  19.679  0.00  0.00    +0.000 N 
ATOM      2  C   UNK A   2       2.098   5.848  20.168  0.00  0.00    +0.000 C 
ATOM      3  O   UNK A   2       1.169   5.469  20.875  0.00  0.00    +0.000 OA
ATOM      4  H   ASP A   3       3.042   7.408  19.216  0.00  0.00    +0.000 HD
ENDROOT
BRANCH   2   5
ATOM      5  C   UNK A   2       3.164   4.888  19.581  0.00  0.00    +0.000 C 
BRANCH   5   6
ATOM      6  N   UNK A   2       4.379   5.660  19.307  0.00  0.00    +0.000 N 
ATOM      7  C   GLU A   1       5.592   4.997  19.241  0.00  0.00    +0.000 C 
ATOM      8  O   GLU A   1       5.687   3.778  19.385  0.00  0.00    +0.000 OA
ATOM      9  H   UNK A   2       4.388   6.635  19.590  0.00  0.00    +0.000 HD
BRANCH   7  10
ATOM     10  CA  GLU A   1       6.838   5.888  19.073  0.00  0.00    +0.000 C 
BRANCH  10  11
ATOM     11  N   GLU A   1       7.836   5.584  20.123  0.00  0.00    +0.000 NA
ATOM     12  H1  GLU A   1       8.708   6.067  19.948  0.00  0.00    +0.000 HD
ATOM     13  H2  GLU A   1       8.042   4.586  20.100  0.00  0.00    +0.000 HD
ENDBRANCH  10  11
BRANCH  10  14
ATOM     14  CB  GLU A   1       7.458   5.706  17.679  0.00  0.00    +0.000 C 
BRANCH  14  15
ATOM     15  CG  GLU A   1       6.434   5.752  16.531  0.00  0.00    +0.000 C 
BRANCH  15  16
ATOM     16  CD  GLU A   1       6.493   4.502  15.690  0.00  0.00    +0.000 C 
ATOM     17  OE1 GLU A   1       6.970   4.432  14.573  0.00  0.00    +0.000 OA
BRANCH  16  18
ATOM     18  OE2 GLU A   1       5.947   3.419  16.277  0.00  0.00    +0.000 OA
ATOM     19  HE2 GLU A   1       6.159   2.537  15.878  0.00  0.00    +0.000 HD
ENDBRANCH  16  18
ENDBRANCH  15  16
ENDBRANCH  14  15
ENDBRANCH  10  14
ENDBRANCH   7  10
ENDBRANCH   5   6
BRANCH   5  20
ATOM     20  C   UNK A   2       2.701   4.051  18.368  0.00  0.00    +0.000 C 
ATOM     21  C   UNK A   2       1.497   4.589  17.592  0.00  0.00    +0.000 C 
BRANCH  20  22
ATOM     22  C   UNK A   2       2.435   2.601  18.790  0.00  0.00    +0.000 C 
BRANCH  22  23
ATOM     23  O   UNK A   2       3.435   2.156  19.695  0.00  0.00    +0.000 OA
ATOM     24  H   UNK A   2       4.292   2.173  19.234  0.00  0.00    +0.000 HD
ENDBRANCH  22  23
ENDBRANCH  20  22
ENDBRANCH   5  20
ENDBRANCH   2   5
BRANCH   1  25
ATOM     25  CA  ASP A   3       1.239   8.200  20.044  0.00  0.00    +0.000 C 
BRANCH  25  27
ATOM     26  N   VAL A   4      -0.386   9.593  18.818  0.00  0.00    +0.000 N 
ATOM     27  C   ASP A   3       0.899   9.115  18.853  0.00  0.00    +0.000 C 
ATOM     28  O   ASP A   3       1.742   9.410  18.002  0.00  0.00    +0.000 OA
ATOM     29  H   VAL A   4      -0.991   9.417  19.618  0.00  0.00    +0.000 HD
BRANCH  26  30
ATOM     30  CA  VAL A   4      -0.829  10.518  17.769  0.00  0.00    +0.000 C 
BRANCH  30  32
ATOM     31  CG1 VAL A   4      -2.456  10.815  15.867  0.00  0.00    +0.000 C 
ATOM     32  CB  VAL A   4      -2.026   9.891  17.020  0.00  0.00    +0.000 C 
ATOM     33  CG2 VAL A   4      -3.250   9.620  17.897  0.00  0.00    +0.000 C 
ENDBRANCH  30  32
BRANCH  30  34
ATOM     34  C   VAL A   4      -1.106  11.869  18.464  0.00  0.00    +0.000 C 
ATOM     35  O   VAL A   4      -1.426  11.987  19.645  0.00  0.00    +0.000 OA
BRANCH  34  36
ATOM     36  OXT VAL A   4      -0.923  12.957  17.677  0.00  0.00    +0.000 OA
ATOM     37  HXT VAL A   4      -1.387  12.927  16.821  0.00  0.00    +0.000 HD
ENDBRANCH  34  36
ENDBRANCH  30  34
ENDBRANCH  26  30
ENDBRANCH  25  27
BRANCH  25  38
ATOM     38  CB  ASP A   3       1.756   9.087  21.175  0.00  0.00    +0.000 C 
BRANCH  38  39
ATOM     39  CG  ASP A   3       0.737   9.175  22.283  0.00  0.00    +0.000 C 
ATOM     40  OD1 ASP A   3       0.966   9.695  23.364  0.00  0.00    +0.000 OA
BRANCH  39  41
ATOM     41  OD2 ASP A   3      -0.486   8.700  21.960  0.00  0.00    +0.000 OA
ATOM     42  HD2 ASP A   3      -0.495   7.764  21.655  0.00  0.00    +0.000 HD
ENDBRANCH  39  41
ENDBRANCH  38  39
ENDBRANCH  25  38
ENDBRANCH   1  25
TORSDOF 20
ENDMDL
MODEL 3
REMARK VINA RESULT:      -7.0      3.220      7.906
REMARK  Name = 
REMARK  23 active torsions:
REMARK  status: ('A' for Active; 'I' for Inactive)
REMARK    1  A    between atoms: CG1_1  and  CB_2
REMARK    2  A    between atoms: CB_2  and  CG2_3
REMARK    3  A    between atoms: CB_2  and  CA_4
REMARK    4  A    between atoms: CA_4  and  N_5
REMARK    5  A    between atoms: CA_4  and  C_31
REMARK    6  A    between atoms: C_6  and  CA_8
REMARK    7  A    between atoms: CA_8  and  CB_9
REMARK    8  A    between atoms: CA_8  and  N_13
REMARK    9  A    between atoms: CB_9  and  CG_10
REMARK   10  A    between atoms: CG_10  and  OD2_12
REMARK   11  A    between atoms: C_14  and  C_16
REMARK   12  A    between atoms: C_16  and  N_17
REMARK   13  A    between atoms: C_16  and  C_27
REMARK   14  A    between atoms: C_18  and  CA_20
REMARK   15  A    between atoms: CA_20  and  N_21
REMARK   16  A    between atoms: CA_20  and  CB_22
REMARK   17  A    between atoms: CB_22  and  CG_23
REMARK   18  A    between atoms: CG_23  and  CD_24
REMARK   19  A    between atoms: CD_24  and  OE2_26
REMARK   20  A    between atoms: C_27  and  C_28
REMARK   21  A    between atoms: C_27  and  C_29
REMARK   22  A    between atoms: C_29  and  O_30
REMARK   23  A    between atoms: C_31  and  OXT_33
REMARK                            x       y       z     vdW  Elec       q    Type
REMARK                         _______ _______ _______ _____ _____    ______ ____
ROOT
ATOM      1  N   ASP A   3       5.711   6.429  18.147  0.00  0.00    +0.000 N 
ATOM      2  C   UNK A   2       4.510   6.655  17.502  0.00  0.00    +0.000 C 
ATOM      3  O   UNK A   2       4.444   6.947  16.312  0.00  0.00    +0.000 OA
ATOM      4  H   ASP A   3       5.688   6.324  19.156  0.00  0.00    +0.000 HD
ENDROOT
BRANCH   2   5
ATOM      5  C   UNK A   2       3.266   6.311  18.361  0.00  0.00    +0.000 C 
BRANCH   5   6
ATOM      6  N   UNK A   2       2.764   5.000  17.942  0.00  0.00    +0.000 N 
ATOM      7  C   GLU A   1       3.332   3.861  18.486  0.00  0.00    +0.000 C 
ATOM      8  O   GLU A   1       4.233   3.907  19.324  0.00  0.00    +0.000 OA
ATOM      9  H   UNK A   2       2.358   4.929  17.015  0.00  0.00    +0.000 HD
BRANCH   7  10
ATOM     10  CA  GLU A   1       2.839   2.521  17.907  0.00  0.00    +0.000 C 
BRANCH  10  11
ATOM     11  N   GLU A   1       3.986   1.649  17.570  0.00  0.00    +0.000 NA
ATOM     12  H1  GLU A   1       3.677   0.787  17.140  0.00  0.00    +0.000 HD
ATOM     13  H2  GLU A   1       4.466   1.392  18.432  0.00  0.00    +0.000 HD
ENDBRANCH  10  11
BRANCH  10  14
ATOM     14  CB  GLU A   1       1.900   1.809  18.895  0.00  0.00    +0.000 C 
BRANCH  14  15
ATOM     15  CG  GLU A   1       0.622   2.602  19.219  0.00  0.00    +0.000 C 
BRANCH  15  16
ATOM     16  CD  GLU A   1       0.777   3.401  20.488  0.00  0.00    +0.000 C 
ATOM     17  OE1 GLU A   1       0.757   4.616  20.558  0.00  0.00    +0.000 OA
BRANCH  16  18
ATOM     18  OE2 GLU A   1       0.960   2.649  21.592  0.00  0.00    +0.000 OA
ATOM     19  HE2 GLU A   1       1.765   2.841  22.138  0.00  0.00    +0.000 HD
ENDBRANCH  16  18
ENDBRANCH  15  16
ENDBRANCH  14  15
ENDBRANCH  10  14
ENDBRANCH   7  10
ENDBRANCH   5   6
BRANCH   5  20
ATOM     20  C   UNK A   2       2.163   7.394  18.388  0.00  0.00    +0.000 C 
ATOM     21  C   UNK A   2       2.425   8.648  17.554  0.00  0.00    +0.000 C 
BRANCH  20  22
ATOM     22  C   UNK A   2       1.841   7.793  19.833  0.00  0.00    +0.000 C 
BRANCH  22  23
ATOM     23  O   UNK A   2       2.318   6.808  20.738  0.00  0.00    +0.000 OA
ATOM     24  H   UNK A   2       1.552   6.410  21.187  0.00  0.00    +0.000 HD
ENDBRANCH  22  23
ENDBRANCH  20  22
ENDBRANCH   5  20
ENDBRANCH   2   5
BRANCH   1  25
ATOM     25  CA  ASP A   3       7.016   6.623  17.510  0.00  0.00    +0.000 C 
BRANCH  25  27
ATOM     26  N   VAL A   4       6.969   5.741  15.207  0.00  0.00    +0.000 N 
ATOM     27  C   ASP A   3       7.348   5.506  16.504  0.00  0.00    +0.000 C 
ATOM     28  O   ASP A   3       7.935   4.477  16.848  0.00  0.00    +0.000 OA
ATOM     29  H   VAL A   4       6.608   6.662  14.967  0.00  0.00    +0.000 HD
BRANCH  26  30
ATOM     30  CA  VAL A   4       7.273   4.785  14.136  0.00  0.00    +0.000 C 
BRANCH  30  32
ATOM     31  CG1 VAL A   4       5.076   3.725  14.769  0.00  0.00    +0.000 C 
ATOM     32  CB  VAL A   4       5.948   4.202  13.595  0.00  0.00    +0.000 C 
ATOM     33  CG2 VAL A   4       6.121   3.034  12.622  0.00  0.00    +0.000 C 
ENDBRANCH  30  32
BRANCH  30  34
ATOM     34  C   VAL A   4       8.143   5.540  13.108  0.00  0.00    +0.000 C 
ATOM     35  O   VAL A   4       9.187   6.129  13.384  0.00  0.00    +0.000 OA
BRANCH  34  36
ATOM     36  OXT VAL A   4       7.695   5.472  11.831  0.00  0.00    +0.000 OA
ATOM     37  HXT VAL A   4       6.775   5.768  11.702  0.00  0.00    +0.000 HD
ENDBRANCH  34  36
ENDBRANCH  30  34
ENDBRANCH  26  30
ENDBRANCH  25  27
BRANCH  25  38
ATOM     38  CB  ASP A   3       8.162   6.694  18.516  0.00  0.00    +0.000 C 
BRANCH  38  39
ATOM     39  CG  ASP A   3       7.966   5.676  19.612  0.00  0.00    +0.000 C 
ATOM     40  OD1 ASP A   3       6.879   5.435  20.115  0.00  0.00    +0.000 OA
BRANCH  39  41
ATOM     41  OD2 ASP A   3       9.080   4.987  19.944  0.00  0.00    +0.000 OA
ATOM     42  HD2 ASP A   3       9.142   4.745  20.896  0.00  0.00    +0.000 HD
ENDBRANCH  39  41
ENDBRANCH  38  39
ENDBRANCH  25  38
ENDBRANCH   1  25
TORSDOF 20
ENDMDL
MODEL 4
REMARK VINA RESULT:      -7.0      1.043      1.581
REMARK  Name = 
REMARK  23 active torsions:
REMARK  status: ('A' for Active; 'I' for Inactive)
REMARK    1  A    between atoms: CG1_1  and  CB_2
REMARK    2  A    between atoms: CB_2  and  CG2_3
REMARK    3  A    between atoms: CB_2  and  CA_4
REMARK    4  A    between atoms: CA_4  and  N_5
REMARK    5  A    between atoms: CA_4  and  C_31
REMARK    6  A    between atoms: C_6  and  CA_8
REMARK    7  A    between atoms: CA_8  and  CB_9
REMARK    8  A    between atoms: CA_8  and  N_13
REMARK    9  A    between atoms: CB_9  and  CG_10
REMARK   10  A    between atoms: CG_10  and  OD2_12
REMARK   11  A    between atoms: C_14  and  C_16
REMARK   12  A    between atoms: C_16  and  N_17
REMARK   13  A    between atoms: C_16  and  C_27
REMARK   14  A    between atoms: C_18  and  CA_20
REMARK   15  A    between atoms: CA_20  and  N_21
REMARK   16  A    between atoms: CA_20  and  CB_22
REMARK   17  A    between atoms: CB_22  and  CG_23
REMARK   18  A    between atoms: CG_23  and  CD_24
REMARK   19  A    between atoms: CD_24  and  OE2_26
REMARK   20  A    between atoms: C_27  and  C_28
REMARK   21  A    between atoms: C_27  and  C_29
REMARK   22  A    between atoms: C_29  and  O_30
REMARK   23  A    between atoms: C_31  and  OXT_33
REMARK                            x       y       z     vdW  Elec       q    Type
REMARK                         _______ _______ _______ _____ _____    ______ ____
ROOT
ATOM      1  N   ASP A   3       2.267   6.950  20.034  0.00  0.00    +0.000 N 
ATOM      2  C   UNK A   2       2.060   5.605  20.272  0.00  0.00    +0.000 C 
ATOM      3  O   UNK A   2       1.002   5.168  20.714  0.00  0.00    +0.000 OA
ATOM      4  H   ASP A   3       3.210   7.244  19.797  0.00  0.00    +0.000 HD
ENDROOT
BRANCH   2   5
ATOM      5  C   UNK A   2       3.200   4.695  19.747  0.00  0.00    +0.000 C 
BRANCH   5   6
ATOM      6  N   UNK A   2       4.397   5.518  19.556  0.00  0.00    +0.000 N 
ATOM      7  C   GLU A   1       5.625   4.893  19.423  0.00  0.00    +0.000 C 
ATOM      8  O   GLU A   1       5.747   3.668  19.440  0.00  0.00    +0.000 OA
ATOM      9  H   UNK A   2       4.385   6.458  19.940  0.00  0.00    +0.000 HD
BRANCH   7  10
ATOM     10  CA  GLU A   1       6.850   5.824  19.351  0.00  0.00    +0.000 C 
BRANCH  10  11
ATOM     11  N   GLU A   1       7.967   5.272  20.150  0.00  0.00    +0.000 NA
ATOM     12  H1  GLU A   1       8.549   4.661  19.591  0.00  0.00    +0.000 HD
ATOM     13  H2  GLU A   1       7.581   4.704  20.903  0.00  0.00    +0.000 HD
ENDBRANCH  10  11
BRANCH  10  14
ATOM     14  CB  GLU A   1       7.291   6.038  17.895  0.00  0.00    +0.000 C 
BRANCH  14  15
ATOM     15  CG  GLU A   1       6.659   7.272  17.228  0.00  0.00    +0.000 C 
BRANCH  15  16
ATOM     16  CD  GLU A   1       5.359   6.925  16.547  0.00  0.00    +0.000 C 
ATOM     17  OE1 GLU A   1       5.258   6.433  15.439  0.00  0.00    +0.000 OA
BRANCH  16  18
ATOM     18  OE2 GLU A   1       4.263   7.220  17.274  0.00  0.00    +0.000 OA
ATOM     19  HE2 GLU A   1       3.552   7.742  16.823  0.00  0.00    +0.000 HD
ENDBRANCH  16  18
ENDBRANCH  15  16
ENDBRANCH  14  15
ENDBRANCH  10  14
ENDBRANCH   7  10
ENDBRANCH   5   6
BRANCH   5  20
ATOM     20  C   UNK A   2       2.849   3.852  18.500  0.00  0.00    +0.000 C 
ATOM     21  C   UNK A   2       1.702   4.372  17.631  0.00  0.00    +0.000 C 
BRANCH  20  22
ATOM     22  C   UNK A   2       2.575   2.397  18.898  0.00  0.00    +0.000 C 
BRANCH  22  23
ATOM     23  O   UNK A   2       1.634   2.342  19.961  0.00  0.00    +0.000 OA
ATOM     24  H   UNK A   2       0.742   2.441  19.584  0.00  0.00    +0.000 HD
ENDBRANCH  22  23
ENDBRANCH  20  22
ENDBRANCH   5  20
ENDBRANCH   2   5
BRANCH   1  25
ATOM     25  CA  ASP A   3       1.296   7.990  20.386  0.00  0.00    +0.000 C 
BRANCH  25  27
ATOM     26  N   VAL A   4       0.384  10.150  19.623  0.00  0.00    +0.000 N 
ATOM     27  C   ASP A   3       1.268   9.136  19.358  0.00  0.00    +0.000 C 
ATOM     28  O   ASP A   3       2.010   9.141  18.374  0.00  0.00    +0.000 OA
ATOM     29  H   VAL A   4      -0.104  10.148  20.517  0.00  0.00    +0.000 HD
BRANCH  26  30
ATOM     30  CA  VAL A   4       0.292  11.330  18.755  0.00  0.00    +0.000 C 
BRANCH  30  32
ATOM     31  CG1 VAL A   4      -2.003  11.926  19.609  0.00  0.00    +0.000 C 
ATOM     32  CB  VAL A   4      -1.186  11.549  18.361  0.00  0.00    +0.000 C 
ATOM     33  CG2 VAL A   4      -1.851  10.338  17.702  0.00  0.00    +0.000 C 
ENDBRANCH  30  32
BRANCH  30  34
ATOM     34  C   VAL A   4       0.960  12.491  19.523  0.00  0.00    +0.000 C 
ATOM     35  O   VAL A   4       1.361  12.415  20.684  0.00  0.00    +0.000 OA
BRANCH  34  36
ATOM     36  OXT VAL A   4       1.125  13.626  18.800  0.00  0.00    +0.000 OA
ATOM     37  HXT VAL A   4       1.939  13.658  18.266  0.00  0.00    +0.000 HD
ENDBRANCH  34  36
ENDBRANCH  30  34
ENDBRANCH  26  30
ENDBRANCH  25  27
BRANCH  25  38
ATOM     38  CB  ASP A   3       1.560   8.606  21.758  0.00  0.00    +0.000 C 
BRANCH  38  39
ATOM     39  CG  ASP A   3       0.287   9.170  22.336  0.00  0.00    +0.000 C 
ATOM     40  OD1 ASP A   3      -0.766   8.551  22.371  0.00  0.00    +0.000 OA
BRANCH  39  41
ATOM     41  OD2 ASP A   3       0.417  10.396  22.891  0.00  0.00    +0.000 OA
ATOM     42  HD2 ASP A   3       0.627  11.115  22.252  0.00  0.00    +0.000 HD
ENDBRANCH  39  41
ENDBRANCH  38  39
ENDBRANCH  25  38
ENDBRANCH   1  25
TORSDOF 20
ENDMDL
MODEL 5
REMARK VINA RESULT:      -6.9      1.892      8.011
REMARK  Name = 
REMARK  23 active torsions:
REMARK  status: ('A' for Active; 'I' for Inactive)
REMARK    1  A    between atoms: CG1_1  and  CB_2
REMARK    2  A    between atoms: CB_2  and  CG2_3
REMARK    3  A    between atoms: CB_2  and  CA_4
REMARK    4  A    between atoms: CA_4  and  N_5
REMARK    5  A    between atoms: CA_4  and  C_31
REMARK    6  A    between atoms: C_6  and  CA_8
REMARK    7  A    between atoms: CA_8  and  CB_9
REMARK    8  A    between atoms: CA_8  and  N_13
REMARK    9  A    between atoms: CB_9  and  CG_10
REMARK   10  A    between atoms: CG_10  and  OD2_12
REMARK   11  A    between atoms: C_14  and  C_16
REMARK   12  A    between atoms: C_16  and  N_17
REMARK   13  A    between atoms: C_16  and  C_27
REMARK   14  A    between atoms: C_18  and  CA_20
REMARK   15  A    between atoms: CA_20  and  N_21
REMARK   16  A    between atoms: CA_20  and  CB_22
REMARK   17  A    between atoms: CB_22  and  CG_23
REMARK   18  A    between atoms: CG_23  and  CD_24
REMARK   19  A    between atoms: CD_24  and  OE2_26
REMARK   20  A    between atoms: C_27  and  C_28
REMARK   21  A    between atoms: C_27  and  C_29
REMARK   22  A    between atoms: C_29  and  O_30
REMARK   23  A    between atoms: C_31  and  OXT_33
REMARK                            x       y       z     vdW  Elec       q    Type
REMARK                         _______ _______ _______ _____ _____    ______ ____
ROOT
ATOM      1  N   ASP A   3       2.768   6.031  19.272  0.00  0.00    +0.000 N 
ATOM      2  C   UNK A   2       1.912   6.708  20.120  0.00  0.00    +0.000 C 
ATOM      3  O   UNK A   2       1.397   6.178  21.099  0.00  0.00    +0.000 OA
ATOM      4  H   ASP A   3       3.044   6.499  18.414  0.00  0.00    +0.000 HD
ENDROOT
BRANCH   2   5
ATOM      5  C   UNK A   2       1.826   8.229  19.836  0.00  0.00    +0.000 C 
BRANCH   5   6
ATOM      6  N   UNK A   2       0.679   8.772  20.570  0.00  0.00    +0.000 N 
ATOM      7  C   GLU A   1       0.902   9.437  21.763  0.00  0.00    +0.000 C 
ATOM      8  O   GLU A   1       2.031   9.607  22.224  0.00  0.00    +0.000 OA
ATOM      9  H   UNK A   2      -0.216   8.310  20.446  0.00  0.00    +0.000 HD
BRANCH   7  10
ATOM     10  CA  GLU A   1      -0.358   9.869  22.538  0.00  0.00    +0.000 C 
BRANCH  10  11
ATOM     11  N   GLU A   1      -0.240   9.497  23.965  0.00  0.00    +0.000 NA
ATOM     12  H1  GLU A   1      -0.822   8.698  24.184  0.00  0.00    +0.000 HD
ATOM     13  H2  GLU A   1      -0.577  10.273  24.535  0.00  0.00    +0.000 HD
ENDBRANCH  10  11
BRANCH  10  14
ATOM     14  CB  GLU A   1      -0.594  11.381  22.398  0.00  0.00    +0.000 C 
BRANCH  14  15
ATOM     15  CG  GLU A   1      -0.179  11.953  21.032  0.00  0.00    +0.000 C 
BRANCH  15  16
ATOM     16  CD  GLU A   1       0.895  13.001  21.176  0.00  0.00    +0.000 C 
ATOM     17  OE1 GLU A   1       0.942  13.839  22.058  0.00  0.00    +0.000 OA
BRANCH  16  18
ATOM     18  OE2 GLU A   1       1.838  12.957  20.214  0.00  0.00    +0.000 OA
ATOM     19  HE2 GLU A   1       2.158  12.060  19.940  0.00  0.00    +0.000 HD
ENDBRANCH  16  18
ENDBRANCH  15  16
ENDBRANCH  14  15
ENDBRANCH  10  14
ENDBRANCH   7  10
ENDBRANCH   5   6
BRANCH   5  20
ATOM     20  C   UNK A   2       1.820   8.623  18.341  0.00  0.00    +0.000 C 
ATOM     21  C   UNK A   2       3.127   8.401  17.578  0.00  0.00    +0.000 C 
BRANCH  20  22
ATOM     22  C   UNK A   2       1.365  10.077  18.173  0.00  0.00    +0.000 C 
BRANCH  22  23
ATOM     23  O   UNK A   2      -0.007  10.128  17.810  0.00  0.00    +0.000 OA
ATOM     24  H   UNK A   2      -0.411   9.269  18.022  0.00  0.00    +0.000 HD
ENDBRANCH  22  23
ENDBRANCH  20  22
ENDBRANCH   5  20
ENDBRANCH   2   5
BRANCH   1  25
ATOM     25  CA  ASP A   3       3.055   4.599  19.391  0.00  0.00    +0.000 C 
BRANCH  25  27
ATOM     26  N   VAL A   4       5.129   5.128  18.166  0.00  0.00    +0.000 N 
ATOM     27  C   ASP A   3       4.515   4.263  19.035  0.00  0.00    +0.000 C 
ATOM     28  O   ASP A   3       5.092   3.288  19.521  0.00  0.00    +0.000 OA
ATOM     29  H   VAL A   4       4.640   5.982  17.905  0.00  0.00    +0.000 HD
BRANCH  26  30
ATOM     30  CA  VAL A   4       6.535   4.957  17.784  0.00  0.00    +0.000 C 
BRANCH  30  32
ATOM     31  CG1 VAL A   4       5.525   6.202  15.840  0.00  0.00    +0.000 C 
ATOM     32  CB  VAL A   4       6.694   5.308  16.287  0.00  0.00    +0.000 C 
ATOM     33  CG2 VAL A   4       6.755   4.096  15.356  0.00  0.00    +0.000 C 
ENDBRANCH  30  32
BRANCH  30  34
ATOM     34  C   VAL A   4       7.363   5.815  18.766  0.00  0.00    +0.000 C 
ATOM     35  O   VAL A   4       7.936   6.859  18.460  0.00  0.00    +0.000 OA
BRANCH  34  36
ATOM     36  OXT VAL A   4       7.382   5.354  20.040  0.00  0.00    +0.000 OA
ATOM     37  HXT VAL A   4       7.010   5.964  20.703  0.00  0.00    +0.000 HD
ENDBRANCH  34  36
ENDBRANCH  30  34
ENDBRANCH  26  30
ENDBRANCH  25  27
BRANCH  25  38
ATOM     38  CB  ASP A   3       2.154   3.739  18.508  0.00  0.00    +0.000 C 
BRANCH  38  39
ATOM     39  CG  ASP A   3       1.220   2.911  19.355  0.00  0.00    +0.000 C 
ATOM     40  OD1 ASP A   3       1.125   1.697  19.257  0.00  0.00    +0.000 OA
BRANCH  39  41
ATOM     41  OD2 ASP A   3       0.546   3.611  20.295  0.00  0.00    +0.000 OA
ATOM     42  HD2 ASP A   3      -0.433   3.585  20.200  0.00  0.00    +0.000 HD
ENDBRANCH  39  41
ENDBRANCH  38  39
ENDBRANCH  25  38
ENDBRANCH   1  25
TORSDOF 20
ENDMDL
MODEL 6
REMARK VINA RESULT:      -6.8      1.410      1.675
REMARK  Name = 
REMARK  23 active torsions:
REMARK  status: ('A' for Active; 'I' for Inactive)
REMARK    1  A    between atoms: CG1_1  and  CB_2
REMARK    2  A    between atoms: CB_2  and  CG2_3
REMARK    3  A    between atoms: CB_2  and  CA_4
REMARK    4  A    between atoms: CA_4  and  N_5
REMARK    5  A    between atoms: CA_4  and  C_31
REMARK    6  A    between atoms: C_6  and  CA_8
REMARK    7  A    between atoms: CA_8  and  CB_9
REMARK    8  A    between atoms: CA_8  and  N_13
REMARK    9  A    between atoms: CB_9  and  CG_10
REMARK   10  A    between atoms: CG_10  and  OD2_12
REMARK   11  A    between atoms: C_14  and  C_16
REMARK   12  A    between atoms: C_16  and  N_17
REMARK   13  A    between atoms: C_16  and  C_27
REMARK   14  A    between atoms: C_18  and  CA_20
REMARK   15  A    between atoms: CA_20  and  N_21
REMARK   16  A    between atoms: CA_20  and  CB_22
REMARK   17  A    between atoms: CB_22  and  CG_23
REMARK   18  A    between atoms: CG_23  and  CD_24
REMARK   19  A    between atoms: CD_24  and  OE2_26
REMARK   20  A    between atoms: C_27  and  C_28
REMARK   21  A    between atoms: C_27  and  C_29
REMARK   22  A    between atoms: C_29  and  O_30
REMARK   23  A    between atoms: C_31  and  OXT_33
REMARK                            x       y       z     vdW  Elec       q    Type
REMARK                         _______ _______ _______ _____ _____    ______ ____
ROOT
ATOM      1  N   ASP A   3       2.262   7.358  19.973  0.00  0.00    +0.000 N 
ATOM      2  C   UNK A   2       2.170   6.008  20.251  0.00  0.00    +0.000 C 
ATOM      3  O   UNK A   2       1.176   5.506  20.768  0.00  0.00    +0.000 OA
ATOM      4  H   ASP A   3       3.164   7.713  19.671  0.00  0.00    +0.000 HD
ENDROOT
BRANCH   2   5
ATOM      5  C   UNK A   2       3.339   5.170  19.672  0.00  0.00    +0.000 C 
BRANCH   5   6
ATOM      6  N   UNK A   2       3.866   5.865  18.494  0.00  0.00    +0.000 N 
ATOM      7  C   GLU A   1       5.237   5.940  18.320  0.00  0.00    +0.000 C 
ATOM      8  O   GLU A   1       6.032   5.429  19.108  0.00  0.00    +0.000 OA
ATOM      9  H   UNK A   2       3.297   6.604  18.094  0.00  0.00    +0.000 HD
BRANCH   7  10
ATOM     10  CA  GLU A   1       5.718   6.791  17.129  0.00  0.00    +0.000 C 
BRANCH  10  11
ATOM     11  N   GLU A   1       7.195   6.883  17.122  0.00  0.00    +0.000 NA
ATOM     12  H1  GLU A   1       7.619   5.964  17.148  0.00  0.00    +0.000 HD
ATOM     13  H2  GLU A   1       7.496   7.371  17.966  0.00  0.00    +0.000 HD
ENDBRANCH  10  11
BRANCH  10  14
ATOM     14  CB  GLU A   1       5.215   6.206  15.799  0.00  0.00    +0.000 C 
BRANCH  14  15
ATOM     15  CG  GLU A   1       5.545   4.715  15.611  0.00  0.00    +0.000 C 
BRANCH  15  16
ATOM     16  CD  GLU A   1       6.625   4.517  14.577  0.00  0.00    +0.000 C 
ATOM     17  OE1 GLU A   1       7.586   5.246  14.419  0.00  0.00    +0.000 OA
BRANCH  16  18
ATOM     18  OE2 GLU A   1       6.442   3.436  13.793  0.00  0.00    +0.000 OA
ATOM     19  HE2 GLU A   1       6.024   2.641  14.214  0.00  0.00    +0.000 HD
ENDBRANCH  16  18
ENDBRANCH  15  16
ENDBRANCH  14  15
ENDBRANCH  10  14
ENDBRANCH   7  10
ENDBRANCH   5   6
BRANCH   5  20
ATOM     20  C   UNK A   2       3.011   3.685  19.394  0.00  0.00    +0.000 C 
ATOM     21  C   UNK A   2       1.808   3.415  18.490  0.00  0.00    +0.000 C 
BRANCH  20  22
ATOM     22  C   UNK A   2       2.850   2.917  20.711  0.00  0.00    +0.000 C 
BRANCH  22  23
ATOM     23  O   UNK A   2       1.487   2.578  20.924  0.00  0.00    +0.000 OA
ATOM     24  H   UNK A   2       1.025   2.624  20.069  0.00  0.00    +0.000 HD
ENDBRANCH  22  23
ENDBRANCH  20  22
ENDBRANCH   5  20
ENDBRANCH   2   5
BRANCH   1  25
ATOM     25  CA  ASP A   3       1.241   8.333  20.366  0.00  0.00    +0.000 C 
BRANCH  25  27
ATOM     26  N   VAL A   4       0.725  10.695  19.880  0.00  0.00    +0.000 N 
ATOM     27  C   ASP A   3       1.119   9.490  19.358  0.00  0.00    +0.000 C 
ATOM     28  O   ASP A   3       1.379   9.337  18.162  0.00  0.00    +0.000 OA
ATOM     29  H   VAL A   4       0.652  10.785  20.892  0.00  0.00    +0.000 HD
BRANCH  26  30
ATOM     30  CA  VAL A   4       0.620  11.895  19.041  0.00  0.00    +0.000 C 
BRANCH  30  32
ATOM     31  CG1 VAL A   4      -1.883  12.139  18.891  0.00  0.00    +0.000 C 
ATOM     32  CB  VAL A   4      -0.599  12.725  19.503  0.00  0.00    +0.000 C 
ATOM     33  CG2 VAL A   4      -0.528  14.209  19.139  0.00  0.00    +0.000 C 
ENDBRANCH  30  32
BRANCH  30  34
ATOM     34  C   VAL A   4       1.988  12.608  19.124  0.00  0.00    +0.000 C 
ATOM     35  O   VAL A   4       2.696  12.862  18.151  0.00  0.00    +0.000 OA
BRANCH  34  36
ATOM     36  OXT VAL A   4       2.351  12.990  20.373  0.00  0.00    +0.000 OA
ATOM     37  HXT VAL A   4       2.568  13.935  20.466  0.00  0.00    +0.000 HD
ENDBRANCH  34  36
ENDBRANCH  30  34
ENDBRANCH  26  30
ENDBRANCH  25  27
BRANCH  25  38
ATOM     38  CB  ASP A   3       1.503   8.944  21.741  0.00  0.00    +0.000 C 
BRANCH  38  39
ATOM     39  CG  ASP A   3       0.236   8.969  22.557  0.00  0.00    +0.000 C 
ATOM     40  OD1 ASP A   3      -0.765   8.335  22.260  0.00  0.00    +0.000 OA
BRANCH  39  41
ATOM     41  OD2 ASP A   3       0.317   9.690  23.698  0.00  0.00    +0.000 OA
ATOM     42  HD2 ASP A   3      -0.249  10.495  23.714  0.00  0.00    +0.000 HD
ENDBRANCH  39  41
ENDBRANCH  38  39
ENDBRANCH  25  38
ENDBRANCH   1  25
TORSDOF 20
ENDMDL
MODEL 7
REMARK VINA RESULT:      -6.8      1.963      7.993
REMARK  Name = 
REMARK  23 active torsions:
REMARK  status: ('A' for Active; 'I' for Inactive)
REMARK    1  A    between atoms: CG1_1  and  CB_2
REMARK    2  A    between atoms: CB_2  and  CG2_3
REMARK    3  A    between atoms: CB_2  and  CA_4
REMARK    4  A    between atoms: CA_4  and  N_5
REMARK    5  A    between atoms: CA_4  and  C_31
REMARK    6  A    between atoms: C_6  and  CA_8
REMARK    7  A    between atoms: CA_8  and  CB_9
REMARK    8  A    between atoms: CA_8  and  N_13
REMARK    9  A    between atoms: CB_9  and  CG_10
REMARK   10  A    between atoms: CG_10  and  OD2_12
REMARK   11  A    between atoms: C_14  and  C_16
REMARK   12  A    between atoms: C_16  and  N_17
REMARK   13  A    between atoms: C_16  and  C_27
REMARK   14  A    between atoms: C_18  and  CA_20
REMARK   15  A    between atoms: CA_20  and  N_21
REMARK   16  A    between atoms: CA_20  and  CB_22
REMARK   17  A    between atoms: CB_22  and  CG_23
REMARK   18  A    between atoms: CG_23  and  CD_24
REMARK   19  A    between atoms: CD_24  and  OE2_26
REMARK   20  A    between atoms: C_27  and  C_28
REMARK   21  A    between atoms: C_27  and  C_29
REMARK   22  A    between atoms: C_29  and  O_30
REMARK   23  A    between atoms: C_31  and  OXT_33
REMARK                            x       y       z     vdW  Elec       q    Type
REMARK                         _______ _______ _______ _____ _____    ______ ____
ROOT
ATOM      1  N   ASP A   3       3.055   5.899  19.792  0.00  0.00    +0.000 N 
ATOM      2  C   UNK A   2       1.927   6.557  20.243  0.00  0.00    +0.000 C 
ATOM      3  O   UNK A   2       1.107   6.028  20.988  0.00  0.00    +0.000 OA
ATOM      4  H   ASP A   3       3.610   6.358  19.076  0.00  0.00    +0.000 HD
ENDROOT
BRANCH   2   5
ATOM      5  C   UNK A   2       1.900   8.066  19.888  0.00  0.00    +0.000 C 
BRANCH   5   6
ATOM      6  N   UNK A   2       0.753   8.679  20.564  0.00  0.00    +0.000 N 
ATOM      7  C   GLU A   1       0.960   9.353  21.755  0.00  0.00    +0.000 C 
ATOM      8  O   GLU A   1       2.077   9.474  22.260  0.00  0.00    +0.000 OA
ATOM      9  H   UNK A   2      -0.159   8.261  20.410  0.00  0.00    +0.000 HD
BRANCH   7  10
ATOM     10  CA  GLU A   1      -0.306   9.863  22.469  0.00  0.00    +0.000 C 
BRANCH  10  11
ATOM     11  N   GLU A   1      -0.271   9.503  23.904  0.00  0.00    +0.000 NA
ATOM     12  H1  GLU A   1       0.038  10.283  24.469  0.00  0.00    +0.000 HD
ATOM     13  H2  GLU A   1       0.408   8.754  24.037  0.00  0.00    +0.000 HD
ENDBRANCH  10  11
BRANCH  10  14
ATOM     14  CB  GLU A   1      -0.454  11.383  22.304  0.00  0.00    +0.000 C 
BRANCH  14  15
ATOM     15  CG  GLU A   1      -0.714  11.830  20.855  0.00  0.00    +0.000 C 
BRANCH  15  16
ATOM     16  CD  GLU A   1       0.438  12.637  20.312  0.00  0.00    +0.000 C 
ATOM     17  OE1 GLU A   1       0.554  13.003  19.157  0.00  0.00    +0.000 OA
BRANCH  16  18
ATOM     18  OE2 GLU A   1       1.381  12.933  21.228  0.00  0.00    +0.000 OA
ATOM     19  HE2 GLU A   1       1.564  12.248  21.921  0.00  0.00    +0.000 HD
ENDBRANCH  16  18
ENDBRANCH  15  16
ENDBRANCH  14  15
ENDBRANCH  10  14
ENDBRANCH   7  10
ENDBRANCH   5   6
BRANCH   5  20
ATOM     20  C   UNK A   2       1.946   8.389  18.377  0.00  0.00    +0.000 C 
ATOM     21  C   UNK A   2       3.209   7.956  17.631  0.00  0.00    +0.000 C 
BRANCH  20  22
ATOM     22  C   UNK A   2       1.695   9.883  18.142  0.00  0.00    +0.000 C 
BRANCH  22  23
ATOM     23  O   UNK A   2       0.322  10.118  17.867  0.00  0.00    +0.000 OA
ATOM     24  H   UNK A   2      -0.200   9.421  18.302  0.00  0.00    +0.000 HD
ENDBRANCH  22  23
ENDBRANCH  20  22
ENDBRANCH   5  20
ENDBRANCH   2   5
BRANCH   1  25
ATOM     25  CA  ASP A   3       3.326   4.485  20.064  0.00  0.00    +0.000 C 
BRANCH  25  27
ATOM     26  N   VAL A   4       4.882   4.741  18.168  0.00  0.00    +0.000 N 
ATOM     27  C   ASP A   3       4.270   3.859  19.021  0.00  0.00    +0.000 C 
ATOM     28  O   ASP A   3       4.471   2.643  18.976  0.00  0.00    +0.000 OA
ATOM     29  H   VAL A   4       4.774   5.739  18.342  0.00  0.00    +0.000 HD
BRANCH  26  30
ATOM     30  CA  VAL A   4       5.848   4.286  17.161  0.00  0.00    +0.000 C 
BRANCH  30  32
ATOM     31  CG1 VAL A   4       6.141   3.915  14.686  0.00  0.00    +0.000 C 
ATOM     32  CB  VAL A   4       5.317   4.652  15.756  0.00  0.00    +0.000 C 
ATOM     33  CG2 VAL A   4       5.349   6.148  15.438  0.00  0.00    +0.000 C 
ENDBRANCH  30  32
BRANCH  30  34
ATOM     34  C   VAL A   4       7.208   4.907  17.547  0.00  0.00    +0.000 C 
ATOM     35  O   VAL A   4       7.347   6.035  18.015  0.00  0.00    +0.000 OA
BRANCH  34  36
ATOM     36  OXT VAL A   4       8.273   4.085  17.374  0.00  0.00    +0.000 OA
ATOM     37  HXT VAL A   4       9.064   4.513  16.999  0.00  0.00    +0.000 HD
ENDBRANCH  34  36
ENDBRANCH  30  34
ENDBRANCH  26  30
ENDBRANCH  25  27
BRANCH  25  38
ATOM     38  CB  ASP A   3       2.058   3.636  20.107  0.00  0.00    +0.000 C 
BRANCH  38  39
ATOM     39  CG  ASP A   3       2.009   2.824  21.377  0.00  0.00    +0.000 C 
ATOM     40  OD1 ASP A   3       3.008   2.417  21.951  0.00  0.00    +0.000 OA
BRANCH  39  41
ATOM     41  OD2 ASP A   3       0.768   2.644  21.881  0.00  0.00    +0.000 OA
ATOM     42  HD2 ASP A   3       0.074   2.467  21.206  0.00  0.00    +0.000 HD
ENDBRANCH  39  41
ENDBRANCH  38  39
ENDBRANCH  25  38
ENDBRANCH   1  25
TORSDOF 20
ENDMDL
MODEL 8
REMARK VINA RESULT:      -6.7      1.274      1.720
REMARK  Name = 
REMARK  23 active torsions:
REMARK  status: ('A' for Active; 'I' for Inactive)
REMARK    1  A    between atoms: CG1_1  and  CB_2
REMARK    2  A    between atoms: CB_2  and  CG2_3
REMARK    3  A    between atoms: CB_2  and  CA_4
REMARK    4  A    between atoms: CA_4  and  N_5
REMARK    5  A    between atoms: CA_4  and  C_31
REMARK    6  A    between atoms: C_6  and  CA_8
REMARK    7  A    between atoms: CA_8  and  CB_9
REMARK    8  A    between atoms: CA_8  and  N_13
REMARK    9  A    between atoms: CB_9  and  CG_10
REMARK   10  A    between atoms: CG_10  and  OD2_12
REMARK   11  A    between atoms: C_14  and  C_16
REMARK   12  A    between atoms: C_16  and  N_17
REMARK   13  A    between atoms: C_16  and  C_27
REMARK   14  A    between atoms: C_18  and  CA_20
REMARK   15  A    between atoms: CA_20  and  N_21
REMARK   16  A    between atoms: CA_20  and  CB_22
REMARK   17  A    between atoms: CB_22  and  CG_23
REMARK   18  A    between atoms: CG_23  and  CD_24
REMARK   19  A    between atoms: CD_24  and  OE2_26
REMARK   20  A    between atoms: C_27  and  C_28
REMARK   21  A    between atoms: C_27  and  C_29
REMARK   22  A    between atoms: C_29  and  O_30
REMARK   23  A    between atoms: C_31  and  OXT_33
REMARK                            x       y       z     vdW  Elec       q    Type
REMARK                         _______ _______ _______ _____ _____    ______ ____
ROOT
ATOM      1  N   ASP A   3       2.471   6.789  20.120  0.00  0.00    +0.000 N 
ATOM      2  C   UNK A   2       2.249   5.432  20.258  0.00  0.00    +0.000 C 
ATOM      3  O   UNK A   2       1.154   4.970  20.566  0.00  0.00    +0.000 OA
ATOM      4  H   ASP A   3       3.430   7.096  19.996  0.00  0.00    +0.000 HD
ENDROOT
BRANCH   2   5
ATOM      5  C   UNK A   2       3.440   4.555  19.795  0.00  0.00    +0.000 C 
BRANCH   5   6
ATOM      6  N   UNK A   2       3.846   4.996  18.457  0.00  0.00    +0.000 N 
ATOM      7  C   GLU A   1       5.195   5.051  18.152  0.00  0.00    +0.000 C 
ATOM      8  O   GLU A   1       6.068   4.725  18.957  0.00  0.00    +0.000 OA
ATOM      9  H   UNK A   2       3.224   5.627  17.964  0.00  0.00    +0.000 HD
BRANCH   7  10
ATOM     10  CA  GLU A   1       5.549   5.640  16.773  0.00  0.00    +0.000 C 
BRANCH  10  11
ATOM     11  N   GLU A   1       6.222   6.949  16.927  0.00  0.00    +0.000 NA
ATOM     12  H1  GLU A   1       6.949   6.905  17.631  0.00  0.00    +0.000 HD
ATOM     13  H2  GLU A   1       5.538   7.632  17.251  0.00  0.00    +0.000 HD
ENDBRANCH  10  11
BRANCH  10  14
ATOM     14  CB  GLU A   1       6.439   4.673  15.976  0.00  0.00    +0.000 C 
BRANCH  14  15
ATOM     15  CG  GLU A   1       5.924   4.380  14.557  0.00  0.00    +0.000 C 
BRANCH  15  16
ATOM     16  CD  GLU A   1       6.983   4.653  13.519  0.00  0.00    +0.000 C 
ATOM     17  OE1 GLU A   1       7.012   4.168  12.403  0.00  0.00    +0.000 OA
BRANCH  16  18
ATOM     18  OE2 GLU A   1       7.947   5.501  13.929  0.00  0.00    +0.000 OA
ATOM     19  HE2 GLU A   1       8.821   5.446  13.463  0.00  0.00    +0.000 HD
ENDBRANCH  16  18
ENDBRANCH  15  16
ENDBRANCH  14  15
ENDBRANCH  10  14
ENDBRANCH   7  10
ENDBRANCH   5   6
BRANCH   5  20
ATOM     20  C   UNK A   2       3.206   3.029  19.877  0.00  0.00    +0.000 C 
ATOM     21  C   UNK A   2       4.351   2.199  20.460  0.00  0.00    +0.000 C 
BRANCH  20  22
ATOM     22  C   UNK A   2       2.814   2.474  18.503  0.00  0.00    +0.000 C 
BRANCH  22  23
ATOM     23  O   UNK A   2       3.930   1.850  17.883  0.00  0.00    +0.000 OA
ATOM     24  H   UNK A   2       3.901   2.049  16.932  0.00  0.00    +0.000 HD
ENDBRANCH  22  23
ENDBRANCH  20  22
ENDBRANCH   5  20
ENDBRANCH   2   5
BRANCH   1  25
ATOM     25  CA  ASP A   3       1.464   7.807  20.435  0.00  0.00    +0.000 C 
BRANCH  25  27
ATOM     26  N   VAL A   4       0.654  10.024  19.721  0.00  0.00    +0.000 N 
ATOM     27  C   ASP A   3       1.445   8.950  19.404  0.00  0.00    +0.000 C 
ATOM     28  O   ASP A   3       2.118   8.901  18.372  0.00  0.00    +0.000 OA
ATOM     29  H   VAL A   4       0.229  10.057  20.646  0.00  0.00    +0.000 HD
BRANCH  26  30
ATOM     30  CA  VAL A   4       0.585  11.205  18.854  0.00  0.00    +0.000 C 
BRANCH  30  32
ATOM     31  CG1 VAL A   4      -1.746  11.723  19.658  0.00  0.00    +0.000 C 
ATOM     32  CB  VAL A   4      -0.881  11.425  18.420  0.00  0.00    +0.000 C 
ATOM     33  CG2 VAL A   4      -1.505  10.244  17.674  0.00  0.00    +0.000 C 
ENDBRANCH  30  32
BRANCH  30  34
ATOM     34  C   VAL A   4       1.233  12.365  19.642  0.00  0.00    +0.000 C 
ATOM     35  O   VAL A   4       1.500  13.465  19.162  0.00  0.00    +0.000 OA
BRANCH  34  36
ATOM     36  OXT VAL A   4       1.456  12.102  20.953  0.00  0.00    +0.000 OA
ATOM     37  HXT VAL A   4       1.207  12.820  21.564  0.00  0.00    +0.000 HD
ENDBRANCH  34  36
ENDBRANCH  30  34
ENDBRANCH  26  30
ENDBRANCH  25  27
BRANCH  25  38
ATOM     38  CB  ASP A   3       1.664   8.431  21.814  0.00  0.00    +0.000 C 
BRANCH  38  39
ATOM     39  CG  ASP A   3       0.366   9.001  22.328  0.00  0.00    +0.000 C 
ATOM     40  OD1 ASP A   3       0.289  10.068  22.919  0.00  0.00    +0.000 OA
BRANCH  39  41
ATOM     41  OD2 ASP A   3      -0.729   8.273  22.016  0.00  0.00    +0.000 OA
ATOM     42  HD2 ASP A   3      -1.519   8.807  21.770  0.00  0.00    +0.000 HD
ENDBRANCH  39  41
ENDBRANCH  38  39
ENDBRANCH  25  38
ENDBRANCH   1  25
TORSDOF 20
ENDMDL
MODEL 9
REMARK VINA RESULT:      -6.6      1.761      2.455
REMARK  Name = 
REMARK  23 active torsions:
REMARK  status: ('A' for Active; 'I' for Inactive)
REMARK    1  A    between atoms: CG1_1  and  CB_2
REMARK    2  A    between atoms: CB_2  and  CG2_3
REMARK    3  A    between atoms: CB_2  and  CA_4
REMARK    4  A    between atoms: CA_4  and  N_5
REMARK    5  A    between atoms: CA_4  and  C_31
REMARK    6  A    between atoms: C_6  and  CA_8
REMARK    7  A    between atoms: CA_8  and  CB_9
REMARK    8  A    between atoms: CA_8  and  N_13
REMARK    9  A    between atoms: CB_9  and  CG_10
REMARK   10  A    between atoms: CG_10  and  OD2_12
REMARK   11  A    between atoms: C_14  and  C_16
REMARK   12  A    between atoms: C_16  and  N_17
REMARK   13  A    between atoms: C_16  and  C_27
REMARK   14  A    between atoms: C_18  and  CA_20
REMARK   15  A    between atoms: CA_20  and  N_21
REMARK   16  A    between atoms: CA_20  and  CB_22
REMARK   17  A    between atoms: CB_22  and  CG_23
REMARK   18  A    between atoms: CG_23  and  CD_24
REMARK   19  A    between atoms: CD_24  and  OE2_26
REMARK   20  A    between atoms: C_27  and  C_28
REMARK   21  A    between atoms: C_27  and  C_29
REMARK   22  A    between atoms: C_29  and  O_30
REMARK   23  A    between atoms: C_31  and  OXT_33
REMARK                            x       y       z     vdW  Elec       q    Type
REMARK                         _______ _______ _______ _____ _____    ______ ____
ROOT
ATOM      1  N   ASP A   3       2.256   7.055  20.648  0.00  0.00    +0.000 N 
ATOM      2  C   UNK A   2       1.995   5.700  20.585  0.00  0.00    +0.000 C 
ATOM      3  O   UNK A   2       0.855   5.246  20.583  0.00  0.00    +0.000 OA
ATOM      4  H   ASP A   3       3.221   7.341  20.780  0.00  0.00    +0.000 HD
ENDROOT
BRANCH   2   5
ATOM      5  C   UNK A   2       3.253   4.834  20.317  0.00  0.00    +0.000 C 
BRANCH   5   6
ATOM      6  N   UNK A   2       4.026   5.462  19.242  0.00  0.00    +0.000 N 
ATOM      7  C   GLU A   1       3.440   5.614  17.997  0.00  0.00    +0.000 C 
ATOM      8  O   GLU A   1       2.285   5.256  17.763  0.00  0.00    +0.000 OA
ATOM      9  H   UNK A   2       5.036   5.378  19.282  0.00  0.00    +0.000 HD
BRANCH   7  10
ATOM     10  CA  GLU A   1       4.353   6.168  16.887  0.00  0.00    +0.000 C 
BRANCH  10  11
ATOM     11  N   GLU A   1       5.071   7.372  17.361  0.00  0.00    +0.000 NA
ATOM     12  H1  GLU A   1       6.047   7.344  17.093  0.00  0.00    +0.000 HD
ATOM     13  H2  GLU A   1       5.045   7.388  18.380  0.00  0.00    +0.000 HD
ENDBRANCH  10  11
BRANCH  10  14
ATOM     14  CB  GLU A   1       5.353   5.100  16.416  0.00  0.00    +0.000 C 
BRANCH  14  15
ATOM     15  CG  GLU A   1       6.826   5.502  16.603  0.00  0.00    +0.000 C 
BRANCH  15  16
ATOM     16  CD  GLU A   1       7.449   4.783  17.773  0.00  0.00    +0.000 C 
ATOM     17  OE1 GLU A   1       8.408   4.037  17.706  0.00  0.00    +0.000 OA
BRANCH  16  18
ATOM     18  OE2 GLU A   1       6.840   5.021  18.951  0.00  0.00    +0.000 OA
ATOM     19  HE2 GLU A   1       6.794   5.965  19.250  0.00  0.00    +0.000 HD
ENDBRANCH  16  18
ENDBRANCH  15  16
ENDBRANCH  14  15
ENDBRANCH  10  14
ENDBRANCH   7  10
ENDBRANCH   5   6
BRANCH   5  20
ATOM     20  C   UNK A   2       2.979   3.335  20.060  0.00  0.00    +0.000 C 
ATOM     21  C   UNK A   2       2.642   2.488  21.288  0.00  0.00    +0.000 C 
BRANCH  20  22
ATOM     22  C   UNK A   2       4.151   2.700  19.302  0.00  0.00    +0.000 C 
BRANCH  22  23
ATOM     23  O   UNK A   2       5.053   2.083  20.210  0.00  0.00    +0.000 OA
ATOM     24  H   UNK A   2       4.927   1.120  20.157  0.00  0.00    +0.000 HD
ENDBRANCH  22  23
ENDBRANCH  20  22
ENDBRANCH   5  20
ENDBRANCH   2   5
BRANCH   1  25
ATOM     25  CA  ASP A   3       1.213   8.069  20.830  0.00  0.00    +0.000 C 
BRANCH  25  27
ATOM     26  N   VAL A   4      -0.174   9.652  19.544  0.00  0.00    +0.000 N 
ATOM     27  C   ASP A   3       0.967   8.891  19.552  0.00  0.00    +0.000 C 
ATOM     28  O   ASP A   3       1.761   8.874  18.608  0.00  0.00    +0.000 OA
ATOM     29  H   VAL A   4      -0.717   9.721  20.403  0.00  0.00    +0.000 HD
BRANCH  26  30
ATOM     30  CA  VAL A   4      -0.503  10.525  18.412  0.00  0.00    +0.000 C 
BRANCH  30  32
ATOM     31  CG1 VAL A   4      -2.157  10.170  16.545  0.00  0.00    +0.000 C 
ATOM     32  CB  VAL A   4      -1.999  10.353  18.064  0.00  0.00    +0.000 C 
ATOM     33  CG2 VAL A   4      -2.889  11.518  18.501  0.00  0.00    +0.000 C 
ENDBRANCH  30  32
BRANCH  30  34
ATOM     34  C   VAL A   4      -0.069  11.951  18.818  0.00  0.00    +0.000 C 
ATOM     35  O   VAL A   4       0.175  12.298  19.972  0.00  0.00    +0.000 OA
BRANCH  34  36
ATOM     36  OXT VAL A   4       0.076  12.813  17.782  0.00  0.00    +0.000 OA
ATOM     37  HXT VAL A   4       0.715  12.534  17.101  0.00  0.00    +0.000 HD
ENDBRANCH  34  36
ENDBRANCH  30  34
ENDBRANCH  26  30
ENDBRANCH  25  27
BRANCH  25  38
ATOM     38  CB  ASP A   3       1.530   9.050  21.956  0.00  0.00    +0.000 C 
BRANCH  38  39
ATOM     39  CG  ASP A   3       0.331   9.229  22.852  0.00  0.00    +0.000 C 
ATOM     40  OD1 ASP A   3      -0.812   8.975  22.503  0.00  0.00    +0.000 OA
BRANCH  39  41
ATOM     41  OD2 ASP A   3       0.625   9.623  24.112  0.00  0.00    +0.000 OA
ATOM     42  HD2 ASP A   3       0.091  10.383  24.438  0.00  0.00    +0.000 HD
ENDBRANCH  39  41
ENDBRANCH  38  39
ENDBRANCH  25  38
ENDBRANCH   1  25
TORSDOF 20
ENDMDL
