MODEL 1
REMARK VINA RESULT:      -7.6      0.000      0.000
REMARK  Name = 
REMARK  4 active torsions:
REMARK  status: ('A' for Active; 'I' for Inactive)
REMARK    1  A    between atoms: N_12  and  C_13
REMARK    2  A    between atoms: C_13  and  C_14
REMARK    3  A    between atoms: C_23  and  N_24
REMARK    4  A    between atoms: C_28  and  C_29
REMARK                            x       y       z     vdW  Elec       q    Type
REMARK                         _______ _______ _______ _____ _____    ______ ____
ROOT
ATOM      1  O   UNL     1       3.092   8.963  17.020  0.00  0.00    +0.000 OA
ATOM      2  C   UNL     1       2.431   8.484  17.939  0.00  0.00    +0.000 A 
ATOM      3  N   UNL     1       1.442   9.209  18.534  0.00  0.00    +0.000 NA
ATOM      4  C   UNL     1       0.877   8.919  19.656  0.00  0.00    +0.000 A 
ATOM      5  N   UNL     1      -0.071   9.754  20.223  0.00  0.00    +0.000 N 
ATOM      6  C   UNL     1       0.130  10.289  21.575  0.00  0.00    +0.000 C 
ATOM      7  C   UNL     1       0.606  11.739  21.502  0.00  0.00    +0.000 C 
ATOM      8  C   UNL     1      -0.425  12.579  20.730  0.00  0.00    +0.000 C 
ATOM      9  C   UNL     1      -0.509  12.023  19.300  0.00  0.00    +0.000 C 
ATOM     10  C   UNL     1      -0.958  10.558  19.369  0.00  0.00    +0.000 C 
ATOM     11  C   UNL     1      -0.254  14.114  20.907  0.00  0.00    +0.000 C 
ATOM     12  N   UNL     1      -1.436  14.154  21.816  0.00  0.00    +0.000 NA
ATOM     13  C   UNL     1      -1.828  12.811  21.363  0.00  0.00    +0.000 C 
ATOM     14  S   UNL     1       1.194   7.456  20.565  0.00  0.00    +0.000 S 
ATOM     15  C   UNL     1       2.182   6.498  19.460  0.00  0.00    +0.000 A 
ATOM     16  C   UNL     1       2.521   5.156  19.719  0.00  0.00    +0.000 A 
ATOM     17  C   UNL     1       3.437   4.433  18.934  0.00  0.00    +0.000 A 
ATOM     18  C   UNL     1       4.039   5.049  17.836  0.00  0.00    +0.000 A 
ATOM     19  C   UNL     1       3.672   6.370  17.537  0.00  0.00    +0.000 A 
ATOM     20  C   UNL     1       2.751   7.087  18.330  0.00  0.00    +0.000 A 
ENDROOT
BRANCH  18  21
ATOM     21  C   UNL     1       5.065   4.333  16.987  0.00  0.00    +0.000 C 
ATOM     22  F   UNL     1       6.300   4.300  17.557  0.00  0.00    +0.000 F 
ATOM     23  F   UNL     1       4.726   3.040  16.745  0.00  0.00    +0.000 F 
ATOM     24  F   UNL     1       5.229   4.921  15.771  0.00  0.00    +0.000 F 
ENDBRANCH  18  21
BRANCH  16  25
ATOM     25  N   UNL     1       1.919   4.436  20.828  0.00  0.00    +0.000 N 
ATOM     26  O   UNL     1       0.805   3.933  20.637  0.00  0.00    +0.000 OA
ATOM     27  O   UNL     1       2.602   4.326  21.855  0.00  0.00    +0.000 OA
ENDBRANCH  16  25
BRANCH  12  28
ATOM     28  C   UNL     1      -1.016  14.176  23.227  0.00  0.00    +0.000 C 
BRANCH  28  29
ATOM     29  C   UNL     1      -1.006  15.554  23.950  0.00  0.00    +0.000 C 
ATOM     30  C   UNL     1      -1.870  16.678  23.342  0.00  0.00    +0.000 C 
ATOM     31  C   UNL     1      -3.380  16.503  23.533  0.00  0.00    +0.000 C 
ATOM     32  C   UNL     1      -3.774  16.172  24.971  0.00  0.00    +0.000 C 
ATOM     33  C   UNL     1      -2.932  15.043  25.550  0.00  0.00    +0.000 C 
ATOM     34  C   UNL     1      -1.440  15.356  25.420  0.00  0.00    +0.000 C 
ENDBRANCH  28  29
ENDBRANCH  12  28
TORSDOF 4
ENDMDL
MODEL 2
REMARK VINA RESULT:      -7.5      0.911      1.581
REMARK  Name = 
REMARK  4 active torsions:
REMARK  status: ('A' for Active; 'I' for Inactive)
REMARK    1  A    between atoms: N_12  and  C_13
REMARK    2  A    between atoms: C_13  and  C_14
REMARK    3  A    between atoms: C_23  and  N_24
REMARK    4  A    between atoms: C_28  and  C_29
REMARK                            x       y       z     vdW  Elec       q    Type
REMARK                         _______ _______ _______ _____ _____    ______ ____
ROOT
ATOM      1  O   UNL     1       2.691   9.765  17.205  0.00  0.00    +0.000 OA
ATOM      2  C   UNL     1       2.078   9.189  18.100  0.00  0.00    +0.000 A 
ATOM      3  N   UNL     1       1.062   9.815  18.760  0.00  0.00    +0.000 NA
ATOM      4  C   UNL     1       0.539   9.418  19.870  0.00  0.00    +0.000 A 
ATOM      5  N   UNL     1      -0.442  10.157  20.509  0.00  0.00    +0.000 N 
ATOM      6  C   UNL     1      -0.243  10.612  21.890  0.00  0.00    +0.000 C 
ATOM      7  C   UNL     1       0.149  12.089  21.907  0.00  0.00    +0.000 C 
ATOM      8  C   UNL     1      -0.944  12.917  21.212  0.00  0.00    +0.000 C 
ATOM      9  C   UNL     1      -1.027  12.454  19.749  0.00  0.00    +0.000 C 
ATOM     10  C   UNL     1      -1.391  10.964  19.727  0.00  0.00    +0.000 C 
ATOM     11  C   UNL     1      -0.856  14.445  21.488  0.00  0.00    +0.000 C 
ATOM     12  N   UNL     1      -2.019  14.356  22.419  0.00  0.00    +0.000 NA
ATOM     13  C   UNL     1      -2.344  13.026  21.883  0.00  0.00    +0.000 C 
ATOM     14  S   UNL     1       0.957   7.919  20.673  0.00  0.00    +0.000 S 
ATOM     15  C   UNL     1       1.974   7.095  19.488  0.00  0.00    +0.000 A 
ATOM     16  C   UNL     1       2.394   5.760  19.650  0.00  0.00    +0.000 A 
ATOM     17  C   UNL     1       3.332   5.146  18.801  0.00  0.00    +0.000 A 
ATOM     18  C   UNL     1       3.874   5.867  17.737  0.00  0.00    +0.000 A 
ATOM     19  C   UNL     1       3.428   7.181  17.535  0.00  0.00    +0.000 A 
ATOM     20  C   UNL     1       2.484   7.790  18.390  0.00  0.00    +0.000 A 
ENDROOT
BRANCH  18  21
ATOM     21  C   UNL     1       4.921   5.269  16.823  0.00  0.00    +0.000 C 
ATOM     22  F   UNL     1       4.519   4.108  16.239  0.00  0.00    +0.000 F 
ATOM     23  F   UNL     1       5.261   6.105  15.809  0.00  0.00    +0.000 F 
ATOM     24  F   UNL     1       6.074   4.976  17.484  0.00  0.00    +0.000 F 
ENDBRANCH  18  21
BRANCH  16  25
ATOM     25  N   UNL     1       1.858   4.935  20.718  0.00  0.00    +0.000 N 
ATOM     26  O   UNL     1       0.761   4.398  20.521  0.00  0.00    +0.000 OA
ATOM     27  O   UNL     1       2.576   4.781  21.715  0.00  0.00    +0.000 OA
ENDBRANCH  16  25
BRANCH  12  28
ATOM     28  C   UNL     1      -1.571  14.308  23.821  0.00  0.00    +0.000 C 
BRANCH  28  29
ATOM     29  C   UNL     1      -2.360  15.163  24.854  0.00  0.00    +0.000 C 
ATOM     30  C   UNL     1      -1.654  15.497  26.184  0.00  0.00    +0.000 C 
ATOM     31  C   UNL     1      -0.528  16.532  26.071  0.00  0.00    +0.000 C 
ATOM     32  C   UNL     1      -0.930  17.781  25.290  0.00  0.00    +0.000 C 
ATOM     33  C   UNL     1      -1.603  17.438  23.968  0.00  0.00    +0.000 C 
ATOM     34  C   UNL     1      -2.785  16.493  24.189  0.00  0.00    +0.000 C 
ENDBRANCH  28  29
ENDBRANCH  12  28
TORSDOF 4
ENDMDL
MODEL 3
REMARK VINA RESULT:      -7.5      1.176      1.417
REMARK  Name = 
REMARK  4 active torsions:
REMARK  status: ('A' for Active; 'I' for Inactive)
REMARK    1  A    between atoms: N_12  and  C_13
REMARK    2  A    between atoms: C_13  and  C_14
REMARK    3  A    between atoms: C_23  and  N_24
REMARK    4  A    between atoms: C_28  and  C_29
REMARK                            x       y       z     vdW  Elec       q    Type
REMARK                         _______ _______ _______ _____ _____    ______ ____
ROOT
ATOM      1  O   UNL     1       3.159   9.185  17.175  0.00  0.00    +0.000 OA
ATOM      2  C   UNL     1       2.444   8.655  18.023  0.00  0.00    +0.000 A 
ATOM      3  N   UNL     1       1.352   9.305  18.515  0.00  0.00    +0.000 NA
ATOM      4  C   UNL     1       0.700   8.969  19.576  0.00  0.00    +0.000 A 
ATOM      5  N   UNL     1      -0.356   9.731  20.044  0.00  0.00    +0.000 N 
ATOM      6  C   UNL     1      -0.330  10.271  21.409  0.00  0.00    +0.000 C 
ATOM      7  C   UNL     1       0.047  11.751  21.383  0.00  0.00    +0.000 C 
ATOM      8  C   UNL     1      -0.957  12.521  20.511  0.00  0.00    +0.000 C 
ATOM      9  C   UNL     1      -0.858  11.970  19.080  0.00  0.00    +0.000 C 
ATOM     10  C   UNL     1      -1.208  10.477  19.104  0.00  0.00    +0.000 C 
ATOM     11  C   UNL     1      -0.913  14.064  20.703  0.00  0.00    +0.000 C 
ATOM     12  N   UNL     1      -2.180  14.015  21.489  0.00  0.00    +0.000 NA
ATOM     13  C   UNL     1      -2.429  12.651  21.000  0.00  0.00    +0.000 C 
ATOM     14  S   UNL     1       1.026   7.526  20.512  0.00  0.00    +0.000 S 
ATOM     15  C   UNL     1       2.184   6.646  19.512  0.00  0.00    +0.000 A 
ATOM     16  C   UNL     1       2.589   5.329  19.805  0.00  0.00    +0.000 A 
ATOM     17  C   UNL     1       3.628   4.678  19.116  0.00  0.00    +0.000 A 
ATOM     18  C   UNL     1       4.292   5.341  18.083  0.00  0.00    +0.000 A 
ATOM     19  C   UNL     1       3.865   6.635  17.749  0.00  0.00    +0.000 A 
ATOM     20  C   UNL     1       2.821   7.281  18.444  0.00  0.00    +0.000 A 
ENDROOT
BRANCH  18  21
ATOM     21  C   UNL     1       5.446   4.704  17.342  0.00  0.00    +0.000 C 
ATOM     22  F   UNL     1       6.035   5.545  16.449  0.00  0.00    +0.000 F 
ATOM     23  F   UNL     1       6.433   4.291  18.178  0.00  0.00    +0.000 F 
ATOM     24  F   UNL     1       5.060   3.610  16.631  0.00  0.00    +0.000 F 
ENDBRANCH  18  21
BRANCH  16  25
ATOM     25  N   UNL     1       1.932   4.562  20.848  0.00  0.00    +0.000 N 
ATOM     26  O   UNL     1       0.809   4.109  20.594  0.00  0.00    +0.000 OA
ATOM     27  O   UNL     1       2.579   4.366  21.885  0.00  0.00    +0.000 OA
ENDBRANCH  16  25
BRANCH  12  28
ATOM     28  C   UNL     1      -1.906  14.057  22.935  0.00  0.00    +0.000 C 
BRANCH  28  29
ATOM     29  C   UNL     1      -2.971  14.736  23.846  0.00  0.00    +0.000 C 
ATOM     30  C   UNL     1      -4.280  15.203  23.177  0.00  0.00    +0.000 C 
ATOM     31  C   UNL     1      -5.233  14.074  22.772  0.00  0.00    +0.000 C 
ATOM     32  C   UNL     1      -5.474  13.056  23.885  0.00  0.00    +0.000 C 
ATOM     33  C   UNL     1      -4.173  12.583  24.519  0.00  0.00    +0.000 C 
ATOM     34  C   UNL     1      -3.338  13.772  24.998  0.00  0.00    +0.000 C 
ENDBRANCH  28  29
ENDBRANCH  12  28
TORSDOF 4
ENDMDL
MODEL 4
REMARK VINA RESULT:      -7.0      0.933      1.269
REMARK  Name = 
REMARK  4 active torsions:
REMARK  status: ('A' for Active; 'I' for Inactive)
REMARK    1  A    between atoms: N_12  and  C_13
REMARK    2  A    between atoms: C_13  and  C_14
REMARK    3  A    between atoms: C_23  and  N_24
REMARK    4  A    between atoms: C_28  and  C_29
REMARK                            x       y       z     vdW  Elec       q    Type
REMARK                         _______ _______ _______ _____ _____    ______ ____
ROOT
ATOM      1  O   UNL     1       2.617   9.983  17.284  0.00  0.00    +0.000 OA
ATOM      2  C   UNL     1       2.014   9.373  18.164  0.00  0.00    +0.000 A 
ATOM      3  N   UNL     1       0.992   9.966  18.843  0.00  0.00    +0.000 NA
ATOM      4  C   UNL     1       0.477   9.531  19.943  0.00  0.00    +0.000 A 
ATOM      5  N   UNL     1      -0.513  10.238  20.604  0.00  0.00    +0.000 N 
ATOM      6  C   UNL     1      -0.316  10.656  21.998  0.00  0.00    +0.000 C 
ATOM      7  C   UNL     1       0.055  12.137  22.056  0.00  0.00    +0.000 C 
ATOM      8  C   UNL     1      -1.050  12.970  21.387  0.00  0.00    +0.000 C 
ATOM      9  C   UNL     1      -1.130  12.547  19.911  0.00  0.00    +0.000 C 
ATOM     10  C   UNL     1      -1.475  11.054  19.847  0.00  0.00    +0.000 C 
ATOM     11  C   UNL     1      -0.982  14.490  21.707  0.00  0.00    +0.000 C 
ATOM     12  N   UNL     1      -2.141  14.358  22.637  0.00  0.00    +0.000 NA
ATOM     13  C   UNL     1      -2.450  13.040  22.064  0.00  0.00    +0.000 C 
ATOM     14  S   UNL     1       0.917   8.015  20.701  0.00  0.00    +0.000 S 
ATOM     15  C   UNL     1       1.941   7.239  19.491  0.00  0.00    +0.000 A 
ATOM     16  C   UNL     1       2.380   5.906  19.614  0.00  0.00    +0.000 A 
ATOM     17  C   UNL     1       3.324   5.329  18.747  0.00  0.00    +0.000 A 
ATOM     18  C   UNL     1       3.854   6.087  17.702  0.00  0.00    +0.000 A 
ATOM     19  C   UNL     1       3.389   7.400  17.539  0.00  0.00    +0.000 A 
ATOM     20  C   UNL     1       2.440   7.972  18.413  0.00  0.00    +0.000 A 
ENDROOT
BRANCH  18  21
ATOM     21  C   UNL     1       4.907   5.530  16.770  0.00  0.00    +0.000 C 
ATOM     22  F   UNL     1       6.078   5.242  17.400  0.00  0.00    +0.000 F 
ATOM     23  F   UNL     1       4.509   4.379  16.169  0.00  0.00    +0.000 F 
ATOM     24  F   UNL     1       5.221   6.397  15.770  0.00  0.00    +0.000 F 
ENDBRANCH  18  21
BRANCH  16  25
ATOM     25  N   UNL     1       1.857   5.043  20.660  0.00  0.00    +0.000 N 
ATOM     26  O   UNL     1       0.761   4.509  20.456  0.00  0.00    +0.000 OA
ATOM     27  O   UNL     1       2.586   4.858  21.643  0.00  0.00    +0.000 OA
ENDBRANCH  16  25
BRANCH  12  28
ATOM     28  C   UNL     1      -1.689  14.277  24.036  0.00  0.00    +0.000 C 
BRANCH  28  29
ATOM     29  C   UNL     1      -2.260  15.325  25.035  0.00  0.00    +0.000 C 
ATOM     30  C   UNL     1      -1.540  16.687  25.119  0.00  0.00    +0.000 C 
ATOM     31  C   UNL     1      -1.757  17.605  23.911  0.00  0.00    +0.000 C 
ATOM     32  C   UNL     1      -3.225  17.740  23.511  0.00  0.00    +0.000 C 
ATOM     33  C   UNL     1      -3.917  16.388  23.404  0.00  0.00    +0.000 C 
ATOM     34  C   UNL     1      -3.746  15.588  24.697  0.00  0.00    +0.000 C 
ENDBRANCH  28  29
ENDBRANCH  12  28
TORSDOF 4
ENDMDL
MODEL 5
REMARK VINA RESULT:      -6.8      6.845      9.601
REMARK  Name = 
REMARK  4 active torsions:
REMARK  status: ('A' for Active; 'I' for Inactive)
REMARK    1  A    between atoms: N_12  and  C_13
REMARK    2  A    between atoms: C_13  and  C_14
REMARK    3  A    between atoms: C_23  and  N_24
REMARK    4  A    between atoms: C_28  and  C_29
REMARK                            x       y       z     vdW  Elec       q    Type
REMARK                         _______ _______ _______ _____ _____    ______ ____
ROOT
ATOM      1  O   UNL     1       5.140  13.615  23.568  0.00  0.00    +0.000 OA
ATOM      2  C   UNL     1       4.961  14.109  22.457  0.00  0.00    +0.000 A 
ATOM      3  N   UNL     1       3.749  14.011  21.840  0.00  0.00    +0.000 NA
ATOM      4  C   UNL     1       3.526  14.249  20.592  0.00  0.00    +0.000 A 
ATOM      5  N   UNL     1       2.275  14.053  20.034  0.00  0.00    +0.000 N 
ATOM      6  C   UNL     1       2.111  13.149  18.889  0.00  0.00    +0.000 C 
ATOM      7  C   UNL     1       1.539  11.810  19.354  0.00  0.00    +0.000 C 
ATOM      8  C   UNL     1       0.195  12.044  20.062  0.00  0.00    +0.000 C 
ATOM      9  C   UNL     1       0.461  12.915  21.300  0.00  0.00    +0.000 C 
ATOM     10  C   UNL     1       1.062  14.249  20.841  0.00  0.00    +0.000 C 
ATOM     11  C   UNL     1      -0.659  10.758  20.245  0.00  0.00    +0.000 C 
ATOM     12  N   UNL     1      -1.571  11.193  19.147  0.00  0.00    +0.000 NA
ATOM     13  C   UNL     1      -1.015  12.551  19.224  0.00  0.00    +0.000 C 
ATOM     14  S   UNL     1       4.729  14.872  19.482  0.00  0.00    +0.000 S 
ATOM     15  C   UNL     1       6.079  15.289  20.539  0.00  0.00    +0.000 A 
ATOM     16  C   UNL     1       7.208  15.996  20.081  0.00  0.00    +0.000 A 
ATOM     17  C   UNL     1       8.358  16.192  20.866  0.00  0.00    +0.000 A 
ATOM     18  C   UNL     1       8.401  15.684  22.165  0.00  0.00    +0.000 A 
ATOM     19  C   UNL     1       7.264  15.021  22.651  0.00  0.00    +0.000 A 
ATOM     20  C   UNL     1       6.112  14.830  21.857  0.00  0.00    +0.000 A 
ENDROOT
BRANCH  18  21
ATOM     21  C   UNL     1       9.630  15.826  23.034  0.00  0.00    +0.000 C 
ATOM     22  F   UNL     1      10.757  15.339  22.447  0.00  0.00    +0.000 F 
ATOM     23  F   UNL     1       9.896  17.120  23.347  0.00  0.00    +0.000 F 
ATOM     24  F   UNL     1       9.505  15.162  24.215  0.00  0.00    +0.000 F 
ENDBRANCH  18  21
BRANCH  16  25
ATOM     25  N   UNL     1       7.234  16.577  18.750  0.00  0.00    +0.000 N 
ATOM     26  O   UNL     1       6.766  17.715  18.621  0.00  0.00    +0.000 OA
ATOM     27  O   UNL     1       7.785  15.912  17.863  0.00  0.00    +0.000 OA
ENDBRANCH  16  25
BRANCH  12  28
ATOM     28  C   UNL     1      -1.236  10.515  17.883  0.00  0.00    +0.000 C 
BRANCH  28  29
ATOM     29  C   UNL     1      -2.339   9.632  17.230  0.00  0.00    +0.000 C 
ATOM     30  C   UNL     1      -3.705   9.565  17.942  0.00  0.00    +0.000 C 
ATOM     31  C   UNL     1      -4.551  10.839  17.831  0.00  0.00    +0.000 C 
ATOM     32  C   UNL     1      -4.658  11.371  16.404  0.00  0.00    +0.000 C 
ATOM     33  C   UNL     1      -3.299  11.458  15.721  0.00  0.00    +0.000 C 
ATOM     34  C   UNL     1      -2.576  10.111  15.779  0.00  0.00    +0.000 C 
ENDBRANCH  28  29
ENDBRANCH  12  28
TORSDOF 4
ENDMDL
MODEL 6
REMARK VINA RESULT:      -6.8      6.892      9.635
REMARK  Name = 
REMARK  4 active torsions:
REMARK  status: ('A' for Active; 'I' for Inactive)
REMARK    1  A    between atoms: N_12  and  C_13
REMARK    2  A    between atoms: C_13  and  C_14
REMARK    3  A    between atoms: C_23  and  N_24
REMARK    4  A    between atoms: C_28  and  C_29
REMARK                            x       y       z     vdW  Elec       q    Type
REMARK                         _______ _______ _______ _____ _____    ______ ____
ROOT
ATOM      1  O   UNL     1       4.902  14.092  23.921  0.00  0.00    +0.000 OA
ATOM      2  C   UNL     1       4.762  14.493  22.768  0.00  0.00    +0.000 A 
ATOM      3  N   UNL     1       3.551  14.414  22.147  0.00  0.00    +0.000 NA
ATOM      4  C   UNL     1       3.353  14.550  20.880  0.00  0.00    +0.000 A 
ATOM      5  N   UNL     1       2.097  14.381  20.325  0.00  0.00    +0.000 N 
ATOM      6  C   UNL     1       1.885  13.387  19.265  0.00  0.00    +0.000 C 
ATOM      7  C   UNL     1       1.228  12.134  19.841  0.00  0.00    +0.000 C 
ATOM      8  C   UNL     1      -0.104  12.514  20.507  0.00  0.00    +0.000 C 
ATOM      9  C   UNL     1       0.206  13.476  21.666  0.00  0.00    +0.000 C 
ATOM     10  C   UNL     1       0.892  14.723  21.096  0.00  0.00    +0.000 C 
ATOM     11  C   UNL     1      -1.038  11.304  20.795  0.00  0.00    +0.000 C 
ATOM     12  N   UNL     1      -1.913  11.692  19.650  0.00  0.00    +0.000 NA
ATOM     13  C   UNL     1      -1.275  13.015  19.612  0.00  0.00    +0.000 C 
ATOM     14  S   UNL     1       4.600  14.995  19.733  0.00  0.00    +0.000 S 
ATOM     15  C   UNL     1       5.966  15.423  20.766  0.00  0.00    +0.000 A 
ATOM     16  C   UNL     1       7.140  16.015  20.260  0.00  0.00    +0.000 A 
ATOM     17  C   UNL     1       8.294  16.210  21.039  0.00  0.00    +0.000 A 
ATOM     18  C   UNL     1       8.295  15.822  22.380  0.00  0.00    +0.000 A 
ATOM     19  C   UNL     1       7.116  15.277  22.909  0.00  0.00    +0.000 A 
ATOM     20  C   UNL     1       5.961  15.085  22.120  0.00  0.00    +0.000 A 
ENDROOT
BRANCH  18  21
ATOM     21  C   UNL     1       9.525  15.966  23.248  0.00  0.00    +0.000 C 
ATOM     22  F   UNL     1       9.463  15.224  24.387  0.00  0.00    +0.000 F 
ATOM     23  F   UNL     1      10.659  15.583  22.608  0.00  0.00    +0.000 F 
ATOM     24  F   UNL     1       9.724  17.251  23.649  0.00  0.00    +0.000 F 
ENDBRANCH  18  21
BRANCH  16  25
ATOM     25  N   UNL     1       7.211  16.469  18.883  0.00  0.00    +0.000 N 
ATOM     26  O   UNL     1       7.612  15.658  18.040  0.00  0.00    +0.000 OA
ATOM     27  O   UNL     1       6.799  17.614  18.653  0.00  0.00    +0.000 OA
ENDBRANCH  16  25
BRANCH  12  28
ATOM     28  C   UNL     1      -1.612  10.883  18.457  0.00  0.00    +0.000 C 
BRANCH  28  29
ATOM     29  C   UNL     1      -2.735   9.947  17.924  0.00  0.00    +0.000 C 
ATOM     30  C   UNL     1      -4.188  10.457  18.025  0.00  0.00    +0.000 C 
ATOM     31  C   UNL     1      -4.546  11.576  17.041  0.00  0.00    +0.000 C 
ATOM     32  C   UNL     1      -4.127  11.275  15.603  0.00  0.00    +0.000 C 
ATOM     33  C   UNL     1      -2.684  10.798  15.514  0.00  0.00    +0.000 C 
ATOM     34  C   UNL     1      -2.448   9.606  16.444  0.00  0.00    +0.000 C 
ENDBRANCH  28  29
ENDBRANCH  12  28
TORSDOF 4
ENDMDL
MODEL 7
REMARK VINA RESULT:      -6.8      0.698      1.487
REMARK  Name = 
REMARK  4 active torsions:
REMARK  status: ('A' for Active; 'I' for Inactive)
REMARK    1  A    between atoms: N_12  and  C_13
REMARK    2  A    between atoms: C_13  and  C_14
REMARK    3  A    between atoms: C_23  and  N_24
REMARK    4  A    between atoms: C_28  and  C_29
REMARK                            x       y       z     vdW  Elec       q    Type
REMARK                         _______ _______ _______ _____ _____    ______ ____
ROOT
ATOM      1  O   UNL     1       3.143   9.247  17.035  0.00  0.00    +0.000 OA
ATOM      2  C   UNL     1       2.423   8.757  17.902  0.00  0.00    +0.000 A 
ATOM      3  N   UNL     1       1.337   9.437  18.368  0.00  0.00    +0.000 NA
ATOM      4  C   UNL     1       0.681   9.148  19.440  0.00  0.00    +0.000 A 
ATOM      5  N   UNL     1      -0.367   9.939  19.878  0.00  0.00    +0.000 N 
ATOM      6  C   UNL     1      -0.336  10.529  21.222  0.00  0.00    +0.000 C 
ATOM      7  C   UNL     1       0.057  12.003  21.140  0.00  0.00    +0.000 C 
ATOM      8  C   UNL     1      -0.939  12.750  20.238  0.00  0.00    +0.000 C 
ATOM      9  C   UNL     1      -0.845  12.145  18.829  0.00  0.00    +0.000 C 
ATOM     10  C   UNL     1      -1.211  10.657  18.910  0.00  0.00    +0.000 C 
ATOM     11  C   UNL     1      -0.878  14.299  20.372  0.00  0.00    +0.000 C 
ATOM     12  N   UNL     1      -2.147  14.293  21.158  0.00  0.00    +0.000 NA
ATOM     13  C   UNL     1      -2.410  12.914  20.721  0.00  0.00    +0.000 C 
ATOM     14  S   UNL     1       0.991   7.738  20.431  0.00  0.00    +0.000 S 
ATOM     15  C   UNL     1       2.141   6.809  19.466  0.00  0.00    +0.000 A 
ATOM     16  C   UNL     1       2.532   5.500  19.810  0.00  0.00    +0.000 A 
ATOM     17  C   UNL     1       3.564   4.812  19.147  0.00  0.00    +0.000 A 
ATOM     18  C   UNL     1       4.235   5.429  18.090  0.00  0.00    +0.000 A 
ATOM     19  C   UNL     1       3.823   6.713  17.707  0.00  0.00    +0.000 A 
ATOM     20  C   UNL     1       2.785   7.396  18.376  0.00  0.00    +0.000 A 
ENDROOT
BRANCH  18  21
ATOM     21  C   UNL     1       5.383   4.752  17.375  0.00  0.00    +0.000 C 
ATOM     22  F   UNL     1       4.994   3.670  16.647  0.00  0.00    +0.000 F 
ATOM     23  F   UNL     1       6.015   5.584  16.507  0.00  0.00    +0.000 F 
ATOM     24  F   UNL     1       6.333   4.301  18.238  0.00  0.00    +0.000 F 
ENDBRANCH  18  21
BRANCH  16  25
ATOM     25  N   UNL     1       1.866   4.780  20.880  0.00  0.00    +0.000 N 
ATOM     26  O   UNL     1       2.484   4.649  21.943  0.00  0.00    +0.000 OA
ATOM     27  O   UNL     1       0.702   4.415  20.665  0.00  0.00    +0.000 OA
ENDBRANCH  16  25
BRANCH  12  28
ATOM     28  C   UNL     1      -1.873  14.387  22.602  0.00  0.00    +0.000 C 
BRANCH  28  29
ATOM     29  C   UNL     1      -2.557  15.545  23.386  0.00  0.00    +0.000 C 
ATOM     30  C   UNL     1      -3.269  15.182  24.705  0.00  0.00    +0.000 C 
ATOM     31  C   UNL     1      -2.332  14.843  25.869  0.00  0.00    +0.000 C 
ATOM     32  C   UNL     1      -1.217  15.868  26.066  0.00  0.00    +0.000 C 
ATOM     33  C   UNL     1      -0.505  16.198  24.761  0.00  0.00    +0.000 C 
ATOM     34  C   UNL     1      -1.506  16.636  23.692  0.00  0.00    +0.000 C 
ENDBRANCH  28  29
ENDBRANCH  12  28
TORSDOF 4
ENDMDL
MODEL 8
REMARK VINA RESULT:      -6.6      0.635      1.046
REMARK  Name = 
REMARK  4 active torsions:
REMARK  status: ('A' for Active; 'I' for Inactive)
REMARK    1  A    between atoms: N_12  and  C_13
REMARK    2  A    between atoms: C_13  and  C_14
REMARK    3  A    between atoms: C_23  and  N_24
REMARK    4  A    between atoms: C_28  and  C_29
REMARK                            x       y       z     vdW  Elec       q    Type
REMARK                         _______ _______ _______ _____ _____    ______ ____
ROOT
ATOM      1  O   UNL     1       3.282   9.018  16.928  0.00  0.00    +0.000 OA
ATOM      2  C   UNL     1       2.543   8.575  17.805  0.00  0.00    +0.000 A 
ATOM      3  N   UNL     1       1.469   9.295  18.236  0.00  0.00    +0.000 NA
ATOM      4  C   UNL     1       0.797   9.060  19.311  0.00  0.00    +0.000 A 
ATOM      5  N   UNL     1      -0.237   9.889  19.711  0.00  0.00    +0.000 N 
ATOM      6  C   UNL     1      -0.204  10.525  21.033  0.00  0.00    +0.000 C 
ATOM      7  C   UNL     1       0.223  11.987  20.903  0.00  0.00    +0.000 C 
ATOM      8  C   UNL     1      -0.748  12.723  19.966  0.00  0.00    +0.000 C 
ATOM      9  C   UNL     1      -0.655  12.066  18.580  0.00  0.00    +0.000 C 
ATOM     10  C   UNL     1      -1.055  10.591  18.710  0.00  0.00    +0.000 C 
ATOM     11  C   UNL     1      -0.653  14.274  20.045  0.00  0.00    +0.000 C 
ATOM     12  N   UNL     1      -1.928  14.324  20.819  0.00  0.00    +0.000 NA
ATOM     13  C   UNL     1      -2.219  12.937  20.428  0.00  0.00    +0.000 C 
ATOM     14  S   UNL     1       1.067   7.680  20.355  0.00  0.00    +0.000 S 
ATOM     15  C   UNL     1       2.204   6.691  19.434  0.00  0.00    +0.000 A 
ATOM     16  C   UNL     1       2.562   5.387  19.828  0.00  0.00    +0.000 A 
ATOM     17  C   UNL     1       3.584   4.653  19.199  0.00  0.00    +0.000 A 
ATOM     18  C   UNL     1       4.278   5.216  18.128  0.00  0.00    +0.000 A 
ATOM     19  C   UNL     1       3.898   6.495  17.695  0.00  0.00    +0.000 A 
ATOM     20  C   UNL     1       2.870   7.225  18.330  0.00  0.00    +0.000 A 
ENDROOT
BRANCH  18  21
ATOM     21  C   UNL     1       5.417   4.489  17.448  0.00  0.00    +0.000 C 
ATOM     22  F   UNL     1       5.999   5.218  16.458  0.00  0.00    +0.000 F 
ATOM     23  F   UNL     1       6.412   4.162  18.313  0.00  0.00    +0.000 F 
ATOM     24  F   UNL     1       5.012   3.326  16.870  0.00  0.00    +0.000 F 
ENDBRANCH  18  21
BRANCH  16  25
ATOM     25  N   UNL     1       1.870   4.720  20.917  0.00  0.00    +0.000 N 
ATOM     26  O   UNL     1       0.716   4.331  20.699  0.00  0.00    +0.000 OA
ATOM     27  O   UNL     1       2.518   4.535  21.955  0.00  0.00    +0.000 OA
ENDBRANCH  16  25
BRANCH  12  28
ATOM     28  C   UNL     1      -1.665  14.463  22.261  0.00  0.00    +0.000 C 
BRANCH  28  29
ATOM     29  C   UNL     1      -1.881  15.868  22.895  0.00  0.00    +0.000 C 
ATOM     30  C   UNL     1      -3.285  16.188  23.448  0.00  0.00    +0.000 C 
ATOM     31  C   UNL     1      -3.645  15.460  24.747  0.00  0.00    +0.000 C 
ATOM     32  C   UNL     1      -2.559  15.556  25.816  0.00  0.00    +0.000 C 
ATOM     33  C   UNL     1      -1.181  15.212  25.265  0.00  0.00    +0.000 C 
ATOM     34  C   UNL     1      -0.858  16.068  24.038  0.00  0.00    +0.000 C 
ENDBRANCH  28  29
ENDBRANCH  12  28
TORSDOF 4
ENDMDL
MODEL 9
REMARK VINA RESULT:      -6.5      5.526     10.378
REMARK  Name = 
REMARK  4 active torsions:
REMARK  status: ('A' for Active; 'I' for Inactive)
REMARK    1  A    between atoms: N_12  and  C_13
REMARK    2  A    between atoms: C_13  and  C_14
REMARK    3  A    between atoms: C_23  and  N_24
REMARK    4  A    between atoms: C_28  and  C_29
REMARK                            x       y       z     vdW  Elec       q    Type
REMARK                         _______ _______ _______ _____ _____    ______ ____
ROOT
ATOM      1  O   UNL     1      -2.616  10.483  17.510  0.00  0.00    +0.000 OA
ATOM      2  C   UNL     1      -1.810  10.698  18.413  0.00  0.00    +0.000 A 
ATOM      3  N   UNL     1      -0.570  10.131  18.386  0.00  0.00    +0.000 NA
ATOM      4  C   UNL     1       0.242  10.068  19.385  0.00  0.00    +0.000 A 
ATOM      5  N   UNL     1       1.454   9.407  19.288  0.00  0.00    +0.000 N 
ATOM      6  C   UNL     1       1.774   8.311  20.210  0.00  0.00    +0.000 C 
ATOM      7  C   UNL     1       1.576   6.964  19.515  0.00  0.00    +0.000 C 
ATOM      8  C   UNL     1       2.463   6.899  18.261  0.00  0.00    +0.000 C 
ATOM      9  C   UNL     1       2.007   8.011  17.303  0.00  0.00    +0.000 C 
ATOM     10  C   UNL     1       2.176   9.364  18.007  0.00  0.00    +0.000 C 
ATOM     11  C   UNL     1       2.641   5.467  17.682  0.00  0.00    +0.000 C 
ATOM     12  N   UNL     1       4.028   5.406  18.228  0.00  0.00    +0.000 NA
ATOM     13  C   UNL     1       4.009   6.861  18.437  0.00  0.00    +0.000 C 
ATOM     14  S   UNL     1      -0.051  10.823  20.938  0.00  0.00    +0.000 S 
ATOM     15  C   UNL     1      -1.487  11.809  20.645  0.00  0.00    +0.000 A 
ATOM     16  C   UNL     1      -1.975  12.733  21.589  0.00  0.00    +0.000 A 
ATOM     17  C   UNL     1      -3.202  13.403  21.439  0.00  0.00    +0.000 A 
ATOM     18  C   UNL     1      -3.982  13.166  20.306  0.00  0.00    +0.000 A 
ATOM     19  C   UNL     1      -3.484  12.285  19.335  0.00  0.00    +0.000 A 
ATOM     20  C   UNL     1      -2.250  11.619  19.492  0.00  0.00    +0.000 A 
ENDROOT
BRANCH  18  21
ATOM     21  C   UNL     1      -5.331  13.824  20.119  0.00  0.00    +0.000 C 
ATOM     22  F   UNL     1      -5.884  13.569  18.902  0.00  0.00    +0.000 F 
ATOM     23  F   UNL     1      -6.240  13.413  21.040  0.00  0.00    +0.000 F 
ATOM     24  F   UNL     1      -5.262  15.179  20.223  0.00  0.00    +0.000 F 
ENDBRANCH  18  21
BRANCH  16  25
ATOM     25  N   UNL     1      -1.211  13.053  22.782  0.00  0.00    +0.000 N 
ATOM     26  O   UNL     1      -0.421  14.001  22.710  0.00  0.00    +0.000 OA
ATOM     27  O   UNL     1      -1.465  12.391  23.798  0.00  0.00    +0.000 OA
ENDBRANCH  16  25
BRANCH  12  28
ATOM     28  C   UNL     1       4.066   4.652  19.493  0.00  0.00    +0.000 C 
BRANCH  28  29
ATOM     29  C   UNL     1       3.759   3.128  19.427  0.00  0.00    +0.000 C 
ATOM     30  C   UNL     1       3.829   2.334  20.747  0.00  0.00    +0.000 C 
ATOM     31  C   UNL     1       2.675   2.603  21.720  0.00  0.00    +0.000 C 
ATOM     32  C   UNL     1       1.299   2.528  21.062  0.00  0.00    +0.000 C 
ATOM     33  C   UNL     1       1.236   3.337  19.773  0.00  0.00    +0.000 C 
ATOM     34  C   UNL     1       2.354   2.921  18.816  0.00  0.00    +0.000 C 
ENDBRANCH  28  29
ENDBRANCH  12  28
TORSDOF 4
ENDMDL
