MODEL 1
REMARK VINA RESULT:      -8.6      0.000      0.000
REMARK  Name = 
REMARK  7 active torsions:
REMARK  status: ('A' for Active; 'I' for Inactive)
REMARK    1  A    between atoms: C_1  and  O_2
REMARK    2  A    between atoms: O_2  and  C_3
REMARK    3  A    between atoms: C_6  and  O_7
REMARK    4  A    between atoms: O_7  and  C_8
REMARK    5  A    between atoms: C_9  and  C_10
REMARK    6  A    between atoms: C_10  and  C_11
REMARK    7  A    between atoms: N_15  and  C_16
REMARK                            x       y       z     vdW  Elec       q    Type
REMARK                         _______ _______ _______ _____ _____    ______ ____
ROOT
ATOM      1  C   UNL     1       2.442   7.273  18.630  0.00  0.00    +0.000 A 
ATOM      2  C   UNL     1       2.078   8.534  18.187  0.00  0.00    +0.000 A 
ATOM      3  C   UNL     1       1.459   9.217  19.271  0.00  0.00    +0.000 A 
ATOM      4  C   UNL     1       0.884  10.477  19.495  0.00  0.00    +0.000 A 
ATOM      5  N   UNL     1       0.770  11.440  18.488  0.00  0.00    +0.000 N 
ATOM      6  N   UNL     1       0.400  10.737  20.738  0.00  0.00    +0.000 NA
ATOM      7  C   UNL     1       0.440   9.790  21.685  0.00  0.00    +0.000 A 
ATOM      8  N   UNL     1      -0.154  10.111  22.892  0.00  0.00    +0.000 N 
ATOM      9  N   UNL     1       1.010   8.587  21.582  0.00  0.00    +0.000 NA
ATOM     10  C   UNL     1       1.492   8.356  20.354  0.00  0.00    +0.000 A 
ATOM     11  N   UNL     1       2.100   7.196  19.961  0.00  0.00    +0.000 N 
ATOM     12  H   UNL     1       0.818  11.092  17.541  0.00  0.00    +0.000 HD
ATOM     13  H   UNL     1      -0.228  11.110  22.985  0.00  0.00    +0.000 HD
ATOM     14  H   UNL     1       0.272   9.586  23.644  0.00  0.00    +0.000 HD
ATOM     15  H   UNL     1       2.233   6.394  20.563  0.00  0.00    +0.000 HD
ENDROOT
BRANCH   5  16
ATOM     16  C   UNL     1       0.787  12.839  18.614  0.00  0.00    +0.000 A 
ATOM     17  C   UNL     1      -0.386  13.576  18.803  0.00  0.00    +0.000 A 
ATOM     18  C   UNL     1      -0.346  14.968  18.936  0.00  0.00    +0.000 A 
ATOM     19  C   UNL     1       0.870  15.638  18.833  0.00  0.00    +0.000 A 
ATOM     20 CL   UNL     1       0.912  17.350  19.002  0.00  0.00    +0.000 Cl
ATOM     21  C   UNL     1       2.045  14.935  18.602  0.00  0.00    +0.000 A 
ATOM     22  C   UNL     1       1.995  13.546  18.498  0.00  0.00    +0.000 A 
ATOM     23  F   UNL     1       3.138  12.875  18.285  0.00  0.00    +0.000 F 
ENDBRANCH   5  16
BRANCH   1  24
ATOM     24  C   UNL     1       3.060   6.113  17.917  0.00  0.00    +0.000 C 
BRANCH  24  29
ATOM     25  C   UNL     1       6.787   6.847  17.625  0.00  0.00    +0.000 A 
ATOM     26  C   UNL     1       7.324   5.907  18.499  0.00  0.00    +0.000 A 
ATOM     27  C   UNL     1       6.497   5.023  19.198  0.00  0.00    +0.000 A 
ATOM     28  C   UNL     1       5.111   5.058  19.016  0.00  0.00    +0.000 A 
ATOM     29  C   UNL     1       4.550   6.028  18.169  0.00  0.00    +0.000 A 
ATOM     30  C   UNL     1       5.402   6.914  17.471  0.00  0.00    +0.000 A 
BRANCH  25  32
ATOM     31  C   UNL     1       8.113   8.819  17.645  0.00  0.00    +0.000 C 
ATOM     32  O   UNL     1       7.711   7.626  16.987  0.00  0.00    +0.000 OA
ENDBRANCH  25  32
BRANCH  28  33
ATOM     33  O   UNL     1       4.239   4.201  19.641  0.00  0.00    +0.000 OA
ATOM     34  C   UNL     1       4.343   2.828  19.267  0.00  0.00    +0.000 C 
ENDBRANCH  28  33
ENDBRANCH  24  29
ENDBRANCH   1  24
TORSDOF 5
ENDMDL
MODEL 2
REMARK VINA RESULT:      -8.6      0.854      1.225
REMARK  Name = 
REMARK  7 active torsions:
REMARK  status: ('A' for Active; 'I' for Inactive)
REMARK    1  A    between atoms: C_1  and  O_2
REMARK    2  A    between atoms: O_2  and  C_3
REMARK    3  A    between atoms: C_6  and  O_7
REMARK    4  A    between atoms: O_7  and  C_8
REMARK    5  A    between atoms: C_9  and  C_10
REMARK    6  A    between atoms: C_10  and  C_11
REMARK    7  A    between atoms: N_15  and  C_16
REMARK                            x       y       z     vdW  Elec       q    Type
REMARK                         _______ _______ _______ _____ _____    ______ ____
ROOT
ATOM      1  C   UNL     1       2.442   7.279  18.623  0.00  0.00    +0.000 A 
ATOM      2  C   UNL     1       2.099   8.542  18.171  0.00  0.00    +0.000 A 
ATOM      3  C   UNL     1       1.481   9.239  19.248  0.00  0.00    +0.000 A 
ATOM      4  C   UNL     1       0.922  10.507  19.462  0.00  0.00    +0.000 A 
ATOM      5  N   UNL     1       0.829  11.467  18.450  0.00  0.00    +0.000 N 
ATOM      6  N   UNL     1       0.431  10.778  20.700  0.00  0.00    +0.000 NA
ATOM      7  C   UNL     1       0.450   9.835  21.650  0.00  0.00    +0.000 A 
ATOM      8  N   UNL     1      -0.149  10.169  22.851  0.00  0.00    +0.000 N 
ATOM      9  N   UNL     1       1.005   8.624  21.557  0.00  0.00    +0.000 NA
ATOM     10  C   UNL     1       1.494   8.382  20.334  0.00  0.00    +0.000 A 
ATOM     11  N   UNL     1       2.089   7.212  19.951  0.00  0.00    +0.000 N 
ATOM     12  H   UNL     1       0.880  11.115  17.504  0.00  0.00    +0.000 HD
ATOM     13  H   UNL     1      -0.210  11.170  22.939  0.00  0.00    +0.000 HD
ATOM     14  H   UNL     1       0.264   9.642  23.609  0.00  0.00    +0.000 HD
ATOM     15  H   UNL     1       2.206   6.410  20.557  0.00  0.00    +0.000 HD
ENDROOT
BRANCH   5  16
ATOM     16  C   UNL     1       0.864  12.866  18.570  0.00  0.00    +0.000 A 
ATOM     17  C   UNL     1       2.069  13.576  18.563  0.00  0.00    +0.000 A 
ATOM     18  C   UNL     1       2.082  14.970  18.673  0.00  0.00    +0.000 A 
ATOM     19  C   UNL     1       0.886  15.662  18.839  0.00  0.00    +0.000 A 
ATOM     20 CL   UNL     1       0.909  17.378  18.969  0.00  0.00    +0.000 Cl
ATOM     21  C   UNL     1      -0.322  14.979  18.893  0.00  0.00    +0.000 A 
ATOM     22  C   UNL     1      -0.323  13.592  18.755  0.00  0.00    +0.000 A 
ATOM     23  F   UNL     1      -1.498  12.942  18.798  0.00  0.00    +0.000 F 
ENDBRANCH   5  16
BRANCH   1  24
ATOM     24  C   UNL     1       3.050   6.107  17.919  0.00  0.00    +0.000 C 
BRANCH  24  29
ATOM     25  C   UNL     1       6.782   6.819  17.633  0.00  0.00    +0.000 A 
ATOM     26  C   UNL     1       7.312   5.871  18.502  0.00  0.00    +0.000 A 
ATOM     27  C   UNL     1       6.479   4.989  19.196  0.00  0.00    +0.000 A 
ATOM     28  C   UNL     1       5.094   5.033  19.014  0.00  0.00    +0.000 A 
ATOM     29  C   UNL     1       4.539   6.012  18.171  0.00  0.00    +0.000 A 
ATOM     30  C   UNL     1       5.398   6.896  17.478  0.00  0.00    +0.000 A 
BRANCH  25  32
ATOM     31  C   UNL     1       8.132   8.775  17.671  0.00  0.00    +0.000 C 
ATOM     32  O   UNL     1       7.711   7.596  17.000  0.00  0.00    +0.000 OA
ENDBRANCH  25  32
BRANCH  28  33
ATOM     33  O   UNL     1       4.217   4.178  19.633  0.00  0.00    +0.000 OA
ATOM     34  C   UNL     1       4.461   2.787  19.435  0.00  0.00    +0.000 C 
ENDBRANCH  28  33
ENDBRANCH  24  29
ENDBRANCH   1  24
TORSDOF 5
ENDMDL
MODEL 3
REMARK VINA RESULT:      -8.4      1.485      1.858
REMARK  Name = 
REMARK  7 active torsions:
REMARK  status: ('A' for Active; 'I' for Inactive)
REMARK    1  A    between atoms: C_1  and  O_2
REMARK    2  A    between atoms: O_2  and  C_3
REMARK    3  A    between atoms: C_6  and  O_7
REMARK    4  A    between atoms: O_7  and  C_8
REMARK    5  A    between atoms: C_9  and  C_10
REMARK    6  A    between atoms: C_10  and  C_11
REMARK    7  A    between atoms: N_15  and  C_16
REMARK                            x       y       z     vdW  Elec       q    Type
REMARK                         _______ _______ _______ _____ _____    ______ ____
ROOT
ATOM      1  C   UNL     1       2.562   6.470  18.314  0.00  0.00    +0.000 A 
ATOM      2  C   UNL     1       2.280   7.758  17.894  0.00  0.00    +0.000 A 
ATOM      3  C   UNL     1       1.790   8.487  19.014  0.00  0.00    +0.000 A 
ATOM      4  C   UNL     1       1.339   9.790  19.273  0.00  0.00    +0.000 A 
ATOM      5  N   UNL     1       1.246  10.764  18.275  0.00  0.00    +0.000 N 
ATOM      6  N   UNL     1       0.955  10.083  20.543  0.00  0.00    +0.000 NA
ATOM      7  C   UNL     1       0.972   9.132  21.486  0.00  0.00    +0.000 A 
ATOM      8  N   UNL     1       0.483   9.496  22.727  0.00  0.00    +0.000 N 
ATOM      9  N   UNL     1       1.431   7.885  21.348  0.00  0.00    +0.000 NA
ATOM     10  C   UNL     1       1.815   7.621  20.093  0.00  0.00    +0.000 A 
ATOM     11  N   UNL     1       2.297   6.415  19.664  0.00  0.00    +0.000 N 
ATOM     12  H   UNL     1       1.206  10.418  17.326  0.00  0.00    +0.000 HD
ATOM     13  H   UNL     1       0.500  10.498  22.824  0.00  0.00    +0.000 HD
ATOM     14  H   UNL     1       0.908   8.933  23.452  0.00  0.00    +0.000 HD
ATOM     15  H   UNL     1       2.398   5.601  20.256  0.00  0.00    +0.000 HD
ENDROOT
BRANCH   5  16
ATOM     16  C   UNL     1       1.390  12.155  18.398  0.00  0.00    +0.000 A 
ATOM     17  C   UNL     1       2.638  12.779  18.304  0.00  0.00    +0.000 A 
ATOM     18  C   UNL     1       2.759  14.167  18.420  0.00  0.00    +0.000 A 
ATOM     19  C   UNL     1       1.631  14.940  18.679  0.00  0.00    +0.000 A 
ATOM     20 CL   UNL     1       1.786  16.649  18.816  0.00  0.00    +0.000 Cl
ATOM     21  C   UNL     1       0.385  14.343  18.821  0.00  0.00    +0.000 A 
ATOM     22  C   UNL     1       0.274  12.962  18.676  0.00  0.00    +0.000 A 
ATOM     23  F   UNL     1      -0.937  12.396  18.805  0.00  0.00    +0.000 F 
ENDBRANCH   5  16
BRANCH   1  24
ATOM     24  C   UNL     1       3.034   5.265  17.565  0.00  0.00    +0.000 C 
BRANCH  24  29
ATOM     25  C   UNL     1       6.624   5.422  16.298  0.00  0.00    +0.000 A 
ATOM     26  C   UNL     1       7.328   4.949  17.400  0.00  0.00    +0.000 A 
ATOM     27  C   UNL     1       6.661   4.573  18.569  0.00  0.00    +0.000 A 
ATOM     28  C   UNL     1       5.267   4.650  18.645  0.00  0.00    +0.000 A 
ATOM     29  C   UNL     1       4.545   5.166  17.555  0.00  0.00    +0.000 A 
ATOM     30  C   UNL     1       5.236   5.541  16.381  0.00  0.00    +0.000 A 
BRANCH  25  32
ATOM     31  C   UNL     1       7.149   4.998  14.019  0.00  0.00    +0.000 C 
ATOM     32  O   UNL     1       7.398   5.725  15.213  0.00  0.00    +0.000 OA
ENDBRANCH  25  32
BRANCH  28  33
ATOM     33  O   UNL     1       4.542   4.268  19.746  0.00  0.00    +0.000 OA
ATOM     34  C   UNL     1       4.330   2.865  19.893  0.00  0.00    +0.000 C 
ENDBRANCH  28  33
ENDBRANCH  24  29
ENDBRANCH   1  24
TORSDOF 5
ENDMDL
MODEL 4
REMARK VINA RESULT:      -8.2      1.068      1.238
REMARK  Name = 
REMARK  7 active torsions:
REMARK  status: ('A' for Active; 'I' for Inactive)
REMARK    1  A    between atoms: C_1  and  O_2
REMARK    2  A    between atoms: O_2  and  C_3
REMARK    3  A    between atoms: C_6  and  O_7
REMARK    4  A    between atoms: O_7  and  C_8
REMARK    5  A    between atoms: C_9  and  C_10
REMARK    6  A    between atoms: C_10  and  C_11
REMARK    7  A    between atoms: N_15  and  C_16
REMARK                            x       y       z     vdW  Elec       q    Type
REMARK                         _______ _______ _______ _____ _____    ______ ____
ROOT
ATOM      1  C   UNL     1       2.393   6.845  18.352  0.00  0.00    +0.000 A 
ATOM      2  C   UNL     1       2.060   8.128  17.950  0.00  0.00    +0.000 A 
ATOM      3  C   UNL     1       1.586   8.834  19.091  0.00  0.00    +0.000 A 
ATOM      4  C   UNL     1       1.107  10.122  19.374  0.00  0.00    +0.000 A 
ATOM      5  N   UNL     1       0.954  11.100  18.387  0.00  0.00    +0.000 N 
ATOM      6  N   UNL     1       0.757  10.396  20.659  0.00  0.00    +0.000 NA
ATOM      7  C   UNL     1       0.832   9.439  21.593  0.00  0.00    +0.000 A 
ATOM      8  N   UNL     1       0.373   9.781  22.852  0.00  0.00    +0.000 N 
ATOM      9  N   UNL     1       1.321   8.207  21.432  0.00  0.00    +0.000 NA
ATOM     10  C   UNL     1       1.672   7.962  20.162  0.00  0.00    +0.000 A 
ATOM     11  N   UNL     1       2.174   6.774  19.709  0.00  0.00    +0.000 N 
ATOM     12  H   UNL     1       0.893  10.759  17.438  0.00  0.00    +0.000 HD
ATOM     13  H   UNL     1       0.365  10.782  22.956  0.00  0.00    +0.000 HD
ATOM     14  H   UNL     1       0.838   9.226  23.559  0.00  0.00    +0.000 HD
ATOM     15  H   UNL     1       2.317   5.959  20.291  0.00  0.00    +0.000 HD
ENDROOT
BRANCH   5  16
ATOM     16  C   UNL     1       1.062  12.494  18.516  0.00  0.00    +0.000 A 
ATOM     17  C   UNL     1      -0.042  13.293  18.831  0.00  0.00    +0.000 A 
ATOM     18  C   UNL     1       0.089  14.679  18.966  0.00  0.00    +0.000 A 
ATOM     19  C   UNL     1       1.322  15.282  18.739  0.00  0.00    +0.000 A 
ATOM     20 CL   UNL     1       1.477  16.988  18.911  0.00  0.00    +0.000 Cl
ATOM     21  C   UNL     1       2.426  14.518  18.383  0.00  0.00    +0.000 A 
ATOM     22  C   UNL     1       2.288  13.135  18.278  0.00  0.00    +0.000 A 
ATOM     23  F   UNL     1       3.364  12.405  17.944  0.00  0.00    +0.000 F 
ENDBRANCH   5  16
BRANCH   1  24
ATOM     24  C   UNL     1       2.874   5.659  17.578  0.00  0.00    +0.000 C 
BRANCH  24  29
ATOM     25  C   UNL     1       6.521   5.662  16.475  0.00  0.00    +0.000 A 
ATOM     26  C   UNL     1       7.160   5.222  17.629  0.00  0.00    +0.000 A 
ATOM     27  C   UNL     1       6.430   4.919  18.782  0.00  0.00    +0.000 A 
ATOM     28  C   UNL     1       5.037   5.037  18.788  0.00  0.00    +0.000 A 
ATOM     29  C   UNL     1       4.380   5.520  17.644  0.00  0.00    +0.000 A 
ATOM     30  C   UNL     1       5.135   5.821  16.487  0.00  0.00    +0.000 A 
BRANCH  25  32
ATOM     31  C   UNL     1       7.184   5.069  14.271  0.00  0.00    +0.000 C 
ATOM     32  O   UNL     1       7.352   5.893  15.414  0.00  0.00    +0.000 OA
ENDBRANCH  25  32
BRANCH  28  33
ATOM     33  O   UNL     1       4.252   4.726  19.870  0.00  0.00    +0.000 OA
ATOM     34  C   UNL     1       3.885   3.353  19.997  0.00  0.00    +0.000 C 
ENDBRANCH  28  33
ENDBRANCH  24  29
ENDBRANCH   1  24
TORSDOF 5
ENDMDL
MODEL 5
REMARK VINA RESULT:      -7.9      1.328      3.040
REMARK  Name = 
REMARK  7 active torsions:
REMARK  status: ('A' for Active; 'I' for Inactive)
REMARK    1  A    between atoms: C_1  and  O_2
REMARK    2  A    between atoms: O_2  and  C_3
REMARK    3  A    between atoms: C_6  and  O_7
REMARK    4  A    between atoms: O_7  and  C_8
REMARK    5  A    between atoms: C_9  and  C_10
REMARK    6  A    between atoms: C_10  and  C_11
REMARK    7  A    between atoms: N_15  and  C_16
REMARK                            x       y       z     vdW  Elec       q    Type
REMARK                         _______ _______ _______ _____ _____    ______ ____
ROOT
ATOM      1  C   UNL     1       3.025   7.346  18.081  0.00  0.00    +0.000 A 
ATOM      2  C   UNL     1       2.535   8.604  17.775  0.00  0.00    +0.000 A 
ATOM      3  C   UNL     1       1.743   9.044  18.872  0.00  0.00    +0.000 A 
ATOM      4  C   UNL     1       0.990  10.180  19.203  0.00  0.00    +0.000 A 
ATOM      5  N   UNL     1       0.833  11.259  18.326  0.00  0.00    +0.000 N 
ATOM      6  N   UNL     1       0.373  10.197  20.414  0.00  0.00    +0.000 NA
ATOM      7  C   UNL     1       0.459   9.135  21.225  0.00  0.00    +0.000 A 
ATOM      8  N   UNL     1      -0.270   9.204  22.398  0.00  0.00    +0.000 N 
ATOM      9  N   UNL     1       1.191   8.036  21.021  0.00  0.00    +0.000 NA
ATOM     10  C   UNL     1       1.800   8.046  19.829  0.00  0.00    +0.000 A 
ATOM     11  N   UNL     1       2.587   7.036  19.348  0.00  0.00    +0.000 N 
ATOM     12  H   UNL     1       1.006  11.060  17.351  0.00  0.00    +0.000 HD
ATOM     13  H   UNL     1      -0.484  10.164  22.615  0.00  0.00    +0.000 HD
ATOM     14  H   UNL     1       0.158   8.631  23.113  0.00  0.00    +0.000 HD
ATOM     15  H   UNL     1       2.775   6.176  19.848  0.00  0.00    +0.000 HD
ENDROOT
BRANCH   5  16
ATOM     16  C   UNL     1       0.654  12.616  18.638  0.00  0.00    +0.000 A 
ATOM     17  C   UNL     1      -0.601  13.138  18.965  0.00  0.00    +0.000 A 
ATOM     18  C   UNL     1      -0.757  14.491  19.282  0.00  0.00    +0.000 A 
ATOM     19  C   UNL     1       0.342  15.345  19.228  0.00  0.00    +0.000 A 
ATOM     20 CL   UNL     1       0.144  17.008  19.624  0.00  0.00    +0.000 Cl
ATOM     21  C   UNL     1       1.592  14.862  18.864  0.00  0.00    +0.000 A 
ATOM     22  C   UNL     1       1.738  13.507  18.577  0.00  0.00    +0.000 A 
ATOM     23  F   UNL     1       2.954  13.048  18.236  0.00  0.00    +0.000 F 
ENDBRANCH   5  16
BRANCH   1  24
ATOM     24  C   UNL     1       3.849   6.383  17.286  0.00  0.00    +0.000 C 
BRANCH  24  29
ATOM     25  C   UNL     1       2.793   2.883  18.357  0.00  0.00    +0.000 A 
ATOM     26  C   UNL     1       3.864   2.504  19.160  0.00  0.00    +0.000 A 
ATOM     27  C   UNL     1       4.944   3.367  19.369  0.00  0.00    +0.000 A 
ATOM     28  C   UNL     1       4.958   4.637  18.786  0.00  0.00    +0.000 A 
ATOM     29  C   UNL     1       3.904   5.019  17.938  0.00  0.00    +0.000 A 
ATOM     30  C   UNL     1       2.820   4.133  17.739  0.00  0.00    +0.000 A 
BRANCH  25  32
ATOM     31  C   UNL     1       0.552   2.281  18.869  0.00  0.00    +0.000 C 
ATOM     32  O   UNL     1       1.794   1.955  18.263  0.00  0.00    +0.000 OA
ENDBRANCH  25  32
BRANCH  28  33
ATOM     33  O   UNL     1       5.966   5.550  18.973  0.00  0.00    +0.000 OA
ATOM     34  C   UNL     1       7.211   5.236  18.351  0.00  0.00    +0.000 C 
ENDBRANCH  28  33
ENDBRANCH  24  29
ENDBRANCH   1  24
TORSDOF 5
ENDMDL
MODEL 6
REMARK VINA RESULT:      -7.8      1.535      3.283
REMARK  Name = 
REMARK  7 active torsions:
REMARK  status: ('A' for Active; 'I' for Inactive)
REMARK    1  A    between atoms: C_1  and  O_2
REMARK    2  A    between atoms: O_2  and  C_3
REMARK    3  A    between atoms: C_6  and  O_7
REMARK    4  A    between atoms: O_7  and  C_8
REMARK    5  A    between atoms: C_9  and  C_10
REMARK    6  A    between atoms: C_10  and  C_11
REMARK    7  A    between atoms: N_15  and  C_16
REMARK                            x       y       z     vdW  Elec       q    Type
REMARK                         _______ _______ _______ _____ _____    ______ ____
ROOT
ATOM      1  C   UNL     1       2.952   7.202  18.122  0.00  0.00    +0.000 A 
ATOM      2  C   UNL     1       2.554   8.486  17.788  0.00  0.00    +0.000 A 
ATOM      3  C   UNL     1       1.787   9.002  18.870  0.00  0.00    +0.000 A 
ATOM      4  C   UNL     1       1.112  10.194  19.173  0.00  0.00    +0.000 A 
ATOM      5  N   UNL     1       1.039  11.264  18.275  0.00  0.00    +0.000 N 
ATOM      6  N   UNL     1       0.490  10.277  20.378  0.00  0.00    +0.000 NA
ATOM      7  C   UNL     1       0.495   9.227  21.209  0.00  0.00    +0.000 A 
ATOM      8  N   UNL     1      -0.237   9.370  22.374  0.00  0.00    +0.000 N 
ATOM      9  N   UNL     1       1.149   8.076  21.032  0.00  0.00    +0.000 NA
ATOM     10  C   UNL     1       1.766   8.020  19.845  0.00  0.00    +0.000 A 
ATOM     11  N   UNL     1       2.483   6.948  19.391  0.00  0.00    +0.000 N 
ATOM     12  H   UNL     1       1.205  11.035  17.305  0.00  0.00    +0.000 HD
ATOM     13  H   UNL     1      -0.384  10.346  22.571  0.00  0.00    +0.000 HD
ATOM     14  H   UNL     1       0.144   8.782  23.103  0.00  0.00    +0.000 HD
ATOM     15  H   UNL     1       2.606   6.087  19.908  0.00  0.00    +0.000 HD
ENDROOT
BRANCH   5  16
ATOM     16  C   UNL     1       0.954  12.636  18.560  0.00  0.00    +0.000 A 
ATOM     17  C   UNL     1       2.094  13.414  18.785  0.00  0.00    +0.000 A 
ATOM     18  C   UNL     1       1.988  14.782  19.057  0.00  0.00    +0.000 A 
ATOM     19  C   UNL     1       0.732  15.373  19.152  0.00  0.00    +0.000 A 
ATOM     20 CL   UNL     1       0.609  17.057  19.483  0.00  0.00    +0.000 Cl
ATOM     21  C   UNL     1      -0.419  14.615  18.976  0.00  0.00    +0.000 A 
ATOM     22  C   UNL     1      -0.299  13.259  18.679  0.00  0.00    +0.000 A 
ATOM     23  F   UNL     1      -1.417  12.538  18.500  0.00  0.00    +0.000 F 
ENDBRANCH   5  16
BRANCH   1  24
ATOM     24  C   UNL     1       3.711   6.169  17.352  0.00  0.00    +0.000 C 
BRANCH  24  29
ATOM     25  C   UNL     1       2.871   2.796  18.909  0.00  0.00    +0.000 A 
ATOM     26  C   UNL     1       4.031   2.525  19.627  0.00  0.00    +0.000 A 
ATOM     27  C   UNL     1       5.104   3.421  19.621  0.00  0.00    +0.000 A 
ATOM     28  C   UNL     1       5.021   4.618  18.904  0.00  0.00    +0.000 A 
ATOM     29  C   UNL     1       3.872   4.887  18.140  0.00  0.00    +0.000 A 
ATOM     30  C   UNL     1       2.798   3.969  18.159  0.00  0.00    +0.000 A 
BRANCH  25  32
ATOM     31  C   UNL     1       0.550   2.284  18.862  0.00  0.00    +0.000 C 
ATOM     32  O   UNL     1       1.892   1.849  19.028  0.00  0.00    +0.000 OA
ENDBRANCH  25  32
BRANCH  28  33
ATOM     33  O   UNL     1       6.019   5.561  18.877  0.00  0.00    +0.000 OA
ATOM     34  C   UNL     1       7.226   5.169  18.225  0.00  0.00    +0.000 C 
ENDBRANCH  28  33
ENDBRANCH  24  29
ENDBRANCH   1  24
TORSDOF 5
ENDMDL
MODEL 7
REMARK VINA RESULT:      -7.7      1.532      3.221
REMARK  Name = 
REMARK  7 active torsions:
REMARK  status: ('A' for Active; 'I' for Inactive)
REMARK    1  A    between atoms: C_1  and  O_2
REMARK    2  A    between atoms: O_2  and  C_3
REMARK    3  A    between atoms: C_6  and  O_7
REMARK    4  A    between atoms: O_7  and  C_8
REMARK    5  A    between atoms: C_9  and  C_10
REMARK    6  A    between atoms: C_10  and  C_11
REMARK    7  A    between atoms: N_15  and  C_16
REMARK                            x       y       z     vdW  Elec       q    Type
REMARK                         _______ _______ _______ _____ _____    ______ ____
ROOT
ATOM      1  C   UNL     1       2.390   7.771  18.689  0.00  0.00    +0.000 A 
ATOM      2  C   UNL     1       1.684   8.933  18.424  0.00  0.00    +0.000 A 
ATOM      3  C   UNL     1       1.057   9.350  19.631  0.00  0.00    +0.000 A 
ATOM      4  C   UNL     1       0.230  10.404  20.047  0.00  0.00    +0.000 A 
ATOM      5  N   UNL     1      -0.232  11.388  19.167  0.00  0.00    +0.000 N 
ATOM      6  N   UNL     1      -0.147  10.433  21.352  0.00  0.00    +0.000 NA
ATOM      7  C   UNL     1       0.232   9.452  22.181  0.00  0.00    +0.000 A 
ATOM      8  N   UNL     1      -0.270   9.515  23.468  0.00  0.00    +0.000 N 
ATOM      9  N   UNL     1       1.056   8.441  21.893  0.00  0.00    +0.000 NA
ATOM     10  C   UNL     1       1.426   8.439  20.605  0.00  0.00    +0.000 A 
ATOM     11  N   UNL     1       2.240   7.503  20.031  0.00  0.00    +0.000 N 
ATOM     12  H   UNL     1      -0.218  11.142  18.187  0.00  0.00    +0.000 HD
ATOM     13  H   UNL     1      -0.568  10.454  23.676  0.00  0.00    +0.000 HD
ATOM     14  H   UNL     1       0.358   9.053  24.114  0.00  0.00    +0.000 HD
ATOM     15  H   UNL     1       2.633   6.712  20.525  0.00  0.00    +0.000 HD
ENDROOT
BRANCH   5  16
ATOM     16  C   UNL     1      -0.533  12.732  19.442  0.00  0.00    +0.000 A 
ATOM     17  C   UNL     1      -1.645  13.096  20.208  0.00  0.00    +0.000 A 
ATOM     18  C   UNL     1      -1.922  14.440  20.479  0.00  0.00    +0.000 A 
ATOM     19  C   UNL     1      -1.110  15.435  19.943  0.00  0.00    +0.000 A 
ATOM     20 CL   UNL     1      -1.454  17.086  20.284  0.00  0.00    +0.000 Cl
ATOM     21  C   UNL     1      -0.024  15.103  19.143  0.00  0.00    +0.000 A 
ATOM     22  C   UNL     1       0.257  13.760  18.903  0.00  0.00    +0.000 A 
ATOM     23  F   UNL     1       1.315  13.451  18.136  0.00  0.00    +0.000 F 
ENDBRANCH   5  16
BRANCH   1  24
ATOM     24  C   UNL     1       3.174   6.864  17.796  0.00  0.00    +0.000 C 
BRANCH  24  29
ATOM     25  C   UNL     1       2.465   3.528  19.495  0.00  0.00    +0.000 A 
ATOM     26  C   UNL     1       3.753   3.048  19.712  0.00  0.00    +0.000 A 
ATOM     27  C   UNL     1       4.870   3.788  19.314  0.00  0.00    +0.000 A 
ATOM     28  C   UNL     1       4.712   5.036  18.705  0.00  0.00    +0.000 A 
ATOM     29  C   UNL     1       3.418   5.516  18.441  0.00  0.00    +0.000 A 
ATOM     30  C   UNL     1       2.300   4.754  18.850  0.00  0.00    +0.000 A 
BRANCH  25  32
ATOM     31  C   UNL     1       1.319   2.621  21.369  0.00  0.00    +0.000 C 
ATOM     32  O   UNL     1       1.468   2.717  19.960  0.00  0.00    +0.000 OA
ENDBRANCH  25  32
BRANCH  28  33
ATOM     33  O   UNL     1       5.760   5.833  18.318  0.00  0.00    +0.000 OA
ATOM     34  C   UNL     1       6.975   5.657  19.045  0.00  0.00    +0.000 C 
ENDBRANCH  28  33
ENDBRANCH  24  29
ENDBRANCH   1  24
TORSDOF 5
ENDMDL
MODEL 8
REMARK VINA RESULT:      -7.6      1.952      3.464
REMARK  Name = 
REMARK  7 active torsions:
REMARK  status: ('A' for Active; 'I' for Inactive)
REMARK    1  A    between atoms: C_1  and  O_2
REMARK    2  A    between atoms: O_2  and  C_3
REMARK    3  A    between atoms: C_6  and  O_7
REMARK    4  A    between atoms: O_7  and  C_8
REMARK    5  A    between atoms: C_9  and  C_10
REMARK    6  A    between atoms: C_10  and  C_11
REMARK    7  A    between atoms: N_15  and  C_16
REMARK                            x       y       z     vdW  Elec       q    Type
REMARK                         _______ _______ _______ _____ _____    ______ ____
ROOT
ATOM      1  C   UNL     1       2.564   7.913  18.363  0.00  0.00    +0.000 A 
ATOM      2  C   UNL     1       1.860   9.092  18.178  0.00  0.00    +0.000 A 
ATOM      3  C   UNL     1       1.135   9.361  19.373  0.00  0.00    +0.000 A 
ATOM      4  C   UNL     1       0.261  10.353  19.840  0.00  0.00    +0.000 A 
ATOM      5  N   UNL     1      -0.150  11.428  19.045  0.00  0.00    +0.000 N 
ATOM      6  N   UNL     1      -0.216  10.227  21.107  0.00  0.00    +0.000 NA
ATOM      7  C   UNL     1       0.116   9.160  21.845  0.00  0.00    +0.000 A 
ATOM      8  N   UNL     1      -0.484   9.070  23.088  0.00  0.00    +0.000 N 
ATOM      9  N   UNL     1       0.977   8.197  21.508  0.00  0.00    +0.000 NA
ATOM     10  C   UNL     1       1.445   8.347  20.262  0.00  0.00    +0.000 A 
ATOM     11  N   UNL     1       2.317   7.490  19.650  0.00  0.00    +0.000 N 
ATOM     12  H   UNL     1      -0.056  11.296  18.048  0.00  0.00    +0.000 HD
ATOM     13  H   UNL     1      -0.814   9.976  23.378  0.00  0.00    +0.000 HD
ATOM     14  H   UNL     1       0.100   8.543  23.723  0.00  0.00    +0.000 HD
ATOM     15  H   UNL     1       2.684   6.651  20.080  0.00  0.00    +0.000 HD
ENDROOT
BRANCH   5  16
ATOM     16  C   UNL     1      -0.495  12.728  19.448  0.00  0.00    +0.000 A 
ATOM     17  C   UNL     1       0.424  13.782  19.403  0.00  0.00    +0.000 A 
ATOM     18  C   UNL     1       0.057  15.072  19.799  0.00  0.00    +0.000 A 
ATOM     19  C   UNL     1      -1.224  15.307  20.288  0.00  0.00    +0.000 A 
ATOM     20 CL   UNL     1      -1.670  16.899  20.769  0.00  0.00    +0.000 Cl
ATOM     21  C   UNL     1      -2.144  14.270  20.384  0.00  0.00    +0.000 A 
ATOM     22  C   UNL     1      -1.774  12.995  19.961  0.00  0.00    +0.000 A 
ATOM     23  F   UNL     1      -2.674  12.003  20.049  0.00  0.00    +0.000 F 
ENDBRANCH   5  16
BRANCH   1  24
ATOM     24  C   UNL     1       3.430   7.122  17.437  0.00  0.00    +0.000 C 
BRANCH  24  29
ATOM     25  C   UNL     1       2.482   3.498  18.134  0.00  0.00    +0.000 A 
ATOM     26  C   UNL     1       3.643   3.017  18.730  0.00  0.00    +0.000 A 
ATOM     27  C   UNL     1       4.751   3.849  18.916  0.00  0.00    +0.000 A 
ATOM     28  C   UNL     1       4.704   5.189  18.520  0.00  0.00    +0.000 A 
ATOM     29  C   UNL     1       3.553   5.679  17.879  0.00  0.00    +0.000 A 
ATOM     30  C   UNL     1       2.443   4.823  17.699  0.00  0.00    +0.000 A 
BRANCH  25  32
ATOM     31  C   UNL     1       0.603   2.467  19.161  0.00  0.00    +0.000 C 
ATOM     32  O   UNL     1       1.468   2.586  18.041  0.00  0.00    +0.000 OA
ENDBRANCH  25  32
BRANCH  28  33
ATOM     33  O   UNL     1       5.738   6.073  18.701  0.00  0.00    +0.000 OA
ATOM     34  C   UNL     1       6.983   5.500  19.095  0.00  0.00    +0.000 C 
ENDBRANCH  28  33
ENDBRANCH  24  29
ENDBRANCH   1  24
TORSDOF 5
ENDMDL
MODEL 9
REMARK VINA RESULT:      -7.6      1.375      1.784
REMARK  Name = 
REMARK  7 active torsions:
REMARK  status: ('A' for Active; 'I' for Inactive)
REMARK    1  A    between atoms: C_1  and  O_2
REMARK    2  A    between atoms: O_2  and  C_3
REMARK    3  A    between atoms: C_6  and  O_7
REMARK    4  A    between atoms: O_7  and  C_8
REMARK    5  A    between atoms: C_9  and  C_10
REMARK    6  A    between atoms: C_10  and  C_11
REMARK    7  A    between atoms: N_15  and  C_16
REMARK                            x       y       z     vdW  Elec       q    Type
REMARK                         _______ _______ _______ _____ _____    ______ ____
ROOT
ATOM      1  C   UNL     1       2.124   7.646  18.196  0.00  0.00    +0.000 A 
ATOM      2  C   UNL     1       1.822   8.948  17.835  0.00  0.00    +0.000 A 
ATOM      3  C   UNL     1       1.315   9.615  18.985  0.00  0.00    +0.000 A 
ATOM      4  C   UNL     1       0.842  10.897  19.302  0.00  0.00    +0.000 A 
ATOM      5  N   UNL     1       0.738  11.916  18.350  0.00  0.00    +0.000 N 
ATOM      6  N   UNL     1       0.448  11.125  20.583  0.00  0.00    +0.000 NA
ATOM      7  C   UNL     1       0.477  10.131  21.480  0.00  0.00    +0.000 A 
ATOM      8  N   UNL     1      -0.024  10.428  22.734  0.00  0.00    +0.000 N 
ATOM      9  N   UNL     1       0.956   8.899  21.287  0.00  0.00    +0.000 NA
ATOM     10  C   UNL     1       1.350   8.700  20.023  0.00  0.00    +0.000 A 
ATOM     11  N   UNL     1       1.853   7.524  19.540  0.00  0.00    +0.000 N 
ATOM     12  H   UNL     1       0.708  11.614  17.386  0.00  0.00    +0.000 HD
ATOM     13  H   UNL     1      -0.023  11.425  22.878  0.00  0.00    +0.000 HD
ATOM     14  H   UNL     1       0.407   9.839  23.434  0.00  0.00    +0.000 HD
ATOM     15  H   UNL     1       1.965   6.685  20.094  0.00  0.00    +0.000 HD
ENDROOT
BRANCH   5  16
ATOM     16  C   UNL     1       0.858  13.302  18.539  0.00  0.00    +0.000 A 
ATOM     17  C   UNL     1      -0.260  14.121  18.725  0.00  0.00    +0.000 A 
ATOM     18  C   UNL     1      -0.118  15.498  18.923  0.00  0.00    +0.000 A 
ATOM     19  C   UNL     1       1.149  16.074  18.889  0.00  0.00    +0.000 A 
ATOM     20 CL   UNL     1       1.317  17.769  19.136  0.00  0.00    +0.000 Cl
ATOM     21  C   UNL     1       2.274  15.291  18.662  0.00  0.00    +0.000 A 
ATOM     22  C   UNL     1       2.120  13.917  18.494  0.00  0.00    +0.000 A 
ATOM     23  F   UNL     1       3.215  13.168  18.287  0.00  0.00    +0.000 F 
ENDBRANCH   5  16
BRANCH   1  24
ATOM     24  C   UNL     1       2.618   6.485  17.393  0.00  0.00    +0.000 C 
BRANCH  24  29
ATOM     25  C   UNL     1       5.655   4.794  18.953  0.00  0.00    +0.000 A 
ATOM     26  C   UNL     1       5.058   3.775  19.688  0.00  0.00    +0.000 A 
ATOM     27  C   UNL     1       3.670   3.616  19.696  0.00  0.00    +0.000 A 
ATOM     28  C   UNL     1       2.855   4.471  18.948  0.00  0.00    +0.000 A 
ATOM     29  C   UNL     1       3.439   5.531  18.234  0.00  0.00    +0.000 A 
ATOM     30  C   UNL     1       4.846   5.676  18.237  0.00  0.00    +0.000 A 
BRANCH  25  32
ATOM     31  C   UNL     1       7.722   4.614  17.792  0.00  0.00    +0.000 C 
ATOM     32  O   UNL     1       7.021   4.815  19.011  0.00  0.00    +0.000 OA
ENDBRANCH  25  32
BRANCH  28  33
ATOM     33  O   UNL     1       1.489   4.356  18.881  0.00  0.00    +0.000 OA
ATOM     34  C   UNL     1       0.853   3.817  20.039  0.00  0.00    +0.000 C 
ENDBRANCH  28  33
ENDBRANCH  24  29
ENDBRANCH   1  24
TORSDOF 5
ENDMDL
