MODEL 1
REMARK VINA RESULT:      -8.9      0.000      0.000
REMARK  Name = 
REMARK  6 active torsions:
REMARK  status: ('A' for Active; 'I' for Inactive)
REMARK    1  A    between atoms: C_1  and  C_2
REMARK    2  A    between atoms: C_2  and  O_3
REMARK    3  A    between atoms: O_3  and  C_4
REMARK    4  A    between atoms: C_4  and  C_6
REMARK    5  A    between atoms: C_7  and  C_8
REMARK    6  A    between atoms: C_11  and  C_12
REMARK                            x       y       z     vdW  Elec       q    Type
REMARK                         _______ _______ _______ _____ _____    ______ ____
ROOT
ATOM      1  C   UNL     1       2.938   4.712  18.247  0.00  0.00    +0.000 A 
ATOM      2  C   UNL     1       3.127   6.039  18.058  0.00  0.00    +0.000 A 
ATOM      3  N   UNL     1       4.033   6.562  17.154  0.00  0.00    +0.000 N 
ATOM      4  C   UNL     1       4.938   5.750  16.466  0.00  0.00    +0.000 A 
ATOM      5  C   UNL     1       5.893   6.301  15.614  0.00  0.00    +0.000 A 
ATOM      6  C   UNL     1       6.774   5.472  14.906  0.00  0.00    +0.000 A 
ATOM      7  C   UNL     1       6.689   4.088  15.042  0.00  0.00    +0.000 A 
ATOM      8  C   UNL     1       5.722   3.525  15.875  0.00  0.00    +0.000 A 
ATOM      9  C   UNL     1       4.844   4.360  16.575  0.00  0.00    +0.000 A 
ATOM     10  C   UNL     1       3.788   3.781  17.438  0.00  0.00    +0.000 A 
ATOM     11  O   UNL     1       3.634   2.563  17.452  0.00  0.00    +0.000 OA
ATOM     12  H   UNL     1       4.195   7.562  17.179  0.00  0.00    +0.000 HD
ENDROOT
BRANCH   2  13
ATOM     13  C   UNL     1       2.405   7.073  18.827  0.00  0.00    +0.000 A 
ATOM     14  C   UNL     1       2.170   6.912  20.195  0.00  0.00    +0.000 A 
ATOM     15  C   UNL     1       1.502   7.908  20.916  0.00  0.00    +0.000 A 
ATOM     16  C   UNL     1       1.067   9.100  20.306  0.00  0.00    +0.000 A 
ATOM     17  C   UNL     1       1.316   9.240  18.928  0.00  0.00    +0.000 A 
ATOM     18  C   UNL     1       1.973   8.243  18.197  0.00  0.00    +0.000 A 
BRANCH  16  19
ATOM     19  C   UNL     1       0.380  10.163  21.082  0.00  0.00    +0.000 A 
ATOM     20  C   UNL     1      -0.316   9.867  22.271  0.00  0.00    +0.000 A 
ATOM     21  C   UNL     1      -0.974  10.861  23.004  0.00  0.00    +0.000 A 
ATOM     22  C   UNL     1      -0.936  12.180  22.568  0.00  0.00    +0.000 A 
ATOM     23 CL   UNL     1      -1.742  13.405  23.467  0.00  0.00    +0.000 Cl
ATOM     24  C   UNL     1      -0.247  12.511  21.407  0.00  0.00    +0.000 A 
ATOM     25  C   UNL     1       0.398  11.510  20.670  0.00  0.00    +0.000 A 
ENDBRANCH  16  19
ENDBRANCH   2  13
BRANCH   1  26
ATOM     26  C   UNL     1       2.001   4.195  19.271  0.00  0.00    +0.000 C 
ATOM     27  O   UNL     1       0.794   4.053  19.128  0.00  0.00    +0.000 OA
BRANCH  26  28
ATOM     28  O   UNL     1       2.663   4.051  20.448  0.00  0.00    +0.000 OA
BRANCH  28  30
ATOM     29  C   UNL     1       1.688   2.494  21.927  0.00  0.00    +0.000 C 
ATOM     30  C   UNL     1       2.812   2.714  20.932  0.00  0.00    +0.000 C 
ENDBRANCH  28  30
ENDBRANCH  26  28
ENDBRANCH   1  26
TORSDOF 5
ENDMDL
MODEL 2
REMARK VINA RESULT:      -8.8      0.083      1.265
REMARK  Name = 
REMARK  6 active torsions:
REMARK  status: ('A' for Active; 'I' for Inactive)
REMARK    1  A    between atoms: C_1  and  C_2
REMARK    2  A    between atoms: C_2  and  O_3
REMARK    3  A    between atoms: O_3  and  C_4
REMARK    4  A    between atoms: C_4  and  C_6
REMARK    5  A    between atoms: C_7  and  C_8
REMARK    6  A    between atoms: C_11  and  C_12
REMARK                            x       y       z     vdW  Elec       q    Type
REMARK                         _______ _______ _______ _____ _____    ______ ____
ROOT
ATOM      1  C   UNL     1       2.908   4.746  18.253  0.00  0.00    +0.000 A 
ATOM      2  C   UNL     1       3.126   6.069  18.060  0.00  0.00    +0.000 A 
ATOM      3  N   UNL     1       4.033   6.569  17.145  0.00  0.00    +0.000 N 
ATOM      4  C   UNL     1       4.912   5.736  16.450  0.00  0.00    +0.000 A 
ATOM      5  C   UNL     1       5.870   6.263  15.586  0.00  0.00    +0.000 A 
ATOM      6  C   UNL     1       6.724   5.413  14.870  0.00  0.00    +0.000 A 
ATOM      7  C   UNL     1       6.609   4.031  15.009  0.00  0.00    +0.000 A 
ATOM      8  C   UNL     1       5.638   3.492  15.853  0.00  0.00    +0.000 A 
ATOM      9  C   UNL     1       4.788   4.349  16.562  0.00  0.00    +0.000 A 
ATOM     10  C   UNL     1       3.728   3.795  17.437  0.00  0.00    +0.000 A 
ATOM     11  O   UNL     1       3.546   2.581  17.455  0.00  0.00    +0.000 OA
ATOM     12  H   UNL     1       4.218   7.566  17.167  0.00  0.00    +0.000 HD
ENDROOT
BRANCH   2  13
ATOM     13  C   UNL     1       2.436   7.121  18.834  0.00  0.00    +0.000 A 
ATOM     14  C   UNL     1       1.962   8.275  18.206  0.00  0.00    +0.000 A 
ATOM     15  C   UNL     1       1.292   9.255  18.948  0.00  0.00    +0.000 A 
ATOM     16  C   UNL     1       1.056   9.109  20.329  0.00  0.00    +0.000 A 
ATOM     17  C   UNL     1       1.543   7.937  20.938  0.00  0.00    +0.000 A 
ATOM     18  C   UNL     1       2.224   6.958  20.206  0.00  0.00    +0.000 A 
BRANCH  16  19
ATOM     19  C   UNL     1       0.325  10.141  21.105  0.00  0.00    +0.000 A 
ATOM     20  C   UNL     1       0.262  11.479  20.666  0.00  0.00    +0.000 A 
ATOM     21  C   UNL     1      -0.417  12.461  21.396  0.00  0.00    +0.000 A 
ATOM     22  C   UNL     1      -1.064  12.119  22.578  0.00  0.00    +0.000 A 
ATOM     23 CL   UNL     1      -1.900  13.323  23.477  0.00  0.00    +0.000 Cl
ATOM     24  C   UNL     1      -1.034  10.806  23.034  0.00  0.00    +0.000 A 
ATOM     25  C   UNL     1      -0.341   9.831  22.307  0.00  0.00    +0.000 A 
ENDBRANCH  16  19
ENDBRANCH   2  13
BRANCH   1  26
ATOM     26  C   UNL     1       1.970   4.253  19.288  0.00  0.00    +0.000 C 
ATOM     27  O   UNL     1       0.759   4.137  19.157  0.00  0.00    +0.000 OA
BRANCH  26  28
ATOM     28  O   UNL     1       2.641   4.097  20.458  0.00  0.00    +0.000 OA
BRANCH  28  30
ATOM     29  C   UNL     1       1.706   2.503  21.924  0.00  0.00    +0.000 C 
ATOM     30  C   UNL     1       2.812   2.754  20.917  0.00  0.00    +0.000 C 
ENDBRANCH  28  30
ENDBRANCH  26  28
ENDBRANCH   1  26
TORSDOF 5
ENDMDL
MODEL 3
REMARK VINA RESULT:      -8.7      4.905      7.641
REMARK  Name = 
REMARK  6 active torsions:
REMARK  status: ('A' for Active; 'I' for Inactive)
REMARK    1  A    between atoms: C_1  and  C_2
REMARK    2  A    between atoms: C_2  and  O_3
REMARK    3  A    between atoms: O_3  and  C_4
REMARK    4  A    between atoms: C_4  and  C_6
REMARK    5  A    between atoms: C_7  and  C_8
REMARK    6  A    between atoms: C_11  and  C_12
REMARK                            x       y       z     vdW  Elec       q    Type
REMARK                         _______ _______ _______ _____ _____    ______ ____
ROOT
ATOM      1  C   UNL     1       5.798   4.709  16.899  0.00  0.00    +0.000 A 
ATOM      2  C   UNL     1       5.652   5.661  17.851  0.00  0.00    +0.000 A 
ATOM      3  N   UNL     1       4.588   5.705  18.732  0.00  0.00    +0.000 N 
ATOM      4  C   UNL     1       3.494   4.846  18.608  0.00  0.00    +0.000 A 
ATOM      5  C   UNL     1       2.396   4.953  19.459  0.00  0.00    +0.000 A 
ATOM      6  C   UNL     1       1.319   4.063  19.343  0.00  0.00    +0.000 A 
ATOM      7  C   UNL     1       1.347   3.056  18.381  0.00  0.00    +0.000 A 
ATOM      8  C   UNL     1       2.451   2.926  17.538  0.00  0.00    +0.000 A 
ATOM      9  C   UNL     1       3.524   3.817  17.663  0.00  0.00    +0.000 A 
ATOM     10  C   UNL     1       4.720   3.674  16.801  0.00  0.00    +0.000 A 
ATOM     11  O   UNL     1       4.796   2.708  16.046  0.00  0.00    +0.000 OA
ATOM     12  H   UNL     1       4.500   6.527  19.319  0.00  0.00    +0.000 HD
ENDROOT
BRANCH   2  13
ATOM     13  C   UNL     1       6.603   6.778  18.026  0.00  0.00    +0.000 A 
ATOM     14  C   UNL     1       6.408   7.992  17.363  0.00  0.00    +0.000 A 
ATOM     15  C   UNL     1       7.305   9.050  17.553  0.00  0.00    +0.000 A 
ATOM     16  C   UNL     1       8.409   8.939  18.421  0.00  0.00    +0.000 A 
ATOM     17  C   UNL     1       8.583   7.707  19.077  0.00  0.00    +0.000 A 
ATOM     18  C   UNL     1       7.697   6.641  18.884  0.00  0.00    +0.000 A 
BRANCH  16  19
ATOM     19  C   UNL     1       9.343  10.073  18.635  0.00  0.00    +0.000 A 
ATOM     20  C   UNL     1       9.907  10.772  17.550  0.00  0.00    +0.000 A 
ATOM     21  C   UNL     1      10.796  11.835  17.743  0.00  0.00    +0.000 A 
ATOM     22  C   UNL     1      11.128  12.232  19.032  0.00  0.00    +0.000 A 
ATOM     23 CL   UNL     1      12.219  13.540  19.273  0.00  0.00    +0.000 Cl
ATOM     24  C   UNL     1      10.581  11.574  20.127  0.00  0.00    +0.000 A 
ATOM     25  C   UNL     1       9.703  10.501  19.928  0.00  0.00    +0.000 A 
ENDBRANCH  16  19
ENDBRANCH   2  13
BRANCH   1  26
ATOM     26  C   UNL     1       6.922   4.735  15.936  0.00  0.00    +0.000 C 
ATOM     27  O   UNL     1       8.075   4.401  16.174  0.00  0.00    +0.000 OA
BRANCH  26  28
ATOM     28  O   UNL     1       6.512   5.337  14.790  0.00  0.00    +0.000 OA
BRANCH  28  30
ATOM     29  C   UNL     1       6.188   3.748  13.078  0.00  0.00    +0.000 C 
ATOM     30  C   UNL     1       7.096   4.855  13.577  0.00  0.00    +0.000 C 
ENDBRANCH  28  30
ENDBRANCH  26  28
ENDBRANCH   1  26
TORSDOF 5
ENDMDL
MODEL 4
REMARK VINA RESULT:      -8.6      0.923      1.489
REMARK  Name = 
REMARK  6 active torsions:
REMARK  status: ('A' for Active; 'I' for Inactive)
REMARK    1  A    between atoms: C_1  and  C_2
REMARK    2  A    between atoms: C_2  and  O_3
REMARK    3  A    between atoms: O_3  and  C_4
REMARK    4  A    between atoms: C_4  and  C_6
REMARK    5  A    between atoms: C_7  and  C_8
REMARK    6  A    between atoms: C_11  and  C_12
REMARK                            x       y       z     vdW  Elec       q    Type
REMARK                         _______ _______ _______ _____ _____    ______ ____
ROOT
ATOM      1  C   UNL     1       3.026   5.045  18.925  0.00  0.00    +0.000 A 
ATOM      2  C   UNL     1       3.018   6.318  18.462  0.00  0.00    +0.000 A 
ATOM      3  N   UNL     1       3.750   6.739  17.368  0.00  0.00    +0.000 N 
ATOM      4  C   UNL     1       4.679   5.907  16.741  0.00  0.00    +0.000 A 
ATOM      5  C   UNL     1       5.462   6.371  15.685  0.00  0.00    +0.000 A 
ATOM      6  C   UNL     1       6.368   5.515  15.044  0.00  0.00    +0.000 A 
ATOM      7  C   UNL     1       6.481   4.187  15.452  0.00  0.00    +0.000 A 
ATOM      8  C   UNL     1       5.686   3.706  16.493  0.00  0.00    +0.000 A 
ATOM      9  C   UNL     1       4.782   4.567  17.125  0.00  0.00    +0.000 A 
ATOM     10  C   UNL     1       3.905   4.066  18.209  0.00  0.00    +0.000 A 
ATOM     11  O   UNL     1       3.915   2.868  18.476  0.00  0.00    +0.000 OA
ATOM     12  H   UNL     1       3.780   7.735  17.181  0.00  0.00    +0.000 HD
ENDROOT
BRANCH   2  13
ATOM     13  C   UNL     1       2.248   7.403  19.104  0.00  0.00    +0.000 A 
ATOM     14  C   UNL     1       1.819   8.508  18.363  0.00  0.00    +0.000 A 
ATOM     15  C   UNL     1       1.072   9.520  18.978  0.00  0.00    +0.000 A 
ATOM     16  C   UNL     1       0.714   9.456  20.338  0.00  0.00    +0.000 A 
ATOM     17  C   UNL     1       1.158   8.333  21.062  0.00  0.00    +0.000 A 
ATOM     18  C   UNL     1       1.914   7.323  20.458  0.00  0.00    +0.000 A 
BRANCH  16  19
ATOM     19  C   UNL     1      -0.097  10.522  20.978  0.00  0.00    +0.000 A 
ATOM     20  C   UNL     1      -0.342  10.521  22.365  0.00  0.00    +0.000 A 
ATOM     21  C   UNL     1      -1.114  11.516  22.976  0.00  0.00    +0.000 A 
ATOM     22  C   UNL     1      -1.646  12.546  22.208  0.00  0.00    +0.000 A 
ATOM     23 CL   UNL     1      -2.593  13.771  22.955  0.00  0.00    +0.000 Cl
ATOM     24  C   UNL     1      -1.413  12.585  20.838  0.00  0.00    +0.000 A 
ATOM     25  C   UNL     1      -0.652  11.579  20.231  0.00  0.00    +0.000 A 
ENDBRANCH  16  19
ENDBRANCH   2  13
BRANCH   1  26
ATOM     26  C   UNL     1       2.274   4.651  20.139  0.00  0.00    +0.000 C 
ATOM     27  O   UNL     1       2.735   4.569  21.270  0.00  0.00    +0.000 OA
BRANCH  26  28
ATOM     28  O   UNL     1       1.031   4.241  19.778  0.00  0.00    +0.000 OA
BRANCH  28  30
ATOM     29  C   UNL     1       0.661   2.158  18.737  0.00  0.00    +0.000 C 
ATOM     30  C   UNL     1       0.703   2.880  20.069  0.00  0.00    +0.000 C 
ENDBRANCH  28  30
ENDBRANCH  26  28
ENDBRANCH   1  26
TORSDOF 5
ENDMDL
MODEL 5
REMARK VINA RESULT:      -8.6      0.805      1.425
REMARK  Name = 
REMARK  6 active torsions:
REMARK  status: ('A' for Active; 'I' for Inactive)
REMARK    1  A    between atoms: C_1  and  C_2
REMARK    2  A    between atoms: C_2  and  O_3
REMARK    3  A    between atoms: O_3  and  C_4
REMARK    4  A    between atoms: C_4  and  C_6
REMARK    5  A    between atoms: C_7  and  C_8
REMARK    6  A    between atoms: C_11  and  C_12
REMARK                            x       y       z     vdW  Elec       q    Type
REMARK                         _______ _______ _______ _____ _____    ______ ____
ROOT
ATOM      1  C   UNL     1       3.048   4.962  18.885  0.00  0.00    +0.000 A 
ATOM      2  C   UNL     1       3.030   6.249  18.464  0.00  0.00    +0.000 A 
ATOM      3  N   UNL     1       3.720   6.700  17.355  0.00  0.00    +0.000 N 
ATOM      4  C   UNL     1       4.618   5.883  16.665  0.00  0.00    +0.000 A 
ATOM      5  C   UNL     1       5.361   6.376  15.594  0.00  0.00    +0.000 A 
ATOM      6  C   UNL     1       6.234   5.536  14.890  0.00  0.00    +0.000 A 
ATOM      7  C   UNL     1       6.354   4.195  15.251  0.00  0.00    +0.000 A 
ATOM      8  C   UNL     1       5.598   3.686  16.307  0.00  0.00    +0.000 A 
ATOM      9  C   UNL     1       4.726   4.532  17.002  0.00  0.00    +0.000 A 
ATOM     10  C   UNL     1       3.890   4.001  18.104  0.00  0.00    +0.000 A 
ATOM     11  O   UNL     1       3.902   2.795  18.332  0.00  0.00    +0.000 OA
ATOM     12  H   UNL     1       3.750   7.702  17.198  0.00  0.00    +0.000 HD
ENDROOT
BRANCH   2  13
ATOM     13  C   UNL     1       2.294   7.318  19.170  0.00  0.00    +0.000 A 
ATOM     14  C   UNL     1       2.000   7.203  20.531  0.00  0.00    +0.000 A 
ATOM     15  C   UNL     1       1.320   8.233  21.193  0.00  0.00    +0.000 A 
ATOM     16  C   UNL     1       0.929   9.411  20.528  0.00  0.00    +0.000 A 
ATOM     17  C   UNL     1       1.236   9.502  19.158  0.00  0.00    +0.000 A 
ATOM     18  C   UNL     1       1.906   8.473  18.486  0.00  0.00    +0.000 A 
BRANCH  16  19
ATOM     19  C   UNL     1       0.228  10.508  21.241  0.00  0.00    +0.000 A 
ATOM     20  C   UNL     1       0.307  11.841  20.791  0.00  0.00    +0.000 A 
ATOM     21  C   UNL     1      -0.343  12.883  21.463  0.00  0.00    +0.000 A 
ATOM     22  C   UNL     1      -1.101  12.608  22.594  0.00  0.00    +0.000 A 
ATOM     23 CL   UNL     1      -1.902  13.886  23.422  0.00  0.00    +0.000 Cl
ATOM     24  C   UNL     1      -1.213  11.302  23.059  0.00  0.00    +0.000 A 
ATOM     25  C   UNL     1      -0.548  10.266  22.391  0.00  0.00    +0.000 A 
ENDBRANCH  16  19
ENDBRANCH   2  13
BRANCH   1  26
ATOM     26  C   UNL     1       2.342   4.534  20.115  0.00  0.00    +0.000 C 
ATOM     27  O   UNL     1       2.859   4.355  21.210  0.00  0.00    +0.000 OA
BRANCH  26  28
ATOM     28  O   UNL     1       1.059   4.217  19.804  0.00  0.00    +0.000 OA
BRANCH  28  30
ATOM     29  C   UNL     1       0.615   2.178  18.704  0.00  0.00    +0.000 C 
ATOM     30  C   UNL     1       0.661   2.866  20.055  0.00  0.00    +0.000 C 
ENDBRANCH  28  30
ENDBRANCH  26  28
ENDBRANCH   1  26
TORSDOF 5
ENDMDL
MODEL 6
REMARK VINA RESULT:      -8.4      0.954      1.299
REMARK  Name = 
REMARK  6 active torsions:
REMARK  status: ('A' for Active; 'I' for Inactive)
REMARK    1  A    between atoms: C_1  and  C_2
REMARK    2  A    between atoms: C_2  and  O_3
REMARK    3  A    between atoms: O_3  and  C_4
REMARK    4  A    between atoms: C_4  and  C_6
REMARK    5  A    between atoms: C_7  and  C_8
REMARK    6  A    between atoms: C_11  and  C_12
REMARK                            x       y       z     vdW  Elec       q    Type
REMARK                         _______ _______ _______ _____ _____    ______ ____
ROOT
ATOM      1  C   UNL     1       2.888   5.087  17.799  0.00  0.00    +0.000 A 
ATOM      2  C   UNL     1       3.241   6.357  18.108  0.00  0.00    +0.000 A 
ATOM      3  N   UNL     1       4.462   6.915  17.776  0.00  0.00    +0.000 N 
ATOM      4  C   UNL     1       5.491   6.153  17.220  0.00  0.00    +0.000 A 
ATOM      5  C   UNL     1       6.740   6.714  16.959  0.00  0.00    +0.000 A 
ATOM      6  C   UNL     1       7.754   5.945  16.371  0.00  0.00    +0.000 A 
ATOM      7  C   UNL     1       7.513   4.615  16.032  0.00  0.00    +0.000 A 
ATOM      8  C   UNL     1       6.259   4.050  16.268  0.00  0.00    +0.000 A 
ATOM      9  C   UNL     1       5.252   4.826  16.853  0.00  0.00    +0.000 A 
ATOM     10  C   UNL     1       3.904   4.254  17.079  0.00  0.00    +0.000 A 
ATOM     11  O   UNL     1       3.659   3.127  16.660  0.00  0.00    +0.000 OA
ATOM     12  H   UNL     1       4.682   7.825  18.165  0.00  0.00    +0.000 HD
ENDROOT
BRANCH   2  13
ATOM     13  C   UNL     1       2.367   7.275  18.868  0.00  0.00    +0.000 A 
ATOM     14  C   UNL     1       2.139   7.077  20.232  0.00  0.00    +0.000 A 
ATOM     15  C   UNL     1       1.325   7.965  20.945  0.00  0.00    +0.000 A 
ATOM     16  C   UNL     1       0.730   9.083  20.329  0.00  0.00    +0.000 A 
ATOM     17  C   UNL     1       0.975   9.260  18.955  0.00  0.00    +0.000 A 
ATOM     18  C   UNL     1       1.779   8.371  18.232  0.00  0.00    +0.000 A 
BRANCH  16  19
ATOM     19  C   UNL     1      -0.114  10.034  21.096  0.00  0.00    +0.000 A 
ATOM     20  C   UNL     1      -0.677  11.171  20.484  0.00  0.00    +0.000 A 
ATOM     21  C   UNL     1      -1.466  12.077  21.202  0.00  0.00    +0.000 A 
ATOM     22  C   UNL     1      -1.721  11.854  22.549  0.00  0.00    +0.000 A 
ATOM     23 CL   UNL     1      -2.691  12.965  23.434  0.00  0.00    +0.000 Cl
ATOM     24  C   UNL     1      -1.192  10.736  23.183  0.00  0.00    +0.000 A 
ATOM     25  C   UNL     1      -0.392   9.840  22.463  0.00  0.00    +0.000 A 
ENDBRANCH  16  19
ENDBRANCH   2  13
BRANCH   1  26
ATOM     26  C   UNL     1       1.593   4.511  18.228  0.00  0.00    +0.000 C 
ATOM     27  O   UNL     1       0.590   4.413  17.535  0.00  0.00    +0.000 OA
BRANCH  26  28
ATOM     28  O   UNL     1       1.642   4.251  19.560  0.00  0.00    +0.000 OA
BRANCH  28  30
ATOM     29  C   UNL     1       1.472   2.859  21.457  0.00  0.00    +0.000 C 
ATOM     30  C   UNL     1       1.178   2.963  19.972  0.00  0.00    +0.000 C 
ENDBRANCH  28  30
ENDBRANCH  26  28
ENDBRANCH   1  26
TORSDOF 5
ENDMDL
MODEL 7
REMARK VINA RESULT:      -8.4      1.594      1.874
REMARK  Name = 
REMARK  6 active torsions:
REMARK  status: ('A' for Active; 'I' for Inactive)
REMARK    1  A    between atoms: C_1  and  C_2
REMARK    2  A    between atoms: C_2  and  O_3
REMARK    3  A    between atoms: O_3  and  C_4
REMARK    4  A    between atoms: C_4  and  C_6
REMARK    5  A    between atoms: C_7  and  C_8
REMARK    6  A    between atoms: C_11  and  C_12
REMARK                            x       y       z     vdW  Elec       q    Type
REMARK                         _______ _______ _______ _____ _____    ______ ____
ROOT
ATOM      1  C   UNL     1       3.148   5.387  19.264  0.00  0.00    +0.000 A 
ATOM      2  C   UNL     1       3.174   6.624  18.714  0.00  0.00    +0.000 A 
ATOM      3  N   UNL     1       4.128   7.037  17.804  0.00  0.00    +0.000 N 
ATOM      4  C   UNL     1       5.237   6.248  17.491  0.00  0.00    +0.000 A 
ATOM      5  C   UNL     1       6.228   6.711  16.627  0.00  0.00    +0.000 A 
ATOM      6  C   UNL     1       7.319   5.895  16.298  0.00  0.00    +0.000 A 
ATOM      7  C   UNL     1       7.412   4.609  16.825  0.00  0.00    +0.000 A 
ATOM      8  C   UNL     1       6.415   4.127  17.673  0.00  0.00    +0.000 A 
ATOM      9  C   UNL     1       5.327   4.948  17.994  0.00  0.00    +0.000 A 
ATOM     10  C   UNL     1       4.240   4.442  18.865  0.00  0.00    +0.000 A 
ATOM     11  O   UNL     1       4.261   3.267  19.220  0.00  0.00    +0.000 OA
ATOM     12  H   UNL     1       4.140   8.019  17.551  0.00  0.00    +0.000 HD
ENDROOT
BRANCH   2  13
ATOM     13  C   UNL     1       2.199   7.679  19.058  0.00  0.00    +0.000 A 
ATOM     14  C   UNL     1       1.788   7.868  20.381  0.00  0.00    +0.000 A 
ATOM     15  C   UNL     1       0.879   8.884  20.697  0.00  0.00    +0.000 A 
ATOM     16  C   UNL     1       0.366   9.753  19.714  0.00  0.00    +0.000 A 
ATOM     17  C   UNL     1       0.795   9.542  18.391  0.00  0.00    +0.000 A 
ATOM     18  C   UNL     1       1.695   8.521  18.064  0.00  0.00    +0.000 A 
BRANCH  16  19
ATOM     19  C   UNL     1      -0.580  10.843  20.060  0.00  0.00    +0.000 A 
ATOM     20  C   UNL     1      -0.487  11.530  21.287  0.00  0.00    +0.000 A 
ATOM     21  C   UNL     1      -1.381  12.553  21.625  0.00  0.00    +0.000 A 
ATOM     22  C   UNL     1      -2.380  12.921  20.732  0.00  0.00    +0.000 A 
ATOM     23 CL   UNL     1      -3.479  14.178  21.144  0.00  0.00    +0.000 Cl
ATOM     24  C   UNL     1      -2.493  12.273  19.507  0.00  0.00    +0.000 A 
ATOM     25  C   UNL     1      -1.605  11.241  19.180  0.00  0.00    +0.000 A 
ENDBRANCH  16  19
ENDBRANCH   2  13
BRANCH   1  26
ATOM     26  C   UNL     1       2.143   5.006  20.282  0.00  0.00    +0.000 C 
ATOM     27  O   UNL     1       2.299   5.059  21.495  0.00  0.00    +0.000 OA
BRANCH  26  28
ATOM     28  O   UNL     1       1.076   4.438  19.664  0.00  0.00    +0.000 OA
BRANCH  28  30
ATOM     29  C   UNL     1       0.872   2.315  18.657  0.00  0.00    +0.000 C 
ATOM     30  C   UNL     1       0.819   3.066  19.974  0.00  0.00    +0.000 C 
ENDBRANCH  28  30
ENDBRANCH  26  28
ENDBRANCH   1  26
TORSDOF 5
ENDMDL
MODEL 8
REMARK VINA RESULT:      -8.3      4.826      8.814
REMARK  Name = 
REMARK  6 active torsions:
REMARK  status: ('A' for Active; 'I' for Inactive)
REMARK    1  A    between atoms: C_1  and  C_2
REMARK    2  A    between atoms: C_2  and  O_3
REMARK    3  A    between atoms: O_3  and  C_4
REMARK    4  A    between atoms: C_4  and  C_6
REMARK    5  A    between atoms: C_7  and  C_8
REMARK    6  A    between atoms: C_11  and  C_12
REMARK                            x       y       z     vdW  Elec       q    Type
REMARK                         _______ _______ _______ _____ _____    ______ ____
ROOT
ATOM      1  C   UNL     1       0.042  12.673  19.414  0.00  0.00    +0.000 A 
ATOM      2  C   UNL     1       1.225  12.086  19.116  0.00  0.00    +0.000 A 
ATOM      3  N   UNL     1       2.358  12.789  18.753  0.00  0.00    +0.000 N 
ATOM      4  C   UNL     1       2.327  14.165  18.520  0.00  0.00    +0.000 A 
ATOM      5  C   UNL     1       3.462  14.847  18.084  0.00  0.00    +0.000 A 
ATOM      6  C   UNL     1       3.424  16.234  17.885  0.00  0.00    +0.000 A 
ATOM      7  C   UNL     1       2.250  16.942  18.137  0.00  0.00    +0.000 A 
ATOM      8  C   UNL     1       1.115  16.274  18.596  0.00  0.00    +0.000 A 
ATOM      9  C   UNL     1       1.163  14.889  18.794  0.00  0.00    +0.000 A 
ATOM     10  C   UNL     1      -0.022  14.166  19.314  0.00  0.00    +0.000 A 
ATOM     11  O   UNL     1      -1.008  14.811  19.657  0.00  0.00    +0.000 OA
ATOM     12  H   UNL     1       3.155  12.255  18.422  0.00  0.00    +0.000 HD
ENDROOT
BRANCH   2  13
ATOM     13  C   UNL     1       1.420  10.621  19.113  0.00  0.00    +0.000 A 
ATOM     14  C   UNL     1       1.754   9.948  17.936  0.00  0.00    +0.000 A 
ATOM     15  C   UNL     1       1.956   8.562  17.951  0.00  0.00    +0.000 A 
ATOM     16  C   UNL     1       1.850   7.810  19.136  0.00  0.00    +0.000 A 
ATOM     17  C   UNL     1       1.513   8.511  20.309  0.00  0.00    +0.000 A 
ATOM     18  C   UNL     1       1.298   9.895  20.300  0.00  0.00    +0.000 A 
BRANCH  16  19
ATOM     19  C   UNL     1       2.088   6.345  19.149  0.00  0.00    +0.000 A 
ATOM     20  C   UNL     1       2.445   5.651  17.976  0.00  0.00    +0.000 A 
ATOM     21  C   UNL     1       2.662   4.268  17.977  0.00  0.00    +0.000 A 
ATOM     22  C   UNL     1       2.541   3.551  19.161  0.00  0.00    +0.000 A 
ATOM     23 CL   UNL     1       2.808   1.853  19.166  0.00  0.00    +0.000 Cl
ATOM     24  C   UNL     1       2.203   4.205  20.341  0.00  0.00    +0.000 A 
ATOM     25  C   UNL     1       1.973   5.587  20.331  0.00  0.00    +0.000 A 
ENDBRANCH  16  19
ENDBRANCH   2  13
BRANCH   1  26
ATOM     26  C   UNL     1      -1.164  11.877  19.739  0.00  0.00    +0.000 C 
ATOM     27  O   UNL     1      -1.464  11.454  20.847  0.00  0.00    +0.000 OA
BRANCH  26  28
ATOM     28  O   UNL     1      -1.807  11.554  18.587  0.00  0.00    +0.000 OA
BRANCH  28  30
ATOM     29  C   UNL     1      -1.927   9.903  16.907  0.00  0.00    +0.000 C 
ATOM     30  C   UNL     1      -2.098  10.168  18.390  0.00  0.00    +0.000 C 
ENDBRANCH  28  30
ENDBRANCH  26  28
ENDBRANCH   1  26
TORSDOF 5
ENDMDL
MODEL 9
REMARK VINA RESULT:      -8.2      4.585      8.667
REMARK  Name = 
REMARK  6 active torsions:
REMARK  status: ('A' for Active; 'I' for Inactive)
REMARK    1  A    between atoms: C_1  and  C_2
REMARK    2  A    between atoms: C_2  and  O_3
REMARK    3  A    between atoms: O_3  and  C_4
REMARK    4  A    between atoms: C_4  and  C_6
REMARK    5  A    between atoms: C_7  and  C_8
REMARK    6  A    between atoms: C_11  and  C_12
REMARK                            x       y       z     vdW  Elec       q    Type
REMARK                         _______ _______ _______ _____ _____    ______ ____
ROOT
ATOM      1  C   UNL     1       0.072  12.052  19.499  0.00  0.00    +0.000 A 
ATOM      2  C   UNL     1       1.267  11.565  19.088  0.00  0.00    +0.000 A 
ATOM      3  N   UNL     1       2.321  12.363  18.685  0.00  0.00    +0.000 N 
ATOM      4  C   UNL     1       2.181  13.743  18.528  0.00  0.00    +0.000 A 
ATOM      5  C   UNL     1       3.233  14.523  18.050  0.00  0.00    +0.000 A 
ATOM      6  C   UNL     1       3.087  15.912  17.928  0.00  0.00    +0.000 A 
ATOM      7  C   UNL     1       1.890  16.523  18.296  0.00  0.00    +0.000 A 
ATOM      8  C   UNL     1       0.839  15.755  18.797  0.00  0.00    +0.000 A 
ATOM      9  C   UNL     1       0.994  14.369  18.919  0.00  0.00    +0.000 A 
ATOM     10  C   UNL     1      -0.098  13.540  19.481  0.00  0.00    +0.000 A 
ATOM     11  O   UNL     1      -1.098  14.097  19.925  0.00  0.00    +0.000 OA
ATOM     12  H   UNL     1       3.125  11.903  18.273  0.00  0.00    +0.000 HD
ENDROOT
BRANCH   2  13
ATOM     13  C   UNL     1       1.559  10.120  18.996  0.00  0.00    +0.000 A 
ATOM     14  C   UNL     1       1.919   9.541  17.776  0.00  0.00    +0.000 A 
ATOM     15  C   UNL     1       2.213   8.174  17.706  0.00  0.00    +0.000 A 
ATOM     16  C   UNL     1       2.176   7.348  18.845  0.00  0.00    +0.000 A 
ATOM     17  C   UNL     1       1.811   7.954  20.061  0.00  0.00    +0.000 A 
ATOM     18  C   UNL     1       1.505   9.318  20.138  0.00  0.00    +0.000 A 
BRANCH  16  19
ATOM     19  C   UNL     1       2.511   5.903  18.767  0.00  0.00    +0.000 A 
ATOM     20  C   UNL     1       3.488   5.333  19.607  0.00  0.00    +0.000 A 
ATOM     21  C   UNL     1       3.817   3.974  19.534  0.00  0.00    +0.000 A 
ATOM     22  C   UNL     1       3.161   3.153  18.626  0.00  0.00    +0.000 A 
ATOM     23 CL   UNL     1       3.562   1.483  18.534  0.00  0.00    +0.000 Cl
ATOM     24  C   UNL     1       2.182   3.679  17.791  0.00  0.00    +0.000 A 
ATOM     25  C   UNL     1       1.867   5.042  17.858  0.00  0.00    +0.000 A 
ENDBRANCH  16  19
ENDBRANCH   2  13
BRANCH   1  26
ATOM     26  C   UNL     1      -1.051  11.159  19.863  0.00  0.00    +0.000 C 
ATOM     27  O   UNL     1      -1.618  10.380  19.109  0.00  0.00    +0.000 OA
BRANCH  26  28
ATOM     28  O   UNL     1      -1.461  11.452  21.125  0.00  0.00    +0.000 OA
BRANCH  28  30
ATOM     29  C   UNL     1      -0.777  10.069  22.909  0.00  0.00    +0.000 C 
ATOM     30  C   UNL     1      -0.472  11.348  22.152  0.00  0.00    +0.000 C 
ENDBRANCH  28  30
ENDBRANCH  26  28
ENDBRANCH   1  26
TORSDOF 5
ENDMDL
