MODEL 1
REMARK VINA RESULT:      -8.1      0.000      0.000
REMARK  Name = 
REMARK  7 active torsions:
REMARK  status: ('A' for Active; 'I' for Inactive)
REMARK    1  A    between atoms: C_1  and  C_2
REMARK    2  A    between atoms: C_4  and  C_5
REMARK    3  A    between atoms: N_7  and  C_8
REMARK    4  A    between atoms: C_15  and  N_16
REMARK    5  A    between atoms: N_16  and  C_17
REMARK    6  A    between atoms: N_16  and  C_18
REMARK    7  A    between atoms: C_18  and  C_19
REMARK                            x       y       z     vdW  Elec       q    Type
REMARK                         _______ _______ _______ _____ _____    ______ ____
ROOT
ATOM      1  C   UNL     1       6.853   4.703  14.350  0.00  0.00    +0.000 C 
ATOM      2  C   UNL     1       6.626   5.134  15.767  0.00  0.00    +0.000 A 
ATOM      3  N   UNL     1       7.396   6.121  16.256  0.00  0.00    +0.000 NA
ATOM      4  C   UNL     1       7.121   6.451  17.531  0.00  0.00    +0.000 A 
ATOM      5  C   UNL     1       6.112   5.878  18.285  0.00  0.00    +0.000 A 
ATOM      6  C   UNL     1       5.336   4.913  17.689  0.00  0.00    +0.000 A 
ATOM      7  N   UNL     1       5.628   4.515  16.437  0.00  0.00    +0.000 NA
ENDROOT
BRANCH   4   8
ATOM      8  C   UNL     1       7.940   7.527  18.176  0.00  0.00    +0.000 C 
ATOM      9  O   UNL     1       8.663   7.210  19.122  0.00  0.00    +0.000 OA
ATOM     10  N   UNL     1       7.778   8.808  17.674  0.00  0.00    +0.000 N 
ATOM     11  H   UNL     1       7.055   8.918  16.971  0.00  0.00    +0.000 HD
BRANCH  10  12
ATOM     12  C   UNL     1       8.451   9.963  18.136  0.00  0.00    +0.000 A 
ATOM     13  C   UNL     1       9.342   9.949  19.219  0.00  0.00    +0.000 A 
ATOM     14  C   UNL     1       9.969  11.119  19.655  0.00  0.00    +0.000 A 
ATOM     15  C   UNL     1       9.717  12.325  19.012  0.00  0.00    +0.000 A 
ATOM     16  C   UNL     1       8.849  12.355  17.923  0.00  0.00    +0.000 A 
ATOM     17  C   UNL     1       8.233  11.178  17.477  0.00  0.00    +0.000 A 
ENDBRANCH  10  12
ENDBRANCH   4   8
BRANCH   6  18
ATOM     18  N   UNL     1       4.216   4.384  18.313  0.00  0.00    +0.000 N 
ATOM     19  C   UNL     1       4.263   3.113  19.023  0.00  0.00    +0.000 C 
BRANCH  18  20
ATOM     20  C   UNL     1       2.898   4.862  17.888  0.00  0.00    +0.000 C 
BRANCH  20  21
ATOM     21  C   UNL     1       2.421   6.136  18.565  0.00  0.00    +0.000 A 
ATOM     22  C   UNL     1       2.124   6.221  19.932  0.00  0.00    +0.000 A 
ATOM     23  C   UNL     1       1.699   7.429  20.498  0.00  0.00    +0.000 A 
ATOM     24  C   UNL     1       1.577   8.564  19.705  0.00  0.00    +0.000 A 
ATOM     25 CL   UNL     1       1.065  10.051  20.405  0.00  0.00    +0.000 Cl
ATOM     26  C   UNL     1       1.864   8.505  18.343  0.00  0.00    +0.000 A 
ATOM     27  C   UNL     1       2.284   7.297  17.779  0.00  0.00    +0.000 A 
ENDBRANCH  20  21
ENDBRANCH  18  20
ENDBRANCH   6  18
TORSDOF 5
ENDMDL
MODEL 2
REMARK VINA RESULT:      -7.8      4.737      7.968
REMARK  Name = 
REMARK  7 active torsions:
REMARK  status: ('A' for Active; 'I' for Inactive)
REMARK    1  A    between atoms: C_1  and  C_2
REMARK    2  A    between atoms: C_4  and  C_5
REMARK    3  A    between atoms: N_7  and  C_8
REMARK    4  A    between atoms: C_15  and  N_16
REMARK    5  A    between atoms: N_16  and  C_17
REMARK    6  A    between atoms: N_16  and  C_18
REMARK    7  A    between atoms: C_18  and  C_19
REMARK                            x       y       z     vdW  Elec       q    Type
REMARK                         _______ _______ _______ _____ _____    ______ ____
ROOT
ATOM      1  C   UNL     1       0.128   9.549  23.518  0.00  0.00    +0.000 C 
ATOM      2  C   UNL     1       0.453   9.445  22.059  0.00  0.00    +0.000 A 
ATOM      3  N   UNL     1       1.145   8.372  21.642  0.00  0.00    +0.000 NA
ATOM      4  C   UNL     1       1.387   8.355  20.319  0.00  0.00    +0.000 A 
ATOM      5  C   UNL     1       0.937   9.316  19.431  0.00  0.00    +0.000 A 
ATOM      6  C   UNL     1       0.188  10.353  19.935  0.00  0.00    +0.000 A 
ATOM      7  N   UNL     1      -0.015  10.434  21.262  0.00  0.00    +0.000 NA
ENDROOT
BRANCH   4   8
ATOM      8  C   UNL     1       2.173   7.209  19.758  0.00  0.00    +0.000 C 
ATOM      9  O   UNL     1       2.324   6.214  20.468  0.00  0.00    +0.000 OA
ATOM     10  N   UNL     1       2.704   7.390  18.490  0.00  0.00    +0.000 N 
ATOM     11  H   UNL     1       2.586   8.314  18.090  0.00  0.00    +0.000 HD
BRANCH  10  12
ATOM     12  C   UNL     1       3.473   6.439  17.779  0.00  0.00    +0.000 A 
ATOM     13  C   UNL     1       4.645   6.770  17.083  0.00  0.00    +0.000 A 
ATOM     14  C   UNL     1       5.363   5.801  16.375  0.00  0.00    +0.000 A 
ATOM     15  C   UNL     1       4.920   4.484  16.354  0.00  0.00    +0.000 A 
ATOM     16  C   UNL     1       3.768   4.134  17.056  0.00  0.00    +0.000 A 
ATOM     17  C   UNL     1       3.058   5.104  17.777  0.00  0.00    +0.000 A 
ENDBRANCH  10  12
ENDBRANCH   4   8
BRANCH   6  18
ATOM     18  N   UNL     1      -0.423  11.284  19.108  0.00  0.00    +0.000 N 
ATOM     19  C   UNL     1       0.282  12.465  18.630  0.00  0.00    +0.000 C 
BRANCH  18  20
ATOM     20  C   UNL     1      -1.888  11.325  19.081  0.00  0.00    +0.000 C 
BRANCH  20  21
ATOM     21  C   UNL     1      -2.520  10.984  17.742  0.00  0.00    +0.000 A 
ATOM     22  C   UNL     1      -3.689  11.589  17.262  0.00  0.00    +0.000 A 
ATOM     23  C   UNL     1      -4.216  11.238  16.013  0.00  0.00    +0.000 A 
ATOM     24  C   UNL     1      -3.573  10.287  15.229  0.00  0.00    +0.000 A 
ATOM     25 CL   UNL     1      -4.216   9.864  13.689  0.00  0.00    +0.000 Cl
ATOM     26  C   UNL     1      -2.411   9.669  15.684  0.00  0.00    +0.000 A 
ATOM     27  C   UNL     1      -1.889  10.018  16.934  0.00  0.00    +0.000 A 
ENDBRANCH  20  21
ENDBRANCH  18  20
ENDBRANCH   6  18
TORSDOF 5
ENDMDL
MODEL 3
REMARK VINA RESULT:      -7.8      4.197      7.123
REMARK  Name = 
REMARK  7 active torsions:
REMARK  status: ('A' for Active; 'I' for Inactive)
REMARK    1  A    between atoms: C_1  and  C_2
REMARK    2  A    between atoms: C_4  and  C_5
REMARK    3  A    between atoms: N_7  and  C_8
REMARK    4  A    between atoms: C_15  and  N_16
REMARK    5  A    between atoms: N_16  and  C_17
REMARK    6  A    between atoms: N_16  and  C_18
REMARK    7  A    between atoms: C_18  and  C_19
REMARK                            x       y       z     vdW  Elec       q    Type
REMARK                         _______ _______ _______ _____ _____    ______ ____
ROOT
ATOM      1  C   UNL     1       4.374   1.818  20.345  0.00  0.00    +0.000 C 
ATOM      2  C   UNL     1       4.291   3.259  19.941  0.00  0.00    +0.000 A 
ATOM      3  N   UNL     1       3.226   3.968  20.350  0.00  0.00    +0.000 NA
ATOM      4  C   UNL     1       3.235   5.252  19.949  0.00  0.00    +0.000 A 
ATOM      5  C   UNL     1       4.256   5.835  19.220  0.00  0.00    +0.000 A 
ATOM      6  C   UNL     1       5.335   5.051  18.889  0.00  0.00    +0.000 A 
ATOM      7  N   UNL     1       5.326   3.746  19.218  0.00  0.00    +0.000 NA
ENDROOT
BRANCH   4   8
ATOM      8  C   UNL     1       2.078   6.123  20.337  0.00  0.00    +0.000 C 
ATOM      9  O   UNL     1       1.006   5.572  20.592  0.00  0.00    +0.000 OA
ATOM     10  N   UNL     1       2.308   7.489  20.332  0.00  0.00    +0.000 N 
ATOM     11  H   UNL     1       3.214   7.783  19.983  0.00  0.00    +0.000 HD
BRANCH  10  12
ATOM     12  C   UNL     1       1.358   8.483  20.664  0.00  0.00    +0.000 A 
ATOM     13  C   UNL     1       0.691   9.256  19.703  0.00  0.00    +0.000 A 
ATOM     14  C   UNL     1      -0.225  10.244  20.078  0.00  0.00    +0.000 A 
ATOM     15  C   UNL     1      -0.491  10.471  21.422  0.00  0.00    +0.000 A 
ATOM     16  C   UNL     1       0.148   9.700  22.391  0.00  0.00    +0.000 A 
ATOM     17  C   UNL     1       1.055   8.701  22.012  0.00  0.00    +0.000 A 
ENDBRANCH  10  12
ENDBRANCH   4   8
BRANCH   6  18
ATOM     18  N   UNL     1       6.467   5.578  18.284  0.00  0.00    +0.000 N 
ATOM     19  C   UNL     1       7.694   5.816  19.031  0.00  0.00    +0.000 C 
BRANCH  18  20
ATOM     20  C   UNL     1       6.299   6.309  17.026  0.00  0.00    +0.000 C 
BRANCH  20  21
ATOM     21  C   UNL     1       6.228   5.444  15.778  0.00  0.00    +0.000 A 
ATOM     22  C   UNL     1       5.112   4.668  15.438  0.00  0.00    +0.000 A 
ATOM     23  C   UNL     1       5.104   3.901  14.267  0.00  0.00    +0.000 A 
ATOM     24  C   UNL     1       6.208   3.911  13.421  0.00  0.00    +0.000 A 
ATOM     25 CL   UNL     1       6.193   2.975  11.976  0.00  0.00    +0.000 Cl
ATOM     26  C   UNL     1       7.330   4.672  13.738  0.00  0.00    +0.000 A 
ATOM     27  C   UNL     1       7.337   5.434  14.910  0.00  0.00    +0.000 A 
ENDBRANCH  20  21
ENDBRANCH  18  20
ENDBRANCH   6  18
TORSDOF 5
ENDMDL
MODEL 4
REMARK VINA RESULT:      -7.8      3.227      6.498
REMARK  Name = 
REMARK  7 active torsions:
REMARK  status: ('A' for Active; 'I' for Inactive)
REMARK    1  A    between atoms: C_1  and  C_2
REMARK    2  A    between atoms: C_4  and  C_5
REMARK    3  A    between atoms: N_7  and  C_8
REMARK    4  A    between atoms: C_15  and  N_16
REMARK    5  A    between atoms: N_16  and  C_17
REMARK    6  A    between atoms: N_16  and  C_18
REMARK    7  A    between atoms: C_18  and  C_19
REMARK                            x       y       z     vdW  Elec       q    Type
REMARK                         _______ _______ _______ _____ _____    ______ ____
ROOT
ATOM      1  C   UNL     1       2.093   3.261  21.678  0.00  0.00    +0.000 C 
ATOM      2  C   UNL     1       2.420   4.321  20.672  0.00  0.00    +0.000 A 
ATOM      3  N   UNL     1       1.941   5.559  20.881  0.00  0.00    +0.000 NA
ATOM      4  C   UNL     1       2.288   6.449  19.935  0.00  0.00    +0.000 A 
ATOM      5  C   UNL     1       3.103   6.162  18.855  0.00  0.00    +0.000 A 
ATOM      6  C   UNL     1       3.596   4.883  18.746  0.00  0.00    +0.000 A 
ATOM      7  N   UNL     1       3.213   3.953  19.639  0.00  0.00    +0.000 NA
ENDROOT
BRANCH   4   8
ATOM      8  C   UNL     1       1.784   7.855  20.066  0.00  0.00    +0.000 C 
ATOM      9  O   UNL     1       1.503   8.261  21.195  0.00  0.00    +0.000 OA
ATOM     10  N   UNL     1       1.636   8.568  18.887  0.00  0.00    +0.000 N 
ATOM     11  H   UNL     1       1.800   8.047  18.033  0.00  0.00    +0.000 HD
BRANCH  10  12
ATOM     12  C   UNL     1       1.177   9.902  18.787  0.00  0.00    +0.000 A 
ATOM     13  C   UNL     1       2.028  10.987  18.529  0.00  0.00    +0.000 A 
ATOM     14  C   UNL     1       1.535  12.293  18.459  0.00  0.00    +0.000 A 
ATOM     15  C   UNL     1       0.179  12.535  18.644  0.00  0.00    +0.000 A 
ATOM     16  C   UNL     1      -0.684  11.468  18.882  0.00  0.00    +0.000 A 
ATOM     17  C   UNL     1      -0.189  10.157  18.937  0.00  0.00    +0.000 A 
ENDBRANCH  10  12
ENDBRANCH   4   8
BRANCH   6  18
ATOM     18  N   UNL     1       4.530   4.537  17.780  0.00  0.00    +0.000 N 
ATOM     19  C   UNL     1       4.156   3.801  16.581  0.00  0.00    +0.000 C 
BRANCH  18  20
ATOM     20  C   UNL     1       5.943   4.511  18.166  0.00  0.00    +0.000 C 
BRANCH  20  21
ATOM     21  C   UNL     1       6.661   5.848  18.089  0.00  0.00    +0.000 A 
ATOM     22  C   UNL     1       6.296   6.872  17.204  0.00  0.00    +0.000 A 
ATOM     23  C   UNL     1       6.992   8.087  17.190  0.00  0.00    +0.000 A 
ATOM     24  C   UNL     1       8.052   8.292  18.067  0.00  0.00    +0.000 A 
ATOM     25 CL   UNL     1       8.899   9.790  18.055  0.00  0.00    +0.000 Cl
ATOM     26  C   UNL     1       8.435   7.289  18.954  0.00  0.00    +0.000 A 
ATOM     27  C   UNL     1       7.742   6.075  18.963  0.00  0.00    +0.000 A 
ENDBRANCH  20  21
ENDBRANCH  18  20
ENDBRANCH   6  18
TORSDOF 5
ENDMDL
MODEL 5
REMARK VINA RESULT:      -7.7      4.231      7.185
REMARK  Name = 
REMARK  7 active torsions:
REMARK  status: ('A' for Active; 'I' for Inactive)
REMARK    1  A    between atoms: C_1  and  C_2
REMARK    2  A    between atoms: C_4  and  C_5
REMARK    3  A    between atoms: N_7  and  C_8
REMARK    4  A    between atoms: C_15  and  N_16
REMARK    5  A    between atoms: N_16  and  C_17
REMARK    6  A    between atoms: N_16  and  C_18
REMARK    7  A    between atoms: C_18  and  C_19
REMARK                            x       y       z     vdW  Elec       q    Type
REMARK                         _______ _______ _______ _____ _____    ______ ____
ROOT
ATOM      1  C   UNL     1       4.494   1.887  20.226  0.00  0.00    +0.000 C 
ATOM      2  C   UNL     1       4.325   3.306  19.776  0.00  0.00    +0.000 A 
ATOM      3  N   UNL     1       3.300   4.011  20.283  0.00  0.00    +0.000 NA
ATOM      4  C   UNL     1       3.227   5.276  19.831  0.00  0.00    +0.000 A 
ATOM      5  C   UNL     1       4.137   5.847  18.959  0.00  0.00    +0.000 A 
ATOM      6  C   UNL     1       5.187   5.071  18.531  0.00  0.00    +0.000 A 
ATOM      7  N   UNL     1       5.252   3.782  18.912  0.00  0.00    +0.000 NA
ENDROOT
BRANCH   4   8
ATOM      8  C   UNL     1       2.103   6.139  20.321  0.00  0.00    +0.000 C 
ATOM      9  O   UNL     1       1.071   5.580  20.695  0.00  0.00    +0.000 OA
ATOM     10  N   UNL     1       2.312   7.508  20.268  0.00  0.00    +0.000 N 
ATOM     11  H   UNL     1       3.173   7.806  19.822  0.00  0.00    +0.000 HD
BRANCH  10  12
ATOM     12  C   UNL     1       1.386   8.496  20.679  0.00  0.00    +0.000 A 
ATOM     13  C   UNL     1       1.106   8.769  22.026  0.00  0.00    +0.000 A 
ATOM     14  C   UNL     1       0.167   9.740  22.387  0.00  0.00    +0.000 A 
ATOM     15  C   UNL     1      -0.505  10.456  21.404  0.00  0.00    +0.000 A 
ATOM     16  C   UNL     1      -0.226  10.212  20.061  0.00  0.00    +0.000 A 
ATOM     17  C   UNL     1       0.727   9.248  19.702  0.00  0.00    +0.000 A 
ENDBRANCH  10  12
ENDBRANCH   4   8
BRANCH   6  18
ATOM     18  N   UNL     1       6.223   5.594  17.771  0.00  0.00    +0.000 N 
ATOM     19  C   UNL     1       7.518   5.914  18.357  0.00  0.00    +0.000 C 
BRANCH  18  20
ATOM     20  C   UNL     1       5.887   6.242  16.501  0.00  0.00    +0.000 C 
BRANCH  20  21
ATOM     21  C   UNL     1       6.123   5.396  15.260  0.00  0.00    +0.000 A 
ATOM     22  C   UNL     1       7.303   5.443  14.505  0.00  0.00    +0.000 A 
ATOM     23  C   UNL     1       7.463   4.628  13.377  0.00  0.00    +0.000 A 
ATOM     24  C   UNL     1       6.450   3.754  13.001  0.00  0.00    +0.000 A 
ATOM     25 CL   UNL     1       6.653   2.745  11.621  0.00  0.00    +0.000 Cl
ATOM     26  C   UNL     1       5.267   3.690  13.734  0.00  0.00    +0.000 A 
ATOM     27  C   UNL     1       5.107   4.507  14.857  0.00  0.00    +0.000 A 
ENDBRANCH  20  21
ENDBRANCH  18  20
ENDBRANCH   6  18
TORSDOF 5
ENDMDL
MODEL 6
REMARK VINA RESULT:      -7.6      3.389      7.176
REMARK  Name = 
REMARK  7 active torsions:
REMARK  status: ('A' for Active; 'I' for Inactive)
REMARK    1  A    between atoms: C_1  and  C_2
REMARK    2  A    between atoms: C_4  and  C_5
REMARK    3  A    between atoms: N_7  and  C_8
REMARK    4  A    between atoms: C_15  and  N_16
REMARK    5  A    between atoms: N_16  and  C_17
REMARK    6  A    between atoms: N_16  and  C_18
REMARK    7  A    between atoms: C_18  and  C_19
REMARK                            x       y       z     vdW  Elec       q    Type
REMARK                         _______ _______ _______ _____ _____    ______ ____
ROOT
ATOM      1  C   UNL     1       2.057   2.976  21.944  0.00  0.00    +0.000 C 
ATOM      2  C   UNL     1       2.253   4.011  20.879  0.00  0.00    +0.000 A 
ATOM      3  N   UNL     1       1.802   5.254  21.118  0.00  0.00    +0.000 NA
ATOM      4  C   UNL     1       2.025   6.121  20.114  0.00  0.00    +0.000 A 
ATOM      5  C   UNL     1       2.696   5.806  18.946  0.00  0.00    +0.000 A 
ATOM      6  C   UNL     1       3.172   4.524  18.806  0.00  0.00    +0.000 A 
ATOM      7  N   UNL     1       2.908   3.617  19.763  0.00  0.00    +0.000 NA
ENDROOT
BRANCH   4   8
ATOM      8  C   UNL     1       1.540   7.530  20.274  0.00  0.00    +0.000 C 
ATOM      9  O   UNL     1       2.042   8.395  19.556  0.00  0.00    +0.000 OA
ATOM     10  N   UNL     1       0.588   7.745  21.258  0.00  0.00    +0.000 N 
ATOM     11  H   UNL     1       0.367   6.944  21.841  0.00  0.00    +0.000 HD
BRANCH  10  12
ATOM     12  C   UNL     1      -0.000   8.992  21.574  0.00  0.00    +0.000 A 
ATOM     13  C   UNL     1      -0.198  10.007  20.627  0.00  0.00    +0.000 A 
ATOM     14  C   UNL     1      -0.764  11.233  20.988  0.00  0.00    +0.000 A 
ATOM     15  C   UNL     1      -1.145  11.462  22.304  0.00  0.00    +0.000 A 
ATOM     16  C   UNL     1      -0.974  10.459  23.255  0.00  0.00    +0.000 A 
ATOM     17  C   UNL     1      -0.419   9.225  22.888  0.00  0.00    +0.000 A 
ENDBRANCH  10  12
ENDBRANCH   4   8
BRANCH   6  18
ATOM     18  N   UNL     1       3.976   4.153  17.738  0.00  0.00    +0.000 N 
ATOM     19  C   UNL     1       3.430   3.496  16.559  0.00  0.00    +0.000 C 
BRANCH  18  20
ATOM     20  C   UNL     1       5.415   4.010  17.975  0.00  0.00    +0.000 C 
BRANCH  20  21
ATOM     21  C   UNL     1       6.209   5.305  17.944  0.00  0.00    +0.000 A 
ATOM     22  C   UNL     1       5.913   6.374  17.087  0.00  0.00    +0.000 A 
ATOM     23  C   UNL     1       6.677   7.546  17.115  0.00  0.00    +0.000 A 
ATOM     24  C   UNL     1       7.738   7.665  18.006  0.00  0.00    +0.000 A 
ATOM     25 CL   UNL     1       8.670   9.111  18.046  0.00  0.00    +0.000 Cl
ATOM     26  C   UNL     1       8.054   6.616  18.866  0.00  0.00    +0.000 A 
ATOM     27  C   UNL     1       7.293   5.444  18.834  0.00  0.00    +0.000 A 
ENDBRANCH  20  21
ENDBRANCH  18  20
ENDBRANCH   6  18
TORSDOF 5
ENDMDL
MODEL 7
REMARK VINA RESULT:      -7.6      5.166      8.478
REMARK  Name = 
REMARK  7 active torsions:
REMARK  status: ('A' for Active; 'I' for Inactive)
REMARK    1  A    between atoms: C_1  and  C_2
REMARK    2  A    between atoms: C_4  and  C_5
REMARK    3  A    between atoms: N_7  and  C_8
REMARK    4  A    between atoms: C_15  and  N_16
REMARK    5  A    between atoms: N_16  and  C_17
REMARK    6  A    between atoms: N_16  and  C_18
REMARK    7  A    between atoms: C_18  and  C_19
REMARK                            x       y       z     vdW  Elec       q    Type
REMARK                         _______ _______ _______ _____ _____    ______ ____
ROOT
ATOM      1  C   UNL     1       0.154   9.329  22.915  0.00  0.00    +0.000 C 
ATOM      2  C   UNL     1       0.451   9.721  21.500  0.00  0.00    +0.000 A 
ATOM      3  N   UNL     1       1.080   8.829  20.717  0.00  0.00    +0.000 NA
ATOM      4  C   UNL     1       1.300   9.258  19.462  0.00  0.00    +0.000 A 
ATOM      5  C   UNL     1       0.887  10.485  18.973  0.00  0.00    +0.000 A 
ATOM      6  C   UNL     1       0.202  11.317  19.827  0.00  0.00    +0.000 A 
ATOM      7  N   UNL     1       0.024  10.943  21.107  0.00  0.00    +0.000 NA
ENDROOT
BRANCH   4   8
ATOM      8  C   UNL     1       2.016   8.343  18.515  0.00  0.00    +0.000 C 
ATOM      9  O   UNL     1       2.191   8.734  17.360  0.00  0.00    +0.000 OA
ATOM     10  N   UNL     1       2.384   7.105  19.017  0.00  0.00    +0.000 N 
ATOM     11  H   UNL     1       2.059   6.895  19.955  0.00  0.00    +0.000 HD
BRANCH  10  12
ATOM     12  C   UNL     1       3.064   6.095  18.297  0.00  0.00    +0.000 A 
ATOM     13  C   UNL     1       4.395   6.223  17.871  0.00  0.00    +0.000 A 
ATOM     14  C   UNL     1       5.022   5.208  17.143  0.00  0.00    +0.000 A 
ATOM     15  C   UNL     1       4.327   4.047  16.829  0.00  0.00    +0.000 A 
ATOM     16  C   UNL     1       3.011   3.894  17.259  0.00  0.00    +0.000 A 
ATOM     17  C   UNL     1       2.389   4.907  18.003  0.00  0.00    +0.000 A 
ENDBRANCH  10  12
ENDBRANCH   4   8
BRANCH   6  18
ATOM     18  N   UNL     1      -0.373  12.502  19.391  0.00  0.00    +0.000 N 
ATOM     19  C   UNL     1       0.364  13.455  18.573  0.00  0.00    +0.000 C 
BRANCH  18  20
ATOM     20  C   UNL     1      -1.544  13.006  20.112  0.00  0.00    +0.000 C 
BRANCH  20  21
ATOM     21  C   UNL     1      -2.883  12.487  19.616  0.00  0.00    +0.000 A 
ATOM     22  C   UNL     1      -3.030  11.702  18.464  0.00  0.00    +0.000 A 
ATOM     23  C   UNL     1      -4.292  11.245  18.066  0.00  0.00    +0.000 A 
ATOM     24  C   UNL     1      -5.416  11.559  18.821  0.00  0.00    +0.000 A 
ATOM     25 CL   UNL     1      -6.966  10.987  18.336  0.00  0.00    +0.000 Cl
ATOM     26  C   UNL     1      -5.297  12.339  19.969  0.00  0.00    +0.000 A 
ATOM     27  C   UNL     1      -4.037  12.799  20.362  0.00  0.00    +0.000 A 
ENDBRANCH  20  21
ENDBRANCH  18  20
ENDBRANCH   6  18
TORSDOF 5
ENDMDL
MODEL 8
REMARK VINA RESULT:      -7.5      4.628      7.439
REMARK  Name = 
REMARK  7 active torsions:
REMARK  status: ('A' for Active; 'I' for Inactive)
REMARK    1  A    between atoms: C_1  and  C_2
REMARK    2  A    between atoms: C_4  and  C_5
REMARK    3  A    between atoms: N_7  and  C_8
REMARK    4  A    between atoms: C_15  and  N_16
REMARK    5  A    between atoms: N_16  and  C_17
REMARK    6  A    between atoms: N_16  and  C_18
REMARK    7  A    between atoms: C_18  and  C_19
REMARK                            x       y       z     vdW  Elec       q    Type
REMARK                         _______ _______ _______ _____ _____    ______ ____
ROOT
ATOM      1  C   UNL     1       2.381   4.626  21.038  0.00  0.00    +0.000 C 
ATOM      2  C   UNL     1       2.772   5.489  19.877  0.00  0.00    +0.000 A 
ATOM      3  N   UNL     1       2.133   6.660  19.718  0.00  0.00    +0.000 NA
ATOM      4  C   UNL     1       2.549   7.374  18.657  0.00  0.00    +0.000 A 
ATOM      5  C   UNL     1       3.575   6.989  17.812  0.00  0.00    +0.000 A 
ATOM      6  C   UNL     1       4.213   5.801  18.078  0.00  0.00    +0.000 A 
ATOM      7  N   UNL     1       3.775   5.032  19.092  0.00  0.00    +0.000 NA
ENDROOT
BRANCH   4   8
ATOM      8  C   UNL     1       1.882   8.688  18.381  0.00  0.00    +0.000 C 
ATOM      9  O   UNL     1       2.159   9.262  17.327  0.00  0.00    +0.000 OA
ATOM     10  N   UNL     1       1.036   9.167  19.368  0.00  0.00    +0.000 N 
ATOM     11  H   UNL     1       1.009   8.627  20.227  0.00  0.00    +0.000 HD
BRANCH  10  12
ATOM     12  C   UNL     1       0.310  10.380  19.310  0.00  0.00    +0.000 A 
ATOM     13  C   UNL     1       0.721  11.550  19.965  0.00  0.00    +0.000 A 
ATOM     14  C   UNL     1      -0.039  12.721  19.898  0.00  0.00    +0.000 A 
ATOM     15  C   UNL     1      -1.223  12.741  19.172  0.00  0.00    +0.000 A 
ATOM     16  C   UNL     1      -1.638  11.593  18.499  0.00  0.00    +0.000 A 
ATOM     17  C   UNL     1      -0.866  10.424  18.556  0.00  0.00    +0.000 A 
ENDBRANCH  10  12
ENDBRANCH   4   8
BRANCH   6  18
ATOM     18  N   UNL     1       5.339   5.400  17.375  0.00  0.00    +0.000 N 
ATOM     19  C   UNL     1       6.404   4.633  18.007  0.00  0.00    +0.000 C 
BRANCH  18  20
ATOM     20  C   UNL     1       5.674   6.117  16.142  0.00  0.00    +0.000 C 
BRANCH  20  21
ATOM     21  C   UNL     1       5.978   5.236  14.942  0.00  0.00    +0.000 A 
ATOM     22  C   UNL     1       5.069   4.309  14.413  0.00  0.00    +0.000 A 
ATOM     23  C   UNL     1       5.406   3.534  13.296  0.00  0.00    +0.000 A 
ATOM     24  C   UNL     1       6.649   3.686  12.693  0.00  0.00    +0.000 A 
ATOM     25 CL   UNL     1       7.058   2.740  11.314  0.00  0.00    +0.000 Cl
ATOM     26  C   UNL     1       7.571   4.598  13.202  0.00  0.00    +0.000 A 
ATOM     27  C   UNL     1       7.234   5.368  14.319  0.00  0.00    +0.000 A 
ENDBRANCH  20  21
ENDBRANCH  18  20
ENDBRANCH   6  18
TORSDOF 5
ENDMDL
MODEL 9
REMARK VINA RESULT:      -7.5      4.258      7.202
REMARK  Name = 
REMARK  7 active torsions:
REMARK  status: ('A' for Active; 'I' for Inactive)
REMARK    1  A    between atoms: C_1  and  C_2
REMARK    2  A    between atoms: C_4  and  C_5
REMARK    3  A    between atoms: N_7  and  C_8
REMARK    4  A    between atoms: C_15  and  N_16
REMARK    5  A    between atoms: N_16  and  C_17
REMARK    6  A    between atoms: N_16  and  C_18
REMARK    7  A    between atoms: C_18  and  C_19
REMARK                            x       y       z     vdW  Elec       q    Type
REMARK                         _______ _______ _______ _____ _____    ______ ____
ROOT
ATOM      1  C   UNL     1       3.638   1.707  19.005  0.00  0.00    +0.000 C 
ATOM      2  C   UNL     1       3.738   3.202  18.974  0.00  0.00    +0.000 A 
ATOM      3  N   UNL     1       2.803   3.911  19.628  0.00  0.00    +0.000 NA
ATOM      4  C   UNL     1       2.972   5.243  19.555  0.00  0.00    +0.000 A 
ATOM      5  C   UNL     1       4.030   5.861  18.911  0.00  0.00    +0.000 A 
ATOM      6  C   UNL     1       4.972   5.059  18.312  0.00  0.00    +0.000 A 
ATOM      7  N   UNL     1       4.796   3.725  18.311  0.00  0.00    +0.000 NA
ENDROOT
BRANCH   4   8
ATOM      8  C   UNL     1       1.968   6.123  20.235  0.00  0.00    +0.000 C 
ATOM      9  O   UNL     1       1.034   5.578  20.826  0.00  0.00    +0.000 OA
ATOM     10  N   UNL     1       2.157   7.489  20.102  0.00  0.00    +0.000 N 
ATOM     11  H   UNL     1       2.910   7.773  19.484  0.00  0.00    +0.000 HD
BRANCH  10  12
ATOM     12  C   UNL     1       1.331   8.492  20.662  0.00  0.00    +0.000 A 
ATOM     13  C   UNL     1       0.659   9.450  19.890  0.00  0.00    +0.000 A 
ATOM     14  C   UNL     1      -0.131  10.436  20.487  0.00  0.00    +0.000 A 
ATOM     15  C   UNL     1      -0.263  10.478  21.870  0.00  0.00    +0.000 A 
ATOM     16  C   UNL     1       0.382   9.523  22.652  0.00  0.00    +0.000 A 
ATOM     17  C   UNL     1       1.162   8.526  22.050  0.00  0.00    +0.000 A 
ENDBRANCH  10  12
ENDBRANCH   4   8
BRANCH   6  18
ATOM     18  N   UNL     1       6.137   5.578  17.766  0.00  0.00    +0.000 N 
ATOM     19  C   UNL     1       7.319   5.829  18.579  0.00  0.00    +0.000 C 
BRANCH  18  20
ATOM     20  C   UNL     1       6.042   6.290  16.489  0.00  0.00    +0.000 C 
BRANCH  20  21
ATOM     21  C   UNL     1       6.188   5.421  15.251  0.00  0.00    +0.000 A 
ATOM     22  C   UNL     1       7.363   5.351  14.489  0.00  0.00    +0.000 A 
ATOM     23  C   UNL     1       7.438   4.521  13.364  0.00  0.00    +0.000 A 
ATOM     24  C   UNL     1       6.343   3.747  12.997  0.00  0.00    +0.000 A 
ATOM     25 CL   UNL     1       6.440   2.719  11.619  0.00  0.00    +0.000 Cl
ATOM     26  C   UNL     1       5.164   3.800  13.735  0.00  0.00    +0.000 A 
ATOM     27  C   UNL     1       5.089   4.633  14.856  0.00  0.00    +0.000 A 
ENDBRANCH  20  21
ENDBRANCH  18  20
ENDBRANCH   6  18
TORSDOF 5
ENDMDL
