MODEL 1
REMARK VINA RESULT:      -8.2      0.000      0.000
REMARK  Name = 
REMARK  5 active torsions:
REMARK  status: ('A' for Active; 'I' for Inactive)
REMARK    1  A    between atoms: C_4  and  C_5
REMARK    2  A    between atoms: N_13  and  C_14
REMARK    3  A    between atoms: C_14  and  C_15
REMARK    4  A    between atoms: C_19  and  C_20
REMARK    5  A    between atoms: C_20  and  O_22
REMARK                            x       y       z     vdW  Elec       q    Type
REMARK                         _______ _______ _______ _____ _____    ______ ____
ROOT
ATOM      1  N   UNL     1       1.911   2.821  17.903  0.00  0.00    +0.000 N 
ATOM      2  C   UNL     1       2.638   3.990  17.827  0.00  0.00    +0.000 A 
ATOM      3  N   UNL     1       2.062   5.084  18.343  0.00  0.00    +0.000 NA
ATOM      4  C   UNL     1       2.733   6.267  18.288  0.00  0.00    +0.000 A 
ATOM      5  C   UNL     1       3.985   6.322  17.680  0.00  0.00    +0.000 A 
ATOM      6  N   UNL     1       4.908   7.326  17.456  0.00  0.00    +0.000 NA
ATOM      7  C   UNL     1       5.920   6.736  16.856  0.00  0.00    +0.000 A 
ATOM      8  N   UNL     1       5.689   5.400  16.669  0.00  0.00    +0.000 N 
ATOM      9  C   UNL     1       4.451   5.118  17.181  0.00  0.00    +0.000 A 
ATOM     10  N   UNL     1       3.829   3.929  17.208  0.00  0.00    +0.000 NA
ATOM     11  H   UNL     1       0.931   3.033  18.034  0.00  0.00    +0.000 HD
ATOM     12  H   UNL     1       2.159   2.177  17.167  0.00  0.00    +0.000 HD
ENDROOT
BRANCH   4  13
ATOM     13  C   UNL     1       2.138   7.445  18.884  0.00  0.00    +0.000 A 
ATOM     14  C   UNL     1       1.777   7.800  20.172  0.00  0.00    +0.000 A 
ATOM     15  C   UNL     1       1.212   9.096  20.100  0.00  0.00    +0.000 A 
ATOM     16  C   UNL     1       1.265   9.459  18.777  0.00  0.00    +0.000 A 
ATOM     17  O   UNL     1       1.827   8.472  18.033  0.00  0.00    +0.000 OA
ENDBRANCH   4  13
BRANCH   8  18
ATOM     18  C   UNL     1       6.642   4.435  16.159  0.00  0.00    +0.000 C 
BRANCH  18  19
ATOM     19  C   UNL     1       6.721   4.436  14.651  0.00  0.00    +0.000 A 
ATOM     20  C   UNL     1       7.684   5.223  13.999  0.00  0.00    +0.000 A 
ATOM     21  C   UNL     1       7.840   5.155  12.615  0.00  0.00    +0.000 A 
ATOM     22  C   UNL     1       7.034   4.302  11.862  0.00  0.00    +0.000 A 
ATOM     23  C   UNL     1       6.056   3.520  12.488  0.00  0.00    +0.000 A 
ATOM     24  C   UNL     1       5.906   3.585  13.881  0.00  0.00    +0.000 A 
BRANCH  23  25
ATOM     25  C   UNL     1       5.281   2.575  11.642  0.00  0.00    +0.000 C 
ATOM     26  O   UNL     1       4.182   2.849  11.193  0.00  0.00    +0.000 OA
BRANCH  25  27
ATOM     27  O   UNL     1       5.880   1.384  11.433  0.00  0.00    +0.000 OA
ATOM     28  H   UNL     1       6.589   1.379  10.763  0.00  0.00    +0.000 HD
ENDBRANCH  25  27
ENDBRANCH  23  25
ENDBRANCH  18  19
ENDBRANCH   8  18
TORSDOF 5
ENDMDL
MODEL 2
REMARK VINA RESULT:      -8.0      1.025      1.025
REMARK  Name = 
REMARK  5 active torsions:
REMARK  status: ('A' for Active; 'I' for Inactive)
REMARK    1  A    between atoms: C_4  and  C_5
REMARK    2  A    between atoms: N_13  and  C_14
REMARK    3  A    between atoms: C_14  and  C_15
REMARK    4  A    between atoms: C_19  and  C_20
REMARK    5  A    between atoms: C_20  and  O_22
REMARK                            x       y       z     vdW  Elec       q    Type
REMARK                         _______ _______ _______ _____ _____    ______ ____
ROOT
ATOM      1  N   UNL     1       3.920   2.589  20.210  0.00  0.00    +0.000 N 
ATOM      2  C   UNL     1       4.028   3.750  19.472  0.00  0.00    +0.000 A 
ATOM      3  N   UNL     1       3.223   4.759  19.829  0.00  0.00    +0.000 NA
ATOM      4  C   UNL     1       3.282   5.925  19.130  0.00  0.00    +0.000 A 
ATOM      5  C   UNL     1       4.156   6.038  18.052  0.00  0.00    +0.000 A 
ATOM      6  N   UNL     1       4.459   7.044  17.153  0.00  0.00    +0.000 NA
ATOM      7  C   UNL     1       5.401   6.545  16.382  0.00  0.00    +0.000 A 
ATOM      8  N   UNL     1       5.712   5.258  16.730  0.00  0.00    +0.000 N 
ATOM      9  C   UNL     1       4.919   4.912  17.790  0.00  0.00    +0.000 A 
ATOM     10  N   UNL     1       4.894   3.742  18.446  0.00  0.00    +0.000 NA
ATOM     11  H   UNL     1       3.027   2.565  20.684  0.00  0.00    +0.000 HD
ATOM     12  H   UNL     1       4.189   1.778  19.674  0.00  0.00    +0.000 HD
ENDROOT
BRANCH   4  13
ATOM     13  C   UNL     1       2.449   7.037  19.538  0.00  0.00    +0.000 A 
ATOM     14  C   UNL     1       1.742   7.345  20.687  0.00  0.00    +0.000 A 
ATOM     15  C   UNL     1       1.096   8.583  20.454  0.00  0.00    +0.000 A 
ATOM     16  C   UNL     1       1.448   8.961  19.182  0.00  0.00    +0.000 A 
ATOM     17  O   UNL     1       2.270   8.037  18.620  0.00  0.00    +0.000 OA
ENDBRANCH   4  13
BRANCH   8  18
ATOM     18  C   UNL     1       6.788   4.463  16.173  0.00  0.00    +0.000 C 
BRANCH  18  19
ATOM     19  C   UNL     1       6.805   4.481  14.663  0.00  0.00    +0.000 A 
ATOM     20  C   UNL     1       7.724   5.293  13.981  0.00  0.00    +0.000 A 
ATOM     21  C   UNL     1       7.824   5.242  12.591  0.00  0.00    +0.000 A 
ATOM     22  C   UNL     1       7.004   4.381  11.862  0.00  0.00    +0.000 A 
ATOM     23  C   UNL     1       6.069   3.573  12.520  0.00  0.00    +0.000 A 
ATOM     24  C   UNL     1       5.975   3.621  13.918  0.00  0.00    +0.000 A 
BRANCH  23  25
ATOM     25  C   UNL     1       5.278   2.621  11.696  0.00  0.00    +0.000 C 
ATOM     26  O   UNL     1       4.215   2.925  11.185  0.00  0.00    +0.000 OA
BRANCH  25  27
ATOM     27  O   UNL     1       5.818   1.390  11.583  0.00  0.00    +0.000 OA
ATOM     28  H   UNL     1       5.247   0.650  11.860  0.00  0.00    +0.000 HD
ENDBRANCH  25  27
ENDBRANCH  23  25
ENDBRANCH  18  19
ENDBRANCH   8  18
TORSDOF 5
ENDMDL
MODEL 3
REMARK VINA RESULT:      -7.5      2.033      8.205
REMARK  Name = 
REMARK  5 active torsions:
REMARK  status: ('A' for Active; 'I' for Inactive)
REMARK    1  A    between atoms: C_4  and  C_5
REMARK    2  A    between atoms: N_13  and  C_14
REMARK    3  A    between atoms: C_14  and  C_15
REMARK    4  A    between atoms: C_19  and  C_20
REMARK    5  A    between atoms: C_20  and  O_22
REMARK                            x       y       z     vdW  Elec       q    Type
REMARK                         _______ _______ _______ _____ _____    ______ ____
ROOT
ATOM      1  N   UNL     1       7.845   7.761  17.552  0.00  0.00    +0.000 N 
ATOM      2  C   UNL     1       6.896   6.842  17.157  0.00  0.00    +0.000 A 
ATOM      3  N   UNL     1       7.089   6.263  15.965  0.00  0.00    +0.000 NA
ATOM      4  C   UNL     1       6.177   5.353  15.522  0.00  0.00    +0.000 A 
ATOM      5  C   UNL     1       5.060   5.062  16.300  0.00  0.00    +0.000 A 
ATOM      6  N   UNL     1       3.974   4.220  16.156  0.00  0.00    +0.000 NA
ATOM      7  C   UNL     1       3.271   4.372  17.259  0.00  0.00    +0.000 A 
ATOM      8  N   UNL     1       3.845   5.284  18.103  0.00  0.00    +0.000 N 
ATOM      9  C   UNL     1       4.985   5.744  17.503  0.00  0.00    +0.000 A 
ATOM     10  N   UNL     1       5.853   6.650  17.981  0.00  0.00    +0.000 NA
ATOM     11  H   UNL     1       8.355   8.097  16.746  0.00  0.00    +0.000 HD
ATOM     12  H   UNL     1       7.463   8.446  18.186  0.00  0.00    +0.000 HD
ENDROOT
BRANCH   4  13
ATOM     13  C   UNL     1       6.402   4.688  14.256  0.00  0.00    +0.000 A 
ATOM     14  C   UNL     1       5.808   3.621  13.605  0.00  0.00    +0.000 A 
ATOM     15  C   UNL     1       6.509   3.437  12.389  0.00  0.00    +0.000 A 
ATOM     16  C   UNL     1       7.486   4.402  12.365  0.00  0.00    +0.000 A 
ATOM     17  O   UNL     1       7.428   5.167  13.485  0.00  0.00    +0.000 OA
ENDBRANCH   4  13
BRANCH   8  18
ATOM     18  C   UNL     1       3.403   5.592  19.449  0.00  0.00    +0.000 C 
BRANCH  18  19
ATOM     19  C   UNL     1       2.648   6.897  19.530  0.00  0.00    +0.000 A 
ATOM     20  C   UNL     1       2.478   7.682  18.378  0.00  0.00    +0.000 A 
ATOM     21  C   UNL     1       1.694   8.834  18.412  0.00  0.00    +0.000 A 
ATOM     22  C   UNL     1       1.070   9.221  19.598  0.00  0.00    +0.000 A 
ATOM     23  C   UNL     1       1.238   8.462  20.763  0.00  0.00    +0.000 A 
ATOM     24  C   UNL     1       2.021   7.300  20.725  0.00  0.00    +0.000 A 
BRANCH  23  25
ATOM     25  C   UNL     1       0.487   8.883  21.975  0.00  0.00    +0.000 C 
ATOM     26  O   UNL     1      -0.702   8.662  22.118  0.00  0.00    +0.000 OA
BRANCH  25  27
ATOM     27  O   UNL     1       1.222   9.549  22.890  0.00  0.00    +0.000 OA
ATOM     28  H   UNL     1       0.735   9.868  23.673  0.00  0.00    +0.000 HD
ENDBRANCH  25  27
ENDBRANCH  23  25
ENDBRANCH  18  19
ENDBRANCH   8  18
TORSDOF 5
ENDMDL
MODEL 4
REMARK VINA RESULT:      -7.4      3.694      5.161
REMARK  Name = 
REMARK  5 active torsions:
REMARK  status: ('A' for Active; 'I' for Inactive)
REMARK    1  A    between atoms: C_4  and  C_5
REMARK    2  A    between atoms: N_13  and  C_14
REMARK    3  A    between atoms: C_14  and  C_15
REMARK    4  A    between atoms: C_19  and  C_20
REMARK    5  A    between atoms: C_20  and  O_22
REMARK                            x       y       z     vdW  Elec       q    Type
REMARK                         _______ _______ _______ _____ _____    ______ ____
ROOT
ATOM      1  N   UNL     1       2.764   8.807  17.058  0.00  0.00    +0.000 N 
ATOM      2  C   UNL     1       2.472   7.982  18.124  0.00  0.00    +0.000 A 
ATOM      3  N   UNL     1       1.842   8.549  19.161  0.00  0.00    +0.000 NA
ATOM      4  C   UNL     1       1.537   7.782  20.243  0.00  0.00    +0.000 A 
ATOM      5  C   UNL     1       1.902   6.438  20.260  0.00  0.00    +0.000 A 
ATOM      6  N   UNL     1       1.755   5.407  21.169  0.00  0.00    +0.000 NA
ATOM      7  C   UNL     1       2.288   4.355  20.586  0.00  0.00    +0.000 A 
ATOM      8  N   UNL     1       2.785   4.659  19.347  0.00  0.00    +0.000 N 
ATOM      9  C   UNL     1       2.557   5.991  19.125  0.00  0.00    +0.000 A 
ATOM     10  N   UNL     1       2.883   6.706  18.038  0.00  0.00    +0.000 NA
ATOM     11  H   UNL     1       2.757   9.773  17.359  0.00  0.00    +0.000 HD
ATOM     12  H   UNL     1       3.566   8.482  16.541  0.00  0.00    +0.000 HD
ENDROOT
BRANCH   4  13
ATOM     13  C   UNL     1       0.815   8.375  21.349  0.00  0.00    +0.000 A 
ATOM     14  C   UNL     1      -0.522   8.478  21.688  0.00  0.00    +0.000 A 
ATOM     15  C   UNL     1      -0.587   9.210  22.898  0.00  0.00    +0.000 A 
ATOM     16  C   UNL     1       0.711   9.508  23.230  0.00  0.00    +0.000 A 
ATOM     17  O   UNL     1       1.568   9.005  22.304  0.00  0.00    +0.000 OA
ENDBRANCH   4  13
BRANCH   8  18
ATOM     18  C   UNL     1       3.320   3.713  18.389  0.00  0.00    +0.000 C 
BRANCH  18  19
ATOM     19  C   UNL     1       4.719   4.065  17.941  0.00  0.00    +0.000 A 
ATOM     20  C   UNL     1       5.110   3.831  16.613  0.00  0.00    +0.000 A 
ATOM     21  C   UNL     1       6.360   4.247  16.157  0.00  0.00    +0.000 A 
ATOM     22  C   UNL     1       7.239   4.899  17.021  0.00  0.00    +0.000 A 
ATOM     23  C   UNL     1       6.877   5.128  18.354  0.00  0.00    +0.000 A 
ATOM     24  C   UNL     1       5.617   4.716  18.809  0.00  0.00    +0.000 A 
BRANCH  23  25
ATOM     25  C   UNL     1       7.825   5.895  19.205  0.00  0.00    +0.000 C 
ATOM     26  O   UNL     1       8.372   6.913  18.822  0.00  0.00    +0.000 OA
BRANCH  25  27
ATOM     27  O   UNL     1       8.048   5.359  20.423  0.00  0.00    +0.000 OA
ATOM     28  H   UNL     1       8.978   5.144  20.627  0.00  0.00    +0.000 HD
ENDBRANCH  25  27
ENDBRANCH  23  25
ENDBRANCH  18  19
ENDBRANCH   8  18
TORSDOF 5
ENDMDL
MODEL 5
REMARK VINA RESULT:      -7.4      2.203      7.835
REMARK  Name = 
REMARK  5 active torsions:
REMARK  status: ('A' for Active; 'I' for Inactive)
REMARK    1  A    between atoms: C_4  and  C_5
REMARK    2  A    between atoms: N_13  and  C_14
REMARK    3  A    between atoms: C_14  and  C_15
REMARK    4  A    between atoms: C_19  and  C_20
REMARK    5  A    between atoms: C_20  and  O_22
REMARK                            x       y       z     vdW  Elec       q    Type
REMARK                         _______ _______ _______ _____ _____    ______ ____
ROOT
ATOM      1  N   UNL     1       7.908   7.520  17.816  0.00  0.00    +0.000 N 
ATOM      2  C   UNL     1       7.223   6.440  17.299  0.00  0.00    +0.000 A 
ATOM      3  N   UNL     1       7.398   6.193  15.994  0.00  0.00    +0.000 NA
ATOM      4  C   UNL     1       6.740   5.143  15.430  0.00  0.00    +0.000 A 
ATOM      5  C   UNL     1       5.887   4.366  16.210  0.00  0.00    +0.000 A 
ATOM      6  N   UNL     1       5.088   3.265  15.966  0.00  0.00    +0.000 NA
ATOM      7  C   UNL     1       4.545   2.969  17.127  0.00  0.00    +0.000 A 
ATOM      8  N   UNL     1       4.943   3.836  18.109  0.00  0.00    +0.000 N 
ATOM      9  C   UNL     1       5.795   4.744  17.539  0.00  0.00    +0.000 A 
ATOM     10  N   UNL     1       6.418   5.769  18.139  0.00  0.00    +0.000 NA
ATOM     11  H   UNL     1       8.169   8.150  17.069  0.00  0.00    +0.000 HD
ATOM     12  H   UNL     1       7.439   7.911  18.619  0.00  0.00    +0.000 HD
ENDROOT
BRANCH   4  13
ATOM     13  C   UNL     1       6.960   4.841  14.032  0.00  0.00    +0.000 A 
ATOM     14  C   UNL     1       6.507   3.856  13.172  0.00  0.00    +0.000 A 
ATOM     15  C   UNL     1       7.113   4.095  11.915  0.00  0.00    +0.000 A 
ATOM     16  C   UNL     1       7.896   5.211  12.077  0.00  0.00    +0.000 A 
ATOM     17  O   UNL     1       7.808   5.674  13.351  0.00  0.00    +0.000 OA
ENDBRANCH   4  13
BRANCH   8  18
ATOM     18  C   UNL     1       4.636   3.722  19.520  0.00  0.00    +0.000 C 
BRANCH  18  19
ATOM     19  C   UNL     1       3.308   4.343  19.880  0.00  0.00    +0.000 A 
ATOM     20  C   UNL     1       2.247   3.530  20.310  0.00  0.00    +0.000 A 
ATOM     21  C   UNL     1       1.049   4.096  20.746  0.00  0.00    +0.000 A 
ATOM     22  C   UNL     1       0.892   5.482  20.755  0.00  0.00    +0.000 A 
ATOM     23  C   UNL     1       1.931   6.311  20.315  0.00  0.00    +0.000 A 
ATOM     24  C   UNL     1       3.137   5.741  19.883  0.00  0.00    +0.000 A 
BRANCH  23  25
ATOM     25  C   UNL     1       1.732   7.781  20.419  0.00  0.00    +0.000 C 
ATOM     26  O   UNL     1       1.696   8.508  19.443  0.00  0.00    +0.000 OA
BRANCH  25  27
ATOM     27  O   UNL     1       1.621   8.246  21.681  0.00  0.00    +0.000 OA
ATOM     28  H   UNL     1       2.461   8.445  22.135  0.00  0.00    +0.000 HD
ENDBRANCH  25  27
ENDBRANCH  23  25
ENDBRANCH  18  19
ENDBRANCH   8  18
TORSDOF 5
ENDMDL
MODEL 6
REMARK VINA RESULT:      -7.3      3.716      5.704
REMARK  Name = 
REMARK  5 active torsions:
REMARK  status: ('A' for Active; 'I' for Inactive)
REMARK    1  A    between atoms: C_4  and  C_5
REMARK    2  A    between atoms: N_13  and  C_14
REMARK    3  A    between atoms: C_14  and  C_15
REMARK    4  A    between atoms: C_19  and  C_20
REMARK    5  A    between atoms: C_20  and  O_22
REMARK                            x       y       z     vdW  Elec       q    Type
REMARK                         _______ _______ _______ _____ _____    ______ ____
ROOT
ATOM      1  N   UNL     1      -0.444   8.919  23.069  0.00  0.00    +0.000 N 
ATOM      2  C   UNL     1       0.197   9.018  21.852  0.00  0.00    +0.000 A 
ATOM      3  N   UNL     1       0.055  10.177  21.196  0.00  0.00    +0.000 NA
ATOM      4  C   UNL     1       0.661  10.325  19.986  0.00  0.00    +0.000 A 
ATOM      5  C   UNL     1       1.392   9.270  19.448  0.00  0.00    +0.000 A 
ATOM      6  N   UNL     1       2.110   9.086  18.281  0.00  0.00    +0.000 NA
ATOM      7  C   UNL     1       2.605   7.870  18.368  0.00  0.00    +0.000 A 
ATOM      8  N   UNL     1       2.230   7.252  19.531  0.00  0.00    +0.000 N 
ATOM      9  C   UNL     1       1.445   8.129  20.231  0.00  0.00    +0.000 A 
ATOM     10  N   UNL     1       0.864   7.933  21.425  0.00  0.00    +0.000 NA
ATOM     11  H   UNL     1      -1.187   9.604  23.123  0.00  0.00    +0.000 HD
ATOM     12  H   UNL     1      -0.669   7.963  23.298  0.00  0.00    +0.000 HD
ENDROOT
BRANCH   4  13
ATOM     13  C   UNL     1       0.550  11.591  19.292  0.00  0.00    +0.000 A 
ATOM     14  C   UNL     1       1.407  12.657  19.081  0.00  0.00    +0.000 A 
ATOM     15  C   UNL     1       0.690  13.622  18.334  0.00  0.00    +0.000 A 
ATOM     16  C   UNL     1      -0.559  13.089  18.128  0.00  0.00    +0.000 A 
ATOM     17  O   UNL     1      -0.654  11.861  18.698  0.00  0.00    +0.000 OA
ENDBRANCH   4  13
BRANCH   8  18
ATOM     18  C   UNL     1       2.701   5.965  20.001  0.00  0.00    +0.000 C 
BRANCH  18  19
ATOM     19  C   UNL     1       3.479   5.211  18.949  0.00  0.00    +0.000 A 
ATOM     20  C   UNL     1       2.799   4.543  17.918  0.00  0.00    +0.000 A 
ATOM     21  C   UNL     1       3.504   3.931  16.881  0.00  0.00    +0.000 A 
ATOM     22  C   UNL     1       4.898   3.976  16.862  0.00  0.00    +0.000 A 
ATOM     23  C   UNL     1       5.597   4.622  17.888  0.00  0.00    +0.000 A 
ATOM     24  C   UNL     1       4.886   5.242  18.926  0.00  0.00    +0.000 A 
BRANCH  23  25
ATOM     25  C   UNL     1       7.077   4.702  17.771  0.00  0.00    +0.000 C 
ATOM     26  O   UNL     1       7.657   4.575  16.709  0.00  0.00    +0.000 OA
BRANCH  25  27
ATOM     27  O   UNL     1       7.724   4.900  18.939  0.00  0.00    +0.000 OA
ATOM     28  H   UNL     1       8.649   4.590  18.968  0.00  0.00    +0.000 HD
ENDBRANCH  25  27
ENDBRANCH  23  25
ENDBRANCH  18  19
ENDBRANCH   8  18
TORSDOF 5
ENDMDL
MODEL 7
REMARK VINA RESULT:      -7.2      2.432      4.186
REMARK  Name = 
REMARK  5 active torsions:
REMARK  status: ('A' for Active; 'I' for Inactive)
REMARK    1  A    between atoms: C_4  and  C_5
REMARK    2  A    between atoms: N_13  and  C_14
REMARK    3  A    between atoms: C_14  and  C_15
REMARK    4  A    between atoms: C_19  and  C_20
REMARK    5  A    between atoms: C_20  and  O_22
REMARK                            x       y       z     vdW  Elec       q    Type
REMARK                         _______ _______ _______ _____ _____    ______ ____
ROOT
ATOM      1  N   UNL     1       2.710   8.956  17.072  0.00  0.00    +0.000 N 
ATOM      2  C   UNL     1       2.445   8.106  18.125  0.00  0.00    +0.000 A 
ATOM      3  N   UNL     1       1.813   8.641  19.177  0.00  0.00    +0.000 NA
ATOM      4  C   UNL     1       1.533   7.849  20.248  0.00  0.00    +0.000 A 
ATOM      5  C   UNL     1       1.926   6.513  20.238  0.00  0.00    +0.000 A 
ATOM      6  N   UNL     1       1.808   5.463  21.129  0.00  0.00    +0.000 NA
ATOM      7  C   UNL     1       2.357   4.433  20.523  0.00  0.00    +0.000 A 
ATOM      8  N   UNL     1       2.838   4.769  19.286  0.00  0.00    +0.000 N 
ATOM      9  C   UNL     1       2.580   6.099  19.089  0.00  0.00    +0.000 A 
ATOM     10  N   UNL     1       2.881   6.841  18.012  0.00  0.00    +0.000 NA
ATOM     11  H   UNL     1       2.686   9.915  17.390  0.00  0.00    +0.000 HD
ATOM     12  H   UNL     1       3.515   8.656  16.541  0.00  0.00    +0.000 HD
ENDROOT
BRANCH   4  13
ATOM     13  C   UNL     1       0.809   8.408  21.370  0.00  0.00    +0.000 A 
ATOM     14  C   UNL     1      -0.529   8.498  21.711  0.00  0.00    +0.000 A 
ATOM     15  C   UNL     1      -0.596   9.193  22.942  0.00  0.00    +0.000 A 
ATOM     16  C   UNL     1       0.702   9.484  23.285  0.00  0.00    +0.000 A 
ATOM     17  O   UNL     1       1.560   9.010  22.345  0.00  0.00    +0.000 OA
ENDBRANCH   4  13
BRANCH   8  18
ATOM     18  C   UNL     1       3.383   3.851  18.306  0.00  0.00    +0.000 C 
BRANCH  18  19
ATOM     19  C   UNL     1       4.751   4.265  17.819  0.00  0.00    +0.000 A 
ATOM     20  C   UNL     1       5.773   4.535  18.743  0.00  0.00    +0.000 A 
ATOM     21  C   UNL     1       7.069   4.815  18.308  0.00  0.00    +0.000 A 
ATOM     22  C   UNL     1       7.361   4.832  16.945  0.00  0.00    +0.000 A 
ATOM     23  C   UNL     1       6.354   4.582  16.005  0.00  0.00    +0.000 A 
ATOM     24  C   UNL     1       5.054   4.294  16.444  0.00  0.00    +0.000 A 
BRANCH  23  25
ATOM     25  C   UNL     1       6.743   4.539  14.571  0.00  0.00    +0.000 C 
ATOM     26  O   UNL     1       6.229   3.774  13.775  0.00  0.00    +0.000 OA
BRANCH  25  27
ATOM     27  O   UNL     1       7.727   5.397  14.228  0.00  0.00    +0.000 OA
ATOM     28  H   UNL     1       8.323   5.668  14.951  0.00  0.00    +0.000 HD
ENDBRANCH  25  27
ENDBRANCH  23  25
ENDBRANCH  18  19
ENDBRANCH   8  18
TORSDOF 5
ENDMDL
MODEL 8
REMARK VINA RESULT:      -7.2      1.808      7.702
REMARK  Name = 
REMARK  5 active torsions:
REMARK  status: ('A' for Active; 'I' for Inactive)
REMARK    1  A    between atoms: C_4  and  C_5
REMARK    2  A    between atoms: N_13  and  C_14
REMARK    3  A    between atoms: C_14  and  C_15
REMARK    4  A    between atoms: C_19  and  C_20
REMARK    5  A    between atoms: C_20  and  O_22
REMARK                            x       y       z     vdW  Elec       q    Type
REMARK                         _______ _______ _______ _____ _____    ______ ____
ROOT
ATOM      1  N   UNL     1       7.894   7.714  17.566  0.00  0.00    +0.000 N 
ATOM      2  C   UNL     1       6.986   6.748  17.188  0.00  0.00    +0.000 A 
ATOM      3  N   UNL     1       7.134   6.241  15.957  0.00  0.00    +0.000 NA
ATOM      4  C   UNL     1       6.260   5.289  15.530  0.00  0.00    +0.000 A 
ATOM      5  C   UNL     1       5.224   4.880  16.365  0.00  0.00    +0.000 A 
ATOM      6  N   UNL     1       4.192   3.968  16.251  0.00  0.00    +0.000 NA
ATOM      7  C   UNL     1       3.560   4.015  17.405  0.00  0.00    +0.000 A 
ATOM      8  N   UNL     1       4.127   4.926  18.256  0.00  0.00    +0.000 N 
ATOM      9  C   UNL     1       5.187   5.497  17.604  0.00  0.00    +0.000 A 
ATOM     10  N   UNL     1       6.021   6.440  18.069  0.00  0.00    +0.000 NA
ATOM     11  H   UNL     1       8.320   8.125  16.746  0.00  0.00    +0.000 HD
ATOM     12  H   UNL     1       7.511   8.339  18.259  0.00  0.00    +0.000 HD
ENDROOT
BRANCH   4  13
ATOM     13  C   UNL     1       6.440   4.702  14.218  0.00  0.00    +0.000 A 
ATOM     14  C   UNL     1       5.851   3.650  13.540  0.00  0.00    +0.000 A 
ATOM     15  C   UNL     1       6.493   3.560  12.281  0.00  0.00    +0.000 A 
ATOM     16  C   UNL     1       7.432   4.561  12.261  0.00  0.00    +0.000 A 
ATOM     17  O   UNL     1       7.406   5.262  13.424  0.00  0.00    +0.000 OA
ENDBRANCH   4  13
BRANCH   8  18
ATOM     18  C   UNL     1       3.762   5.137  19.642  0.00  0.00    +0.000 C 
BRANCH  18  19
ATOM     19  C   UNL     1       2.729   6.225  19.813  0.00  0.00    +0.000 A 
ATOM     20  C   UNL     1       1.837   6.181  20.897  0.00  0.00    +0.000 A 
ATOM     21  C   UNL     1       0.949   7.231  21.129  0.00  0.00    +0.000 A 
ATOM     22  C   UNL     1       0.937   8.338  20.281  0.00  0.00    +0.000 A 
ATOM     23  C   UNL     1       1.806   8.395  19.185  0.00  0.00    +0.000 A 
ATOM     24  C   UNL     1       2.703   7.342  18.957  0.00  0.00    +0.000 A 
BRANCH  23  25
ATOM     25  C   UNL     1       1.799   9.634  18.362  0.00  0.00    +0.000 C 
ATOM     26  O   UNL     1       1.544  10.729  18.830  0.00  0.00    +0.000 OA
BRANCH  25  27
ATOM     27  O   UNL     1       2.072   9.444  17.054  0.00  0.00    +0.000 OA
ATOM     28  H   UNL     1       1.405   8.940  16.552  0.00  0.00    +0.000 HD
ENDBRANCH  25  27
ENDBRANCH  23  25
ENDBRANCH  18  19
ENDBRANCH   8  18
TORSDOF 5
ENDMDL
MODEL 9
REMARK VINA RESULT:      -7.2      3.928      6.133
REMARK  Name = 
REMARK  5 active torsions:
REMARK  status: ('A' for Active; 'I' for Inactive)
REMARK    1  A    between atoms: C_4  and  C_5
REMARK    2  A    between atoms: N_13  and  C_14
REMARK    3  A    between atoms: C_14  and  C_15
REMARK    4  A    between atoms: C_19  and  C_20
REMARK    5  A    between atoms: C_20  and  O_22
REMARK                            x       y       z     vdW  Elec       q    Type
REMARK                         _______ _______ _______ _____ _____    ______ ____
ROOT
ATOM      1  N   UNL     1      -0.608   9.531  23.430  0.00  0.00    +0.000 N 
ATOM      2  C   UNL     1      -0.015   9.536  22.185  0.00  0.00    +0.000 A 
ATOM      3  N   UNL     1      -0.132  10.665  21.474  0.00  0.00    +0.000 NA
ATOM      4  C   UNL     1       0.428  10.722  20.235  0.00  0.00    +0.000 A 
ATOM      5  C   UNL     1       1.088   9.607  19.725  0.00  0.00    +0.000 A 
ATOM      6  N   UNL     1       1.746   9.329  18.542  0.00  0.00    +0.000 NA
ATOM      7  C   UNL     1       2.188   8.097  18.674  0.00  0.00    +0.000 A 
ATOM      8  N   UNL     1       1.835   7.559  19.882  0.00  0.00    +0.000 N 
ATOM      9  C   UNL     1       1.121   8.507  20.565  0.00  0.00    +0.000 A 
ATOM     10  N   UNL     1       0.583   8.400  21.790  0.00  0.00    +0.000 NA
ATOM     11  H   UNL     1      -1.316  10.252  23.476  0.00  0.00    +0.000 HD
ATOM     12  H   UNL     1      -0.867   8.599  23.718  0.00  0.00    +0.000 HD
ENDROOT
BRANCH   4  13
ATOM     13  C   UNL     1       0.347  11.954  19.479  0.00  0.00    +0.000 A 
ATOM     14  C   UNL     1      -0.668  12.609  18.803  0.00  0.00    +0.000 A 
ATOM     15  C   UNL     1      -0.100  13.776  18.237  0.00  0.00    +0.000 A 
ATOM     16  C   UNL     1       1.223  13.770  18.602  0.00  0.00    +0.000 A 
ATOM     17  O   UNL     1       1.504  12.676  19.357  0.00  0.00    +0.000 OA
ENDBRANCH   4  13
BRANCH   8  18
ATOM     18  C   UNL     1       2.266   6.276  20.400  0.00  0.00    +0.000 C 
BRANCH  18  19
ATOM     19  C   UNL     1       2.853   5.384  19.333  0.00  0.00    +0.000 A 
ATOM     20  C   UNL     1       2.009   4.737  18.417  0.00  0.00    +0.000 A 
ATOM     21  C   UNL     1       2.540   3.995  17.362  0.00  0.00    +0.000 A 
ATOM     22  C   UNL     1       3.922   3.888  17.208  0.00  0.00    +0.000 A 
ATOM     23  C   UNL     1       4.783   4.512  18.119  0.00  0.00    +0.000 A 
ATOM     24  C   UNL     1       4.247   5.262  19.175  0.00  0.00    +0.000 A 
BRANCH  23  25
ATOM     25  C   UNL     1       6.244   4.424  17.858  0.00  0.00    +0.000 C 
ATOM     26  O   UNL     1       7.077   4.766  18.678  0.00  0.00    +0.000 OA
BRANCH  25  27
ATOM     27  O   UNL     1       6.571   3.959  16.634  0.00  0.00    +0.000 OA
ATOM     28  H   UNL     1       5.905   4.100  15.936  0.00  0.00    +0.000 HD
ENDBRANCH  25  27
ENDBRANCH  23  25
ENDBRANCH  18  19
ENDBRANCH   8  18
TORSDOF 5
ENDMDL
