MODEL 1
REMARK VINA RESULT:      -5.5      0.000      0.000
REMARK  Name = 
REMARK  1 active torsions:
REMARK  status: ('A' for Active; 'I' for Inactive)
REMARK    1  A    between atoms: C_7  and  O_8
REMARK                            x       y       z     vdW  Elec       q    Type
REMARK                         _______ _______ _______ _____ _____    ______ ____
ROOT
ATOM      1  O   UNL     1       7.942   4.456  16.586  0.00  0.00    +0.000 OA
ATOM      2  C   UNL     1       7.298   4.734  17.581  0.00  0.00    +0.000 C 
ATOM      3  C   UNL     1       7.797   5.303  18.882  0.00  0.00    +0.000 C 
ATOM      4  O   UNL     1       6.636   5.439  19.742  0.00  0.00    +0.000 OA
ATOM      5  C   UNL     1       5.572   5.002  18.996  0.00  0.00    +0.000 A 
ATOM      6  C   UNL     1       4.269   4.981  19.456  0.00  0.00    +0.000 A 
ATOM      7  C   UNL     1       3.288   4.512  18.580  0.00  0.00    +0.000 A 
ATOM      8  C   UNL     1       3.603   4.075  17.283  0.00  0.00    +0.000 A 
ATOM      9  C   UNL     1       4.924   4.103  16.835  0.00  0.00    +0.000 A 
ATOM     10  C   UNL     1       5.875   4.573  17.720  0.00  0.00    +0.000 A 
ENDROOT
BRANCH   7  11
ATOM     11  O   UNL     1       1.976   4.460  18.955  0.00  0.00    +0.000 OA
ATOM     12  H   UNL     1       1.927   4.361  19.920  0.00  0.00    +0.000 HD
ENDBRANCH   7  11
TORSDOF 1
ENDMDL
MODEL 2
REMARK VINA RESULT:      -5.4      1.034      1.034
REMARK  Name = 
REMARK  1 active torsions:
REMARK  status: ('A' for Active; 'I' for Inactive)
REMARK    1  A    between atoms: C_7  and  O_8
REMARK                            x       y       z     vdW  Elec       q    Type
REMARK                         _______ _______ _______ _____ _____    ______ ____
ROOT
ATOM      1  O   UNL     1       7.559   6.187  16.293  0.00  0.00    +0.000 OA
ATOM      2  C   UNL     1       7.105   5.772  17.343  0.00  0.00    +0.000 C 
ATOM      3  C   UNL     1       7.650   5.967  18.733  0.00  0.00    +0.000 C 
ATOM      4  O   UNL     1       6.747   5.265  19.628  0.00  0.00    +0.000 OA
ATOM      5  C   UNL     1       5.772   4.733  18.826  0.00  0.00    +0.000 A 
ATOM      6  C   UNL     1       4.707   3.991  19.300  0.00  0.00    +0.000 A 
ATOM      7  C   UNL     1       3.789   3.516  18.362  0.00  0.00    +0.000 A 
ATOM      8  C   UNL     1       3.933   3.774  16.990  0.00  0.00    +0.000 A 
ATOM      9  C   UNL     1       5.016   4.524  16.527  0.00  0.00    +0.000 A 
ATOM     10  C   UNL     1       5.909   4.984  17.475  0.00  0.00    +0.000 A 
ENDROOT
BRANCH   7  11
ATOM     11  O   UNL     1       2.707   2.777  18.748  0.00  0.00    +0.000 OA
ATOM     12  H   UNL     1       2.990   2.126  19.412  0.00  0.00    +0.000 HD
ENDBRANCH   7  11
TORSDOF 1
ENDMDL
MODEL 3
REMARK VINA RESULT:      -5.4      1.600      1.718
REMARK  Name = 
REMARK  1 active torsions:
REMARK  status: ('A' for Active; 'I' for Inactive)
REMARK    1  A    between atoms: C_7  and  O_8
REMARK                            x       y       z     vdW  Elec       q    Type
REMARK                         _______ _______ _______ _____ _____    ______ ____
ROOT
ATOM      1  O   UNL     1       7.405   6.111  15.850  0.00  0.00    +0.000 OA
ATOM      2  C   UNL     1       6.962   5.635  16.879  0.00  0.00    +0.000 C 
ATOM      3  C   UNL     1       7.618   4.642  17.802  0.00  0.00    +0.000 C 
ATOM      4  O   UNL     1       6.671   4.392  18.873  0.00  0.00    +0.000 OA
ATOM      5  C   UNL     1       5.584   5.179  18.596  0.00  0.00    +0.000 A 
ATOM      6  C   UNL     1       4.455   5.239  19.391  0.00  0.00    +0.000 A 
ATOM      7  C   UNL     1       3.428   6.090  18.983  0.00  0.00    +0.000 A 
ATOM      8  C   UNL     1       3.526   6.858  17.812  0.00  0.00    +0.000 A 
ATOM      9  C   UNL     1       4.672   6.786  17.019  0.00  0.00    +0.000 A 
ATOM     10  C   UNL     1       5.675   5.938  17.446  0.00  0.00    +0.000 A 
ENDROOT
BRANCH   7  11
ATOM     11  O   UNL     1       2.280   6.209  19.713  0.00  0.00    +0.000 OA
ATOM     12  H   UNL     1       2.501   6.174  20.658  0.00  0.00    +0.000 HD
ENDBRANCH   7  11
TORSDOF 1
ENDMDL
MODEL 4
REMARK VINA RESULT:      -5.3      1.926      2.460
REMARK  Name = 
REMARK  1 active torsions:
REMARK  status: ('A' for Active; 'I' for Inactive)
REMARK    1  A    between atoms: C_7  and  O_8
REMARK                            x       y       z     vdW  Elec       q    Type
REMARK                         _______ _______ _______ _____ _____    ______ ____
ROOT
ATOM      1  O   UNL     1       4.803   6.865  17.512  0.00  0.00    +0.000 OA
ATOM      2  C   UNL     1       4.918   5.795  18.080  0.00  0.00    +0.000 C 
ATOM      3  C   UNL     1       6.116   5.258  18.818  0.00  0.00    +0.000 C 
ATOM      4  O   UNL     1       5.744   3.941  19.301  0.00  0.00    +0.000 OA
ATOM      5  C   UNL     1       4.450   3.750  18.889  0.00  0.00    +0.000 A 
ATOM      6  C   UNL     1       3.718   2.609  19.159  0.00  0.00    +0.000 A 
ATOM      7  C   UNL     1       2.409   2.558  18.678  0.00  0.00    +0.000 A 
ATOM      8  C   UNL     1       1.850   3.617  17.946  0.00  0.00    +0.000 A 
ATOM      9  C   UNL     1       2.602   4.762  17.680  0.00  0.00    +0.000 A 
ATOM     10  C   UNL     1       3.894   4.788  18.169  0.00  0.00    +0.000 A 
ENDROOT
BRANCH   7  11
ATOM     11  O   UNL     1       1.618   1.468  18.903  0.00  0.00    +0.000 OA
ATOM     12  H   UNL     1       2.179   0.676  18.955  0.00  0.00    +0.000 HD
ENDBRANCH   7  11
TORSDOF 1
ENDMDL
MODEL 5
REMARK VINA RESULT:      -5.3      1.587      3.892
REMARK  Name = 
REMARK  1 active torsions:
REMARK  status: ('A' for Active; 'I' for Inactive)
REMARK    1  A    between atoms: C_7  and  O_8
REMARK                            x       y       z     vdW  Elec       q    Type
REMARK                         _______ _______ _______ _____ _____    ______ ____
ROOT
ATOM      1  O   UNL     1       2.992   3.084  17.825  0.00  0.00    +0.000 OA
ATOM      2  C   UNL     1       4.108   3.548  17.964  0.00  0.00    +0.000 C 
ATOM      3  C   UNL     1       4.879   3.745  19.243  0.00  0.00    +0.000 C 
ATOM      4  O   UNL     1       6.149   4.340  18.867  0.00  0.00    +0.000 OA
ATOM      5  C   UNL     1       6.111   4.458  17.502  0.00  0.00    +0.000 A 
ATOM      6  C   UNL     1       7.146   4.976  16.747  0.00  0.00    +0.000 A 
ATOM      7  C   UNL     1       6.966   5.029  15.364  0.00  0.00    +0.000 A 
ATOM      8  C   UNL     1       5.784   4.579  14.755  0.00  0.00    +0.000 A 
ATOM      9  C   UNL     1       4.747   4.059  15.532  0.00  0.00    +0.000 A 
ATOM     10  C   UNL     1       4.951   4.016  16.897  0.00  0.00    +0.000 A 
ENDROOT
BRANCH   7  11
ATOM     11  O   UNL     1       7.941   5.525  14.546  0.00  0.00    +0.000 OA
ATOM     12  H   UNL     1       8.602   5.987  15.087  0.00  0.00    +0.000 HD
ENDBRANCH   7  11
TORSDOF 1
ENDMDL
MODEL 6
REMARK VINA RESULT:      -5.3      1.923      2.998
REMARK  Name = 
REMARK  1 active torsions:
REMARK  status: ('A' for Active; 'I' for Inactive)
REMARK    1  A    between atoms: C_7  and  O_8
REMARK                            x       y       z     vdW  Elec       q    Type
REMARK                         _______ _______ _______ _____ _____    ______ ____
ROOT
ATOM      1  O   UNL     1       6.206   4.384  19.251  0.00  0.00    +0.000 OA
ATOM      2  C   UNL     1       5.139   4.659  18.735  0.00  0.00    +0.000 C 
ATOM      3  C   UNL     1       4.786   5.877  17.922  0.00  0.00    +0.000 C 
ATOM      4  O   UNL     1       3.391   5.730  17.550  0.00  0.00    +0.000 OA
ATOM      5  C   UNL     1       2.990   4.535  18.087  0.00  0.00    +0.000 A 
ATOM      6  C   UNL     1       1.715   4.019  17.947  0.00  0.00    +0.000 A 
ATOM      7  C   UNL     1       1.453   2.786  18.547  0.00  0.00    +0.000 A 
ATOM      8  C   UNL     1       2.438   2.091  19.267  0.00  0.00    +0.000 A 
ATOM      9  C   UNL     1       3.720   2.626  19.400  0.00  0.00    +0.000 A 
ATOM     10  C   UNL     1       3.954   3.846  18.795  0.00  0.00    +0.000 A 
ENDROOT
BRANCH   7  11
ATOM     11  O   UNL     1       0.220   2.206  18.455  0.00  0.00    +0.000 OA
ATOM     12  H   UNL     1       0.282   1.422  17.885  0.00  0.00    +0.000 HD
ENDBRANCH   7  11
TORSDOF 1
ENDMDL
MODEL 7
REMARK VINA RESULT:      -5.3      1.643      3.678
REMARK  Name = 
REMARK  1 active torsions:
REMARK  status: ('A' for Active; 'I' for Inactive)
REMARK    1  A    between atoms: C_7  and  O_8
REMARK                            x       y       z     vdW  Elec       q    Type
REMARK                         _______ _______ _______ _____ _____    ______ ____
ROOT
ATOM      1  O   UNL     1       2.819   2.744  17.433  0.00  0.00    +0.000 OA
ATOM      2  C   UNL     1       3.806   3.213  17.968  0.00  0.00    +0.000 C 
ATOM      3  C   UNL     1       4.326   2.945  19.356  0.00  0.00    +0.000 C 
ATOM      4  O   UNL     1       5.519   3.757  19.510  0.00  0.00    +0.000 OA
ATOM      5  C   UNL     1       5.673   4.414  18.317  0.00  0.00    +0.000 A 
ATOM      6  C   UNL     1       6.710   5.288  18.050  0.00  0.00    +0.000 A 
ATOM      7  C   UNL     1       6.739   5.881  16.787  0.00  0.00    +0.000 A 
ATOM      8  C   UNL     1       5.758   5.610  15.820  0.00  0.00    +0.000 A 
ATOM      9  C   UNL     1       4.717   4.725  16.106  0.00  0.00    +0.000 A 
ATOM     10  C   UNL     1       4.712   4.150  17.361  0.00  0.00    +0.000 A 
ENDROOT
BRANCH   7  11
ATOM     11  O   UNL     1       7.730   6.755  16.442  0.00  0.00    +0.000 OA
ATOM     12  H   UNL     1       7.787   7.451  17.117  0.00  0.00    +0.000 HD
ENDBRANCH   7  11
TORSDOF 1
ENDMDL
MODEL 8
REMARK VINA RESULT:      -5.3      0.940      2.273
REMARK  Name = 
REMARK  1 active torsions:
REMARK  status: ('A' for Active; 'I' for Inactive)
REMARK    1  A    between atoms: C_7  and  O_8
REMARK                            x       y       z     vdW  Elec       q    Type
REMARK                         _______ _______ _______ _____ _____    ______ ____
ROOT
ATOM      1  O   UNL     1       7.187   5.548  19.925  0.00  0.00    +0.000 OA
ATOM      2  C   UNL     1       6.678   5.103  18.913  0.00  0.00    +0.000 C 
ATOM      3  C   UNL     1       7.362   4.657  17.647  0.00  0.00    +0.000 C 
ATOM      4  O   UNL     1       6.311   4.222  16.746  0.00  0.00    +0.000 OA
ATOM      5  C   UNL     1       5.139   4.390  17.437  0.00  0.00    +0.000 A 
ATOM      6  C   UNL     1       3.894   4.078  16.925  0.00  0.00    +0.000 A 
ATOM      7  C   UNL     1       2.789   4.299  17.749  0.00  0.00    +0.000 A 
ATOM      8  C   UNL     1       2.926   4.819  19.045  0.00  0.00    +0.000 A 
ATOM      9  C   UNL     1       4.191   5.131  19.547  0.00  0.00    +0.000 A 
ATOM     10  C   UNL     1       5.268   4.900  18.713  0.00  0.00    +0.000 A 
ENDROOT
BRANCH   7  11
ATOM     11  O   UNL     1       1.524   4.015  17.320  0.00  0.00    +0.000 OA
ATOM     12  H   UNL     1       0.911   4.673  17.689  0.00  0.00    +0.000 HD
ENDBRANCH   7  11
TORSDOF 1
ENDMDL
MODEL 9
REMARK VINA RESULT:      -5.3      2.514      3.541
REMARK  Name = 
REMARK  1 active torsions:
REMARK  status: ('A' for Active; 'I' for Inactive)
REMARK    1  A    between atoms: C_7  and  O_8
REMARK                            x       y       z     vdW  Elec       q    Type
REMARK                         _______ _______ _______ _____ _____    ______ ____
ROOT
ATOM      1  O   UNL     1       3.596   5.483  17.291  0.00  0.00    +0.000 OA
ATOM      2  C   UNL     1       3.893   4.697  18.171  0.00  0.00    +0.000 C 
ATOM      3  C   UNL     1       5.226   4.043  18.422  0.00  0.00    +0.000 C 
ATOM      4  O   UNL     1       5.051   3.188  19.582  0.00  0.00    +0.000 OA
ATOM      5  C   UNL     1       3.744   3.349  19.965  0.00  0.00    +0.000 A 
ATOM      6  C   UNL     1       3.176   2.707  21.049  0.00  0.00    +0.000 A 
ATOM      7  C   UNL     1       1.834   2.974  21.320  0.00  0.00    +0.000 A 
ATOM      8  C   UNL     1       1.081   3.856  20.529  0.00  0.00    +0.000 A 
ATOM      9  C   UNL     1       1.669   4.496  19.436  0.00  0.00    +0.000 A 
ATOM     10  C   UNL     1       2.999   4.216  19.191  0.00  0.00    +0.000 A 
ENDROOT
BRANCH   7  11
ATOM     11  O   UNL     1       1.198   2.382  22.374  0.00  0.00    +0.000 OA
ATOM     12  H   UNL     1       1.387   1.429  22.363  0.00  0.00    +0.000 HD
ENDBRANCH   7  11
TORSDOF 1
ENDMDL
