MODEL 1
REMARK VINA RESULT:      -6.8      0.000      0.000
REMARK  Name = 
REMARK  5 active torsions:
REMARK  status: ('A' for Active; 'I' for Inactive)
REMARK    1  A    between atoms: C_1  and  N_2
REMARK    2  A    between atoms: C_5  and  N_6
REMARK    3  A    between atoms: C_9  and  N_10
REMARK    4  A    between atoms: N_10  and  C_11
REMARK    5  A    between atoms: C_11  and  C_12
REMARK                            x       y       z     vdW  Elec       q    Type
REMARK                         _______ _______ _______ _____ _____    ______ ____
ROOT
ATOM      1  C   UNL     1       4.173   1.721  17.727  0.00  0.00    +0.000 C 
ATOM      2  N   UNL     1       3.898   3.143  17.895  0.00  0.00    +0.000 N 
ATOM      3  C   UNL     1       4.530   4.032  17.044  0.00  0.00    +0.000 A 
ATOM      4  O   UNL     1       5.179   3.634  16.070  0.00  0.00    +0.000 OA
ATOM      5  C   UNL     1       4.379   5.475  17.328  0.00  0.00    +0.000 A 
ATOM      6  C   UNL     1       3.416   6.000  18.164  0.00  0.00    +0.000 A 
ATOM      7  C   UNL     1       2.631   4.958  18.953  0.00  0.00    +0.000 A 
ATOM      8  C   UNL     1       1.607   5.306  19.871  0.00  0.00    +0.000 A 
ATOM      9  C   UNL     1       0.904   4.335  20.610  0.00  0.00    +0.000 A 
ATOM     10  C   UNL     1       1.206   2.994  20.470  0.00  0.00    +0.000 A 
ATOM     11  C   UNL     1       2.208   2.620  19.586  0.00  0.00    +0.000 A 
ATOM     12  C   UNL     1       2.920   3.578  18.826  0.00  0.00    +0.000 A 
ENDROOT
BRANCH   5  13
ATOM     13  N   UNL     1       5.331   6.315  16.617  0.00  0.00    +0.000 N 
ATOM     14  O   UNL     1       6.504   6.375  17.090  0.00  0.00    +0.000 OA
ATOM     15  O   UNL     1       4.992   6.843  15.564  0.00  0.00    +0.000 OA
ENDBRANCH   5  13
BRANCH   6  16
ATOM     16  N   UNL     1       3.135   7.344  18.440  0.00  0.00    +0.000 N 
ATOM     17  H   UNL     1       3.480   7.719  19.328  0.00  0.00    +0.000 HD
BRANCH  16  18
ATOM     18  C   UNL     1       2.156   8.221  17.759  0.00  0.00    +0.000 C 
BRANCH  18  19
ATOM     19  C   UNL     1       1.605   9.337  18.673  0.00  0.00    +0.000 C 
ATOM     20  C   UNL     1       1.215   8.866  20.062  0.00  0.00    +0.000 C 
ATOM     21  C   UNL     1       0.206   9.908  20.465  0.00  0.00    +0.000 C 
ATOM     22  C   UNL     1      -0.514  10.186  19.162  0.00  0.00    +0.000 C 
ATOM     23  O   UNL     1       0.409   9.911  18.099  0.00  0.00    +0.000 OA
ENDBRANCH  18  19
ENDBRANCH  16  18
ENDBRANCH   6  16
TORSDOF 4
ENDMDL
MODEL 2
REMARK VINA RESULT:      -6.8      2.800      6.262
REMARK  Name = 
REMARK  5 active torsions:
REMARK  status: ('A' for Active; 'I' for Inactive)
REMARK    1  A    between atoms: C_1  and  N_2
REMARK    2  A    between atoms: C_5  and  N_6
REMARK    3  A    between atoms: C_9  and  N_10
REMARK    4  A    between atoms: N_10  and  C_11
REMARK    5  A    between atoms: C_11  and  C_12
REMARK                            x       y       z     vdW  Elec       q    Type
REMARK                         _______ _______ _______ _____ _____    ______ ____
ROOT
ATOM      1  C   UNL     1       1.447   5.514  20.961  0.00  0.00    +0.000 C 
ATOM      2  N   UNL     1       2.406   5.034  19.972  0.00  0.00    +0.000 N 
ATOM      3  C   UNL     1       2.719   3.686  19.972  0.00  0.00    +0.000 A 
ATOM      4  O   UNL     1       2.091   2.883  20.672  0.00  0.00    +0.000 OA
ATOM      5  C   UNL     1       3.813   3.239  19.085  0.00  0.00    +0.000 A 
ATOM      6  C   UNL     1       4.318   3.989  18.043  0.00  0.00    +0.000 A 
ATOM      7  C   UNL     1       3.804   5.424  17.994  0.00  0.00    +0.000 A 
ATOM      8  C   UNL     1       4.217   6.350  17.002  0.00  0.00    +0.000 A 
ATOM      9  C   UNL     1       3.752   7.679  16.981  0.00  0.00    +0.000 A 
ATOM     10  C   UNL     1       2.876   8.130  17.950  0.00  0.00    +0.000 A 
ATOM     11  C   UNL     1       2.458   7.251  18.939  0.00  0.00    +0.000 A 
ATOM     12  C   UNL     1       2.905   5.909  18.974  0.00  0.00    +0.000 A 
ENDROOT
BRANCH   5  13
ATOM     13  N   UNL     1       4.305   1.903  19.387  0.00  0.00    +0.000 N 
ATOM     14  O   UNL     1       3.972   0.978  18.590  0.00  0.00    +0.000 OA
ATOM     15  O   UNL     1       5.077   1.749  20.327  0.00  0.00    +0.000 OA
ENDBRANCH   5  13
BRANCH   6  16
ATOM     16  N   UNL     1       5.290   3.634  17.099  0.00  0.00    +0.000 N 
ATOM     17  H   UNL     1       5.340   2.646  16.832  0.00  0.00    +0.000 HD
BRANCH  16  18
ATOM     18  C   UNL     1       6.449   4.437  16.649  0.00  0.00    +0.000 C 
BRANCH  18  19
ATOM     19  C   UNL     1       6.346   4.872  15.170  0.00  0.00    +0.000 C 
ATOM     20  C   UNL     1       6.044   3.736  14.208  0.00  0.00    +0.000 C 
ATOM     21  C   UNL     1       6.598   4.277  12.917  0.00  0.00    +0.000 C 
ATOM     22  C   UNL     1       7.833   5.022  13.378  0.00  0.00    +0.000 C 
ATOM     23  O   UNL     1       7.597   5.444  14.727  0.00  0.00    +0.000 OA
ENDBRANCH  18  19
ENDBRANCH  16  18
ENDBRANCH   6  16
TORSDOF 4
ENDMDL
MODEL 3
REMARK VINA RESULT:      -6.7      0.692      1.119
REMARK  Name = 
REMARK  5 active torsions:
REMARK  status: ('A' for Active; 'I' for Inactive)
REMARK    1  A    between atoms: C_1  and  N_2
REMARK    2  A    between atoms: C_5  and  N_6
REMARK    3  A    between atoms: C_9  and  N_10
REMARK    4  A    between atoms: N_10  and  C_11
REMARK    5  A    between atoms: C_11  and  C_12
REMARK                            x       y       z     vdW  Elec       q    Type
REMARK                         _______ _______ _______ _____ _____    ______ ____
ROOT
ATOM      1  C   UNL     1       4.106   1.818  17.572  0.00  0.00    +0.000 C 
ATOM      2  N   UNL     1       3.850   3.233  17.813  0.00  0.00    +0.000 N 
ATOM      3  C   UNL     1       4.481   4.156  16.998  0.00  0.00    +0.000 A 
ATOM      4  O   UNL     1       5.112   3.798  15.996  0.00  0.00    +0.000 OA
ATOM      5  C   UNL     1       4.352   5.584  17.355  0.00  0.00    +0.000 A 
ATOM      6  C   UNL     1       3.406   6.079  18.229  0.00  0.00    +0.000 A 
ATOM      7  C   UNL     1       2.620   5.008  18.977  0.00  0.00    +0.000 A 
ATOM      8  C   UNL     1       1.613   5.323  19.925  0.00  0.00    +0.000 A 
ATOM      9  C   UNL     1       0.908   4.325  20.626  0.00  0.00    +0.000 A 
ATOM     10  C   UNL     1       1.192   2.989  20.416  0.00  0.00    +0.000 A 
ATOM     11  C   UNL     1       2.177   2.647  19.500  0.00  0.00    +0.000 A 
ATOM     12  C   UNL     1       2.891   3.634  18.778  0.00  0.00    +0.000 A 
ENDROOT
BRANCH   5  13
ATOM     13  N   UNL     1       5.304   6.447  16.672  0.00  0.00    +0.000 N 
ATOM     14  O   UNL     1       5.045   6.745  15.470  0.00  0.00    +0.000 OA
ATOM     15  O   UNL     1       6.246   6.914  17.303  0.00  0.00    +0.000 OA
ENDBRANCH   5  13
BRANCH   6  16
ATOM     16  N   UNL     1       3.145   7.411  18.574  0.00  0.00    +0.000 N 
ATOM     17  H   UNL     1       3.188   7.651  19.569  0.00  0.00    +0.000 HD
BRANCH  16  18
ATOM     18  C   UNL     1       2.528   8.459  17.730  0.00  0.00    +0.000 C 
BRANCH  18  19
ATOM     19  C   UNL     1       1.346   9.174  18.421  0.00  0.00    +0.000 C 
ATOM     20  C   UNL     1       1.431  10.689  18.388  0.00  0.00    +0.000 C 
ATOM     21  C   UNL     1       0.588  11.066  19.577  0.00  0.00    +0.000 C 
ATOM     22  C   UNL     1       0.919   9.973  20.572  0.00  0.00    +0.000 C 
ATOM     23  O   UNL     1       1.288   8.810  19.819  0.00  0.00    +0.000 OA
ENDBRANCH  18  19
ENDBRANCH  16  18
ENDBRANCH   6  16
TORSDOF 4
ENDMDL
MODEL 4
REMARK VINA RESULT:      -6.7      2.449      5.501
REMARK  Name = 
REMARK  5 active torsions:
REMARK  status: ('A' for Active; 'I' for Inactive)
REMARK    1  A    between atoms: C_1  and  N_2
REMARK    2  A    between atoms: C_5  and  N_6
REMARK    3  A    between atoms: C_9  and  N_10
REMARK    4  A    between atoms: N_10  and  C_11
REMARK    5  A    between atoms: C_11  and  C_12
REMARK                            x       y       z     vdW  Elec       q    Type
REMARK                         _______ _______ _______ _____ _____    ______ ____
ROOT
ATOM      1  C   UNL     1       1.327   5.849  21.128  0.00  0.00    +0.000 C 
ATOM      2  N   UNL     1       2.200   5.520  20.008  0.00  0.00    +0.000 N 
ATOM      3  C   UNL     1       2.559   4.195  19.830  0.00  0.00    +0.000 A 
ATOM      4  O   UNL     1       2.032   3.296  20.495  0.00  0.00    +0.000 OA
ATOM      5  C   UNL     1       3.575   3.894  18.801  0.00  0.00    +0.000 A 
ATOM      6  C   UNL     1       3.948   4.772  17.804  0.00  0.00    +0.000 A 
ATOM      7  C   UNL     1       3.381   6.179  17.961  0.00  0.00    +0.000 A 
ATOM      8  C   UNL     1       3.662   7.222  17.042  0.00  0.00    +0.000 A 
ATOM      9  C   UNL     1       3.150   8.524  17.209  0.00  0.00    +0.000 A 
ATOM     10  C   UNL     1       2.359   8.830  18.300  0.00  0.00    +0.000 A 
ATOM     11  C   UNL     1       2.071   7.834  19.222  0.00  0.00    +0.000 A 
ATOM     12  C   UNL     1       2.567   6.517  19.068  0.00  0.00    +0.000 A 
ENDROOT
BRANCH   5  13
ATOM     13  N   UNL     1       4.141   2.558  18.908  0.00  0.00    +0.000 N 
ATOM     14  O   UNL     1       4.932   2.348  19.874  0.00  0.00    +0.000 OA
ATOM     15  O   UNL     1       3.765   1.686  18.133  0.00  0.00    +0.000 OA
ENDBRANCH   5  13
BRANCH   6  16
ATOM     16  N   UNL     1       4.833   4.563  16.739  0.00  0.00    +0.000 N 
ATOM     17  H   UNL     1       4.439   4.591  15.794  0.00  0.00    +0.000 HD
BRANCH  16  18
ATOM     18  C   UNL     1       6.208   4.017  16.800  0.00  0.00    +0.000 C 
BRANCH  18  19
ATOM     19  C   UNL     1       7.271   5.090  17.122  0.00  0.00    +0.000 C 
ATOM     20  C   UNL     1       7.374   5.440  18.596  0.00  0.00    +0.000 C 
ATOM     21  C   UNL     1       7.953   6.829  18.539  0.00  0.00    +0.000 C 
ATOM     22  C   UNL     1       7.274   7.416  17.319  0.00  0.00    +0.000 C 
ATOM     23  O   UNL     1       6.957   6.327  16.442  0.00  0.00    +0.000 OA
ENDBRANCH  18  19
ENDBRANCH  16  18
ENDBRANCH   6  16
TORSDOF 4
ENDMDL
MODEL 5
REMARK VINA RESULT:      -6.5      0.858      1.215
REMARK  Name = 
REMARK  5 active torsions:
REMARK  status: ('A' for Active; 'I' for Inactive)
REMARK    1  A    between atoms: C_1  and  N_2
REMARK    2  A    between atoms: C_5  and  N_6
REMARK    3  A    between atoms: C_9  and  N_10
REMARK    4  A    between atoms: N_10  and  C_11
REMARK    5  A    between atoms: C_11  and  C_12
REMARK                            x       y       z     vdW  Elec       q    Type
REMARK                         _______ _______ _______ _____ _____    ______ ____
ROOT
ATOM      1  C   UNL     1       3.942   2.088  17.847  0.00  0.00    +0.000 C 
ATOM      2  N   UNL     1       3.806   3.539  17.898  0.00  0.00    +0.000 N 
ATOM      3  C   UNL     1       4.441   4.287  16.921  0.00  0.00    +0.000 A 
ATOM      4  O   UNL     1       4.969   3.743  15.944  0.00  0.00    +0.000 OA
ATOM      5  C   UNL     1       4.440   5.756  17.076  0.00  0.00    +0.000 A 
ATOM      6  C   UNL     1       3.598   6.442  17.927  0.00  0.00    +0.000 A 
ATOM      7  C   UNL     1       2.794   5.552  18.869  0.00  0.00    +0.000 A 
ATOM      8  C   UNL     1       1.884   6.076  19.823  0.00  0.00    +0.000 A 
ATOM      9  C   UNL     1       1.163   5.245  20.703  0.00  0.00    +0.000 A 
ATOM     10  C   UNL     1       1.335   3.874  20.670  0.00  0.00    +0.000 A 
ATOM     11  C   UNL     1       2.224   3.330  19.753  0.00  0.00    +0.000 A 
ATOM     12  C   UNL     1       2.951   4.146  18.853  0.00  0.00    +0.000 A 
ENDROOT
BRANCH   5  13
ATOM     13  N   UNL     1       5.399   6.436  16.219  0.00  0.00    +0.000 N 
ATOM     14  O   UNL     1       4.932   7.051  15.216  0.00  0.00    +0.000 OA
ATOM     15  O   UNL     1       6.579   6.463  16.548  0.00  0.00    +0.000 OA
ENDBRANCH   5  13
BRANCH   6  16
ATOM     16  N   UNL     1       3.459   7.826  18.093  0.00  0.00    +0.000 N 
ATOM     17  H   UNL     1       3.951   8.252  18.884  0.00  0.00    +0.000 HD
BRANCH  16  18
ATOM     18  C   UNL     1       2.462   8.716  17.457  0.00  0.00    +0.000 C 
BRANCH  18  19
ATOM     19  C   UNL     1       1.563   9.446  18.479  0.00  0.00    +0.000 C 
ATOM     20  C   UNL     1       0.096   9.493  18.093  0.00  0.00    +0.000 C 
ATOM     21  C   UNL     1      -0.380  10.702  18.854  0.00  0.00    +0.000 C 
ATOM     22  C   UNL     1       0.808  11.636  18.757  0.00  0.00    +0.000 C 
ATOM     23  O   UNL     1       1.980  10.822  18.621  0.00  0.00    +0.000 OA
ENDBRANCH  18  19
ENDBRANCH  16  18
ENDBRANCH   6  16
TORSDOF 4
ENDMDL
MODEL 6
REMARK VINA RESULT:      -6.5      2.793      6.230
REMARK  Name = 
REMARK  5 active torsions:
REMARK  status: ('A' for Active; 'I' for Inactive)
REMARK    1  A    between atoms: C_1  and  N_2
REMARK    2  A    between atoms: C_5  and  N_6
REMARK    3  A    between atoms: C_9  and  N_10
REMARK    4  A    between atoms: N_10  and  C_11
REMARK    5  A    between atoms: C_11  and  C_12
REMARK                            x       y       z     vdW  Elec       q    Type
REMARK                         _______ _______ _______ _____ _____    ______ ____
ROOT
ATOM      1  C   UNL     1       1.402   5.462  21.007  0.00  0.00    +0.000 C 
ATOM      2  N   UNL     1       2.389   4.992  20.041  0.00  0.00    +0.000 N 
ATOM      3  C   UNL     1       2.727   3.650  20.058  0.00  0.00    +0.000 A 
ATOM      4  O   UNL     1       2.101   2.842  20.754  0.00  0.00    +0.000 OA
ATOM      5  C   UNL     1       3.846   3.216  19.196  0.00  0.00    +0.000 A 
ATOM      6  C   UNL     1       4.356   3.968  18.157  0.00  0.00    +0.000 A 
ATOM      7  C   UNL     1       3.816   5.392  18.087  0.00  0.00    +0.000 A 
ATOM      8  C   UNL     1       4.231   6.317  17.095  0.00  0.00    +0.000 A 
ATOM      9  C   UNL     1       3.741   7.638  17.053  0.00  0.00    +0.000 A 
ATOM     10  C   UNL     1       2.839   8.080  18.001  0.00  0.00    +0.000 A 
ATOM     11  C   UNL     1       2.418   7.202  18.990  0.00  0.00    +0.000 A 
ATOM     12  C   UNL     1       2.890   5.868  19.044  0.00  0.00    +0.000 A 
ENDROOT
BRANCH   5  13
ATOM     13  N   UNL     1       4.356   1.893  19.519  0.00  0.00    +0.000 N 
ATOM     14  O   UNL     1       5.050   1.790  20.573  0.00  0.00    +0.000 OA
ATOM     15  O   UNL     1       4.024   0.939  18.825  0.00  0.00    +0.000 OA
ENDBRANCH   5  13
BRANCH   6  16
ATOM     16  N   UNL     1       5.352   3.623  17.235  0.00  0.00    +0.000 N 
ATOM     17  H   UNL     1       5.380   2.648  16.923  0.00  0.00    +0.000 HD
BRANCH  16  18
ATOM     18  C   UNL     1       6.554   4.405  16.867  0.00  0.00    +0.000 C 
BRANCH  18  19
ATOM     19  C   UNL     1       7.048   4.117  15.432  0.00  0.00    +0.000 C 
ATOM     20  C   UNL     1       7.329   5.362  14.611  0.00  0.00    +0.000 C 
ATOM     21  C   UNL     1       7.173   4.840  13.207  0.00  0.00    +0.000 C 
ATOM     22  C   UNL     1       6.030   3.857  13.349  0.00  0.00    +0.000 C 
ATOM     23  O   UNL     1       6.049   3.374  14.699  0.00  0.00    +0.000 OA
ENDBRANCH  18  19
ENDBRANCH  16  18
ENDBRANCH   6  16
TORSDOF 4
ENDMDL
MODEL 7
REMARK VINA RESULT:      -6.4      2.381      3.770
REMARK  Name = 
REMARK  5 active torsions:
REMARK  status: ('A' for Active; 'I' for Inactive)
REMARK    1  A    between atoms: C_1  and  N_2
REMARK    2  A    between atoms: C_5  and  N_6
REMARK    3  A    between atoms: C_9  and  N_10
REMARK    4  A    between atoms: N_10  and  C_11
REMARK    5  A    between atoms: C_11  and  C_12
REMARK                            x       y       z     vdW  Elec       q    Type
REMARK                         _______ _______ _______ _____ _____    ______ ____
ROOT
ATOM      1  C   UNL     1       4.021   1.734  17.936  0.00  0.00    +0.000 C 
ATOM      2  N   UNL     1       3.734   3.151  18.128  0.00  0.00    +0.000 N 
ATOM      3  C   UNL     1       3.013   3.522  19.249  0.00  0.00    +0.000 A 
ATOM      4  O   UNL     1       2.758   2.707  20.144  0.00  0.00    +0.000 OA
ATOM      5  C   UNL     1       2.582   4.932  19.349  0.00  0.00    +0.000 A 
ATOM      6  C   UNL     1       3.107   5.955  18.587  0.00  0.00    +0.000 A 
ATOM      7  C   UNL     1       4.035   5.494  17.468  0.00  0.00    +0.000 A 
ATOM      8  C   UNL     1       4.662   6.400  16.574  0.00  0.00    +0.000 A 
ATOM      9  C   UNL     1       5.499   5.960  15.530  0.00  0.00    +0.000 A 
ATOM     10  C   UNL     1       5.726   4.611  15.336  0.00  0.00    +0.000 A 
ATOM     11  C   UNL     1       5.122   3.698  16.189  0.00  0.00    +0.000 A 
ATOM     12  C   UNL     1       4.285   4.119  17.250  0.00  0.00    +0.000 A 
ENDROOT
BRANCH   5  13
ATOM     13  N   UNL     1       1.558   5.163  20.357  0.00  0.00    +0.000 N 
ATOM     14  O   UNL     1       0.576   4.363  20.367  0.00  0.00    +0.000 OA
ATOM     15  O   UNL     1       1.730   6.043  21.192  0.00  0.00    +0.000 OA
ENDBRANCH   5  13
BRANCH   6  16
ATOM     16  N   UNL     1       2.832   7.327  18.655  0.00  0.00    +0.000 N 
ATOM     17  H   UNL     1       3.213   7.839  19.456  0.00  0.00    +0.000 HD
BRANCH  16  18
ATOM     18  C   UNL     1       1.823   8.086  17.883  0.00  0.00    +0.000 C 
BRANCH  18  19
ATOM     19  C   UNL     1       1.367   9.380  18.592  0.00  0.00    +0.000 C 
ATOM     20  C   UNL     1       1.048   9.202  20.065  0.00  0.00    +0.000 C 
ATOM     21  C   UNL     1       0.101  10.347  20.311  0.00  0.00    +0.000 C 
ATOM     22  C   UNL     1      -0.687  10.402  19.019  0.00  0.00    +0.000 C 
ATOM     23  O   UNL     1       0.158   9.886  17.982  0.00  0.00    +0.000 OA
ENDBRANCH  18  19
ENDBRANCH  16  18
ENDBRANCH   6  16
TORSDOF 4
ENDMDL
MODEL 8
REMARK VINA RESULT:      -6.3      2.618      4.016
REMARK  Name = 
REMARK  5 active torsions:
REMARK  status: ('A' for Active; 'I' for Inactive)
REMARK    1  A    between atoms: C_1  and  N_2
REMARK    2  A    between atoms: C_5  and  N_6
REMARK    3  A    between atoms: C_9  and  N_10
REMARK    4  A    between atoms: N_10  and  C_11
REMARK    5  A    between atoms: C_11  and  C_12
REMARK                            x       y       z     vdW  Elec       q    Type
REMARK                         _______ _______ _______ _____ _____    ______ ____
ROOT
ATOM      1  C   UNL     1       4.089   1.866  17.071  0.00  0.00    +0.000 C 
ATOM      2  N   UNL     1       3.766   3.007  17.920  0.00  0.00    +0.000 N 
ATOM      3  C   UNL     1       3.207   2.757  19.161  0.00  0.00    +0.000 A 
ATOM      4  O   UNL     1       3.133   1.607  19.608  0.00  0.00    +0.000 OA
ATOM      5  C   UNL     1       2.728   3.917  19.941  0.00  0.00    +0.000 A 
ATOM      6  C   UNL     1       3.080   5.224  19.676  0.00  0.00    +0.000 A 
ATOM      7  C   UNL     1       3.847   5.417  18.372  0.00  0.00    +0.000 A 
ATOM      8  C   UNL     1       4.284   6.690  17.925  0.00  0.00    +0.000 A 
ATOM      9  C   UNL     1       4.972   6.859  16.707  0.00  0.00    +0.000 A 
ATOM     10  C   UNL     1       5.233   5.772  15.894  0.00  0.00    +0.000 A 
ATOM     11  C   UNL     1       4.812   4.514  16.299  0.00  0.00    +0.000 A 
ATOM     12  C   UNL     1       4.128   4.320  17.524  0.00  0.00    +0.000 A 
ENDROOT
BRANCH   5  13
ATOM     13  N   UNL     1       1.861   3.558  21.053  0.00  0.00    +0.000 N 
ATOM     14  O   UNL     1       0.683   3.193  20.764  0.00  0.00    +0.000 OA
ATOM     15  O   UNL     1       2.323   3.534  22.188  0.00  0.00    +0.000 OA
ENDBRANCH   5  13
BRANCH   6  16
ATOM     16  N   UNL     1       2.752   6.382  20.393  0.00  0.00    +0.000 N 
ATOM     17  H   UNL     1       3.502   6.824  20.932  0.00  0.00    +0.000 HD
BRANCH  16  18
ATOM     18  C   UNL     1       1.401   6.893  20.716  0.00  0.00    +0.000 C 
BRANCH  18  19
ATOM     19  C   UNL     1       1.329   8.435  20.747  0.00  0.00    +0.000 C 
ATOM     20  C   UNL     1       0.062   8.985  21.378  0.00  0.00    +0.000 C 
ATOM     21  C   UNL     1      -0.027  10.347  20.743  0.00  0.00    +0.000 C 
ATOM     22  C   UNL     1       0.470  10.085  19.336  0.00  0.00    +0.000 C 
ATOM     23  O   UNL     1       1.365   8.966  19.403  0.00  0.00    +0.000 OA
ENDBRANCH  18  19
ENDBRANCH  16  18
ENDBRANCH   6  16
TORSDOF 4
ENDMDL
MODEL 9
REMARK VINA RESULT:      -6.2      2.457      3.863
REMARK  Name = 
REMARK  5 active torsions:
REMARK  status: ('A' for Active; 'I' for Inactive)
REMARK    1  A    between atoms: C_1  and  N_2
REMARK    2  A    between atoms: C_5  and  N_6
REMARK    3  A    between atoms: C_9  and  N_10
REMARK    4  A    between atoms: N_10  and  C_11
REMARK    5  A    between atoms: C_11  and  C_12
REMARK                            x       y       z     vdW  Elec       q    Type
REMARK                         _______ _______ _______ _____ _____    ______ ____
ROOT
ATOM      1  C   UNL     1       3.843   2.011  17.959  0.00  0.00    +0.000 C 
ATOM      2  N   UNL     1       3.612   3.440  18.134  0.00  0.00    +0.000 N 
ATOM      3  C   UNL     1       2.925   3.855  19.261  0.00  0.00    +0.000 A 
ATOM      4  O   UNL     1       2.657   3.065  20.173  0.00  0.00    +0.000 OA
ATOM      5  C   UNL     1       2.548   5.282  19.346  0.00  0.00    +0.000 A 
ATOM      6  C   UNL     1       3.097   6.273  18.558  0.00  0.00    +0.000 A 
ATOM      7  C   UNL     1       3.986   5.761  17.430  0.00  0.00    +0.000 A 
ATOM      8  C   UNL     1       4.629   6.629  16.511  0.00  0.00    +0.000 A 
ATOM      9  C   UNL     1       5.431   6.142  15.460  0.00  0.00    +0.000 A 
ATOM     10  C   UNL     1       5.604   4.783  15.283  0.00  0.00    +0.000 A 
ATOM     11  C   UNL     1       4.983   3.906  16.161  0.00  0.00    +0.000 A 
ATOM     12  C   UNL     1       4.182   4.374  17.230  0.00  0.00    +0.000 A 
ENDROOT
BRANCH   5  13
ATOM     13  N   UNL     1       1.552   5.565  20.368  0.00  0.00    +0.000 N 
ATOM     14  O   UNL     1       1.631   6.689  20.946  0.00  0.00    +0.000 OA
ATOM     15  O   UNL     1       0.645   4.763  20.556  0.00  0.00    +0.000 OA
ENDBRANCH   5  13
BRANCH   6  16
ATOM     16  N   UNL     1       2.874   7.655  18.609  0.00  0.00    +0.000 N 
ATOM     17  H   UNL     1       3.263   8.160  19.410  0.00  0.00    +0.000 HD
BRANCH  16  18
ATOM     18  C   UNL     1       1.904   8.443  17.816  0.00  0.00    +0.000 C 
BRANCH  18  19
ATOM     19  C   UNL     1       1.106   9.454  18.668  0.00  0.00    +0.000 C 
ATOM     20  C   UNL     1      -0.240   9.837  18.080  0.00  0.00    +0.000 C 
ATOM     21  C   UNL     1      -0.476  11.184  18.711  0.00  0.00    +0.000 C 
ATOM     22  C   UNL     1       0.916  11.779  18.738  0.00  0.00    +0.000 C 
ATOM     23  O   UNL     1       1.845  10.689  18.804  0.00  0.00    +0.000 OA
ENDBRANCH  18  19
ENDBRANCH  16  18
ENDBRANCH   6  16
TORSDOF 4
ENDMDL
