MODEL 1
REMARK VINA RESULT:      -7.5      0.000      0.000
REMARK  Name = 
REMARK  6 active torsions:
REMARK  status: ('A' for Active; 'I' for Inactive)
REMARK    1  A    between atoms: C_1  and  C_2
REMARK    2  A    between atoms: N_4  and  C_5
REMARK    3  A    between atoms: C_7  and  O_8
REMARK    4  A    between atoms: C_11  and  C_12
REMARK    5  A    between atoms: C_13  and  C_14
REMARK    6  A    between atoms: C_17  and  O_18
REMARK                            x       y       z     vdW  Elec       q    Type
REMARK                         _______ _______ _______ _____ _____    ______ ____
ROOT
ATOM      1  C   UNL     1       3.938   4.440  17.480  0.00  0.00    +0.000 A 
ATOM      2  C   UNL     1       4.667   3.674  16.556  0.00  0.00    +0.000 A 
ATOM      3  C   UNL     1       5.535   4.283  15.656  0.00  0.00    +0.000 A 
ATOM      4  C   UNL     1       5.688   5.658  15.636  0.00  0.00    +0.000 A 
ATOM      5  C   UNL     1       4.950   6.440  16.526  0.00  0.00    +0.000 A 
ATOM      6  C   UNL     1       4.062   5.848  17.446  0.00  0.00    +0.000 A 
ENDROOT
BRANCH   1  10
ATOM      7  C   UNL     1       1.045   3.063  19.493  0.00  0.00    +0.000 C 
ATOM      8  C   UNL     1       1.694   3.669  18.279  0.00  0.00    +0.000 C 
ATOM      9  O   UNL     1       1.014   3.967  17.302  0.00  0.00    +0.000 OA
ATOM     10  N   UNL     1       3.066   3.821  18.415  0.00  0.00    +0.000 N 
ATOM     11  H   UNL     1       3.510   3.354  19.197  0.00  0.00    +0.000 HD
ENDBRANCH   1  10
BRANCH   3  12
ATOM     12  O   UNL     1       6.255   3.537  14.768  0.00  0.00    +0.000 OA
ATOM     13  H   UNL     1       6.485   4.096  14.008  0.00  0.00    +0.000 HD
ENDBRANCH   3  12
BRANCH   6  14
ATOM     14  C   UNL     1       3.304   6.765  18.317  0.00  0.00    +0.000 C 
ATOM     15  C   UNL     1       2.546   7.761  17.825  0.00  0.00    +0.000 C 
BRANCH  15  16
ATOM     16  C   UNL     1       1.692   8.659  18.626  0.00  0.00    +0.000 A 
ATOM     17  C   UNL     1       0.931   9.696  18.065  0.00  0.00    +0.000 A 
ATOM     18  C   UNL     1       0.103  10.497  18.862  0.00  0.00    +0.000 A 
ATOM     19  C   UNL     1       0.026  10.258  20.230  0.00  0.00    +0.000 A 
ATOM     20  C   UNL     1       0.763   9.235  20.808  0.00  0.00    +0.000 A 
ATOM     21  C   UNL     1       1.590   8.438  20.009  0.00  0.00    +0.000 A 
BRANCH  19  22
ATOM     22  O   UNL     1      -0.769  11.010  21.043  0.00  0.00    +0.000 OA
ATOM     23  H   UNL     1      -1.179  11.714  20.516  0.00  0.00    +0.000 HD
ENDBRANCH  19  22
ENDBRANCH  15  16
ENDBRANCH   6  14
TORSDOF 5
ENDMDL
MODEL 2
REMARK VINA RESULT:      -7.5      4.488      5.619
REMARK  Name = 
REMARK  6 active torsions:
REMARK  status: ('A' for Active; 'I' for Inactive)
REMARK    1  A    between atoms: C_1  and  C_2
REMARK    2  A    between atoms: N_4  and  C_5
REMARK    3  A    between atoms: C_7  and  O_8
REMARK    4  A    between atoms: C_11  and  C_12
REMARK    5  A    between atoms: C_13  and  C_14
REMARK    6  A    between atoms: C_17  and  O_18
REMARK                            x       y       z     vdW  Elec       q    Type
REMARK                         _______ _______ _______ _____ _____    ______ ____
ROOT
ATOM      1  C   UNL     1       6.919   4.937  15.517  0.00  0.00    +0.000 A 
ATOM      2  C   UNL     1       7.495   5.027  14.240  0.00  0.00    +0.000 A 
ATOM      3  C   UNL     1       6.882   4.432  13.141  0.00  0.00    +0.000 A 
ATOM      4  C   UNL     1       5.703   3.724  13.282  0.00  0.00    +0.000 A 
ATOM      5  C   UNL     1       5.130   3.596  14.548  0.00  0.00    +0.000 A 
ATOM      6  C   UNL     1       5.731   4.186  15.678  0.00  0.00    +0.000 A 
ENDROOT
BRANCH   1  10
ATOM      7  C   UNL     1       8.061   7.195  18.331  0.00  0.00    +0.000 C 
ATOM      8  C   UNL     1       7.144   6.757  17.221  0.00  0.00    +0.000 C 
ATOM      9  O   UNL     1       6.169   7.440  16.923  0.00  0.00    +0.000 OA
ATOM     10  N   UNL     1       7.529   5.559  16.639  0.00  0.00    +0.000 N 
ATOM     11  H   UNL     1       8.239   5.017  17.116  0.00  0.00    +0.000 HD
ENDBRANCH   1  10
BRANCH   3  12
ATOM     12  O   UNL     1       7.435   4.533  11.896  0.00  0.00    +0.000 OA
ATOM     13  H   UNL     1       7.208   5.402  11.527  0.00  0.00    +0.000 HD
ENDBRANCH   3  12
BRANCH   6  14
ATOM     14  C   UNL     1       5.065   3.961  16.975  0.00  0.00    +0.000 C 
ATOM     15  C   UNL     1       3.749   3.704  17.071  0.00  0.00    +0.000 C 
BRANCH  15  16
ATOM     16  C   UNL     1       3.032   3.382  18.321  0.00  0.00    +0.000 A 
ATOM     17  C   UNL     1       3.681   2.954  19.488  0.00  0.00    +0.000 A 
ATOM     18  C   UNL     1       2.960   2.698  20.663  0.00  0.00    +0.000 A 
ATOM     19  C   UNL     1       1.581   2.878  20.676  0.00  0.00    +0.000 A 
ATOM     20  C   UNL     1       0.917   3.307  19.535  0.00  0.00    +0.000 A 
ATOM     21  C   UNL     1       1.639   3.560  18.365  0.00  0.00    +0.000 A 
BRANCH  19  22
ATOM     22  O   UNL     1       0.840   2.645  21.796  0.00  0.00    +0.000 OA
ATOM     23  H   UNL     1      -0.100   2.730  21.571  0.00  0.00    +0.000 HD
ENDBRANCH  19  22
ENDBRANCH  15  16
ENDBRANCH   6  14
TORSDOF 5
ENDMDL
MODEL 3
REMARK VINA RESULT:      -7.4      4.540      5.590
REMARK  Name = 
REMARK  6 active torsions:
REMARK  status: ('A' for Active; 'I' for Inactive)
REMARK    1  A    between atoms: C_1  and  C_2
REMARK    2  A    between atoms: N_4  and  C_5
REMARK    3  A    between atoms: C_7  and  O_8
REMARK    4  A    between atoms: C_11  and  C_12
REMARK    5  A    between atoms: C_13  and  C_14
REMARK    6  A    between atoms: C_17  and  O_18
REMARK                            x       y       z     vdW  Elec       q    Type
REMARK                         _______ _______ _______ _____ _____    ______ ____
ROOT
ATOM      1  C   UNL     1       6.754   5.013  15.755  0.00  0.00    +0.000 A 
ATOM      2  C   UNL     1       7.428   4.966  14.524  0.00  0.00    +0.000 A 
ATOM      3  C   UNL     1       6.799   4.464  13.389  0.00  0.00    +0.000 A 
ATOM      4  C   UNL     1       5.504   3.984  13.448  0.00  0.00    +0.000 A 
ATOM      5  C   UNL     1       4.827   3.993  14.669  0.00  0.00    +0.000 A 
ATOM      6  C   UNL     1       5.442   4.493  15.834  0.00  0.00    +0.000 A 
ENDROOT
BRANCH   1  10
ATOM      7  C   UNL     1       8.175   7.119  18.560  0.00  0.00    +0.000 C 
ATOM      8  C   UNL     1       7.308   6.854  17.358  0.00  0.00    +0.000 C 
ATOM      9  O   UNL     1       6.625   7.755  16.882  0.00  0.00    +0.000 OA
ATOM     10  N   UNL     1       7.385   5.543  16.912  0.00  0.00    +0.000 N 
ATOM     11  H   UNL     1       7.839   4.871  17.519  0.00  0.00    +0.000 HD
ENDBRANCH   1  10
BRANCH   3  12
ATOM     12  O   UNL     1       7.449   4.433  12.188  0.00  0.00    +0.000 OA
ATOM     13  H   UNL     1       6.858   4.040  11.526  0.00  0.00    +0.000 HD
ENDBRANCH   3  12
BRANCH   6  14
ATOM     14  C   UNL     1       4.654   4.424  17.079  0.00  0.00    +0.000 C 
ATOM     15  C   UNL     1       3.824   3.401  17.348  0.00  0.00    +0.000 C 
BRANCH  15  16
ATOM     16  C   UNL     1       3.075   3.219  18.607  0.00  0.00    +0.000 A 
ATOM     17  C   UNL     1       1.681   3.349  18.694  0.00  0.00    +0.000 A 
ATOM     18  C   UNL     1       1.009   3.126  19.904  0.00  0.00    +0.000 A 
ATOM     19  C   UNL     1       1.732   2.764  21.035  0.00  0.00    +0.000 A 
ATOM     20  C   UNL     1       3.111   2.622  20.973  0.00  0.00    +0.000 A 
ATOM     21  C   UNL     1       3.778   2.847  19.764  0.00  0.00    +0.000 A 
BRANCH  19  22
ATOM     22  O   UNL     1       1.121   2.533  22.231  0.00  0.00    +0.000 OA
ATOM     23  H   UNL     1       0.981   1.578  22.332  0.00  0.00    +0.000 HD
ENDBRANCH  19  22
ENDBRANCH  15  16
ENDBRANCH   6  14
TORSDOF 5
ENDMDL
MODEL 4
REMARK VINA RESULT:      -7.4      0.154      1.087
REMARK  Name = 
REMARK  6 active torsions:
REMARK  status: ('A' for Active; 'I' for Inactive)
REMARK    1  A    between atoms: C_1  and  C_2
REMARK    2  A    between atoms: N_4  and  C_5
REMARK    3  A    between atoms: C_7  and  O_8
REMARK    4  A    between atoms: C_11  and  C_12
REMARK    5  A    between atoms: C_13  and  C_14
REMARK    6  A    between atoms: C_17  and  O_18
REMARK                            x       y       z     vdW  Elec       q    Type
REMARK                         _______ _______ _______ _____ _____    ______ ____
ROOT
ATOM      1  C   UNL     1       3.961   4.480  17.490  0.00  0.00    +0.000 A 
ATOM      2  C   UNL     1       4.642   3.680  16.558  0.00  0.00    +0.000 A 
ATOM      3  C   UNL     1       5.502   4.252  15.627  0.00  0.00    +0.000 A 
ATOM      4  C   UNL     1       5.696   5.620  15.583  0.00  0.00    +0.000 A 
ATOM      5  C   UNL     1       5.004   6.436  16.481  0.00  0.00    +0.000 A 
ATOM      6  C   UNL     1       4.125   5.883  17.432  0.00  0.00    +0.000 A 
ENDROOT
BRANCH   1  10
ATOM      7  C   UNL     1       1.085   3.177  19.576  0.00  0.00    +0.000 C 
ATOM      8  C   UNL     1       1.726   3.729  18.331  0.00  0.00    +0.000 C 
ATOM      9  O   UNL     1       1.041   3.972  17.343  0.00  0.00    +0.000 OA
ATOM     10  N   UNL     1       3.097   3.900  18.456  0.00  0.00    +0.000 N 
ATOM     11  H   UNL     1       3.546   3.477  19.259  0.00  0.00    +0.000 HD
ENDBRANCH   1  10
BRANCH   3  12
ATOM     12  O   UNL     1       6.176   3.472  14.731  0.00  0.00    +0.000 OA
ATOM     13  H   UNL     1       6.096   3.872  13.849  0.00  0.00    +0.000 HD
ENDBRANCH   3  12
BRANCH   6  14
ATOM     14  C   UNL     1       3.416   6.834  18.310  0.00  0.00    +0.000 C 
ATOM     15  C   UNL     1       2.484   7.683  17.844  0.00  0.00    +0.000 C 
BRANCH  15  16
ATOM     16  C   UNL     1       1.673   8.597  18.672  0.00  0.00    +0.000 A 
ATOM     17  C   UNL     1       1.524   8.447  20.058  0.00  0.00    +0.000 A 
ATOM     18  C   UNL     1       0.775   9.365  20.807  0.00  0.00    +0.000 A 
ATOM     19  C   UNL     1       0.176  10.446  20.170  0.00  0.00    +0.000 A 
ATOM     20  C   UNL     1       0.313  10.620  18.800  0.00  0.00    +0.000 A 
ATOM     21  C   UNL     1       1.060   9.701  18.056  0.00  0.00    +0.000 A 
BRANCH  19  22
ATOM     22  O   UNL     1      -0.558  11.366  20.859  0.00  0.00    +0.000 OA
ATOM     23  H   UNL     1      -1.499  11.147  20.768  0.00  0.00    +0.000 HD
ENDBRANCH  19  22
ENDBRANCH  15  16
ENDBRANCH   6  14
TORSDOF 5
ENDMDL
MODEL 5
REMARK VINA RESULT:      -7.3      4.308      5.383
REMARK  Name = 
REMARK  6 active torsions:
REMARK  status: ('A' for Active; 'I' for Inactive)
REMARK    1  A    between atoms: C_1  and  C_2
REMARK    2  A    between atoms: N_4  and  C_5
REMARK    3  A    between atoms: C_7  and  O_8
REMARK    4  A    between atoms: C_11  and  C_12
REMARK    5  A    between atoms: C_13  and  C_14
REMARK    6  A    between atoms: C_17  and  O_18
REMARK                            x       y       z     vdW  Elec       q    Type
REMARK                         _______ _______ _______ _____ _____    ______ ____
ROOT
ATOM      1  C   UNL     1       6.649   5.053  15.613  0.00  0.00    +0.000 A 
ATOM      2  C   UNL     1       7.361   5.348  14.440  0.00  0.00    +0.000 A 
ATOM      3  C   UNL     1       7.027   4.740  13.234  0.00  0.00    +0.000 A 
ATOM      4  C   UNL     1       5.997   3.819  13.163  0.00  0.00    +0.000 A 
ATOM      5  C   UNL     1       5.297   3.489  14.325  0.00  0.00    +0.000 A 
ATOM      6  C   UNL     1       5.617   4.087  15.559  0.00  0.00    +0.000 A 
ENDROOT
BRANCH   1  10
ATOM      7  C   UNL     1       7.819   6.032  19.076  0.00  0.00    +0.000 C 
ATOM      8  C   UNL     1       7.749   5.149  17.860  0.00  0.00    +0.000 C 
ATOM      9  O   UNL     1       8.350   4.079  17.841  0.00  0.00    +0.000 OA
ATOM     10  N   UNL     1       6.974   5.685  16.843  0.00  0.00    +0.000 N 
ATOM     11  H   UNL     1       6.701   6.656  16.930  0.00  0.00    +0.000 HD
ENDBRANCH   1  10
BRANCH   3  12
ATOM     12  O   UNL     1       7.710   5.039  12.090  0.00  0.00    +0.000 OA
ATOM     13  H   UNL     1       7.861   5.998  12.061  0.00  0.00    +0.000 HD
ENDBRANCH   3  12
BRANCH   6  14
ATOM     14  C   UNL     1       4.841   3.642  16.732  0.00  0.00    +0.000 C 
ATOM     15  C   UNL     1       3.825   4.364  17.237  0.00  0.00    +0.000 C 
BRANCH  15  16
ATOM     16  C   UNL     1       2.949   3.943  18.347  0.00  0.00    +0.000 A 
ATOM     17  C   UNL     1       1.725   3.287  18.151  0.00  0.00    +0.000 A 
ATOM     18  C   UNL     1       0.946   2.871  19.240  0.00  0.00    +0.000 A 
ATOM     19  C   UNL     1       1.395   3.104  20.535  0.00  0.00    +0.000 A 
ATOM     20  C   UNL     1       2.606   3.746  20.756  0.00  0.00    +0.000 A 
ATOM     21  C   UNL     1       3.379   4.161  19.667  0.00  0.00    +0.000 A 
BRANCH  19  22
ATOM     22  O   UNL     1       0.673   2.714  21.624  0.00  0.00    +0.000 OA
ATOM     23  H   UNL     1       0.020   2.053  21.345  0.00  0.00    +0.000 HD
ENDBRANCH  19  22
ENDBRANCH  15  16
ENDBRANCH   6  14
TORSDOF 5
ENDMDL
MODEL 6
REMARK VINA RESULT:      -7.3      7.162      9.430
REMARK  Name = 
REMARK  6 active torsions:
REMARK  status: ('A' for Active; 'I' for Inactive)
REMARK    1  A    between atoms: C_1  and  C_2
REMARK    2  A    between atoms: N_4  and  C_5
REMARK    3  A    between atoms: C_7  and  O_8
REMARK    4  A    between atoms: C_11  and  C_12
REMARK    5  A    between atoms: C_13  and  C_14
REMARK    6  A    between atoms: C_17  and  O_18
REMARK                            x       y       z     vdW  Elec       q    Type
REMARK                         _______ _______ _______ _____ _____    ______ ____
ROOT
ATOM      1  C   UNL     1       9.836  11.838  20.191  0.00  0.00    +0.000 A 
ATOM      2  C   UNL     1      10.490  13.072  20.051  0.00  0.00    +0.000 A 
ATOM      3  C   UNL     1      10.987  13.476  18.816  0.00  0.00    +0.000 A 
ATOM      4  C   UNL     1      10.865  12.667  17.701  0.00  0.00    +0.000 A 
ATOM      5  C   UNL     1      10.246  11.422  17.826  0.00  0.00    +0.000 A 
ATOM      6  C   UNL     1       9.736  10.987  19.065  0.00  0.00    +0.000 A 
ENDROOT
BRANCH   1  10
ATOM      7  C   UNL     1       8.109  11.470  23.538  0.00  0.00    +0.000 C 
ATOM      8  C   UNL     1       8.385  12.124  22.211  0.00  0.00    +0.000 C 
ATOM      9  O   UNL     1       7.807  13.162  21.904  0.00  0.00    +0.000 OA
ATOM     10  N   UNL     1       9.309  11.429  21.445  0.00  0.00    +0.000 N 
ATOM     11  H   UNL     1       9.553  10.493  21.747  0.00  0.00    +0.000 HD
ENDBRANCH   1  10
BRANCH   3  12
ATOM     12  O   UNL     1      11.609  14.684  18.677  0.00  0.00    +0.000 OA
ATOM     13  H   UNL     1      12.084  14.884  19.500  0.00  0.00    +0.000 HD
ENDBRANCH   3  12
BRANCH   6  14
ATOM     14  C   UNL     1       9.133   9.642  19.097  0.00  0.00    +0.000 C 
ATOM     15  C   UNL     1       8.386   9.165  18.087  0.00  0.00    +0.000 C 
BRANCH  15  16
ATOM     16  C   UNL     1       7.827   7.801  18.008  0.00  0.00    +0.000 A 
ATOM     17  C   UNL     1       8.205   6.767  18.876  0.00  0.00    +0.000 A 
ATOM     18  C   UNL     1       7.615   5.498  18.788  0.00  0.00    +0.000 A 
ATOM     19  C   UNL     1       6.635   5.261  17.831  0.00  0.00    +0.000 A 
ATOM     20  C   UNL     1       6.238   6.271  16.964  0.00  0.00    +0.000 A 
ATOM     21  C   UNL     1       6.830   7.535  17.054  0.00  0.00    +0.000 A 
BRANCH  19  22
ATOM     22  O   UNL     1       6.030   4.045  17.711  0.00  0.00    +0.000 OA
ATOM     23  H   UNL     1       6.405   3.585  16.943  0.00  0.00    +0.000 HD
ENDBRANCH  19  22
ENDBRANCH  15  16
ENDBRANCH   6  14
TORSDOF 5
ENDMDL
MODEL 7
REMARK VINA RESULT:      -7.3      4.533      5.669
REMARK  Name = 
REMARK  6 active torsions:
REMARK  status: ('A' for Active; 'I' for Inactive)
REMARK    1  A    between atoms: C_1  and  C_2
REMARK    2  A    between atoms: N_4  and  C_5
REMARK    3  A    between atoms: C_7  and  O_8
REMARK    4  A    between atoms: C_11  and  C_12
REMARK    5  A    between atoms: C_13  and  C_14
REMARK    6  A    between atoms: C_17  and  O_18
REMARK                            x       y       z     vdW  Elec       q    Type
REMARK                         _______ _______ _______ _____ _____    ______ ____
ROOT
ATOM      1  C   UNL     1       6.410   5.091  15.744  0.00  0.00    +0.000 A 
ATOM      2  C   UNL     1       7.242   5.125  14.614  0.00  0.00    +0.000 A 
ATOM      3  C   UNL     1       6.834   4.551  13.414  0.00  0.00    +0.000 A 
ATOM      4  C   UNL     1       5.609   3.918  13.309  0.00  0.00    +0.000 A 
ATOM      5  C   UNL     1       4.780   3.845  14.430  0.00  0.00    +0.000 A 
ATOM      6  C   UNL     1       5.170   4.416  15.658  0.00  0.00    +0.000 A 
ENDROOT
BRANCH   1  10
ATOM      7  C   UNL     1       7.822   5.994  19.137  0.00  0.00    +0.000 C 
ATOM      8  C   UNL     1       7.682   5.149  17.900  0.00  0.00    +0.000 C 
ATOM      9  O   UNL     1       8.310   4.100  17.797  0.00  0.00    +0.000 OA
ATOM     10  N   UNL     1       6.813   5.693  16.966  0.00  0.00    +0.000 N 
ATOM     11  H   UNL     1       6.520   6.652  17.107  0.00  0.00    +0.000 HD
ENDBRANCH   1  10
BRANCH   3  12
ATOM     12  O   UNL     1       7.637   4.598  12.311  0.00  0.00    +0.000 OA
ATOM     13  H   UNL     1       7.441   3.828  11.752  0.00  0.00    +0.000 HD
ENDBRANCH   3  12
BRANCH   6  14
ATOM     14  C   UNL     1       4.238   4.253  16.789  0.00  0.00    +0.000 C 
ATOM     15  C   UNL     1       4.265   3.176  17.592  0.00  0.00    +0.000 C 
BRANCH  15  16
ATOM     16  C   UNL     1       3.427   2.984  18.793  0.00  0.00    +0.000 A 
ATOM     17  C   UNL     1       3.947   2.592  20.035  0.00  0.00    +0.000 A 
ATOM     18  C   UNL     1       3.116   2.463  21.157  0.00  0.00    +0.000 A 
ATOM     19  C   UNL     1       1.757   2.734  21.040  0.00  0.00    +0.000 A 
ATOM     20  C   UNL     1       1.220   3.130  19.824  0.00  0.00    +0.000 A 
ATOM     21  C   UNL     1       2.052   3.257  18.706  0.00  0.00    +0.000 A 
BRANCH  19  22
ATOM     22  O   UNL     1       0.912   2.625  22.105  0.00  0.00    +0.000 OA
ATOM     23  H   UNL     1       0.205   3.282  22.010  0.00  0.00    +0.000 HD
ENDBRANCH  19  22
ENDBRANCH  15  16
ENDBRANCH   6  14
TORSDOF 5
ENDMDL
MODEL 8
REMARK VINA RESULT:      -7.2      1.454      1.463
REMARK  Name = 
REMARK  6 active torsions:
REMARK  status: ('A' for Active; 'I' for Inactive)
REMARK    1  A    between atoms: C_1  and  C_2
REMARK    2  A    between atoms: N_4  and  C_5
REMARK    3  A    between atoms: C_7  and  O_8
REMARK    4  A    between atoms: C_11  and  C_12
REMARK    5  A    between atoms: C_13  and  C_14
REMARK    6  A    between atoms: C_17  and  O_18
REMARK                            x       y       z     vdW  Elec       q    Type
REMARK                         _______ _______ _______ _____ _____    ______ ____
ROOT
ATOM      1  C   UNL     1       4.365   4.378  17.113  0.00  0.00    +0.000 A 
ATOM      2  C   UNL     1       4.968   3.598  16.114  0.00  0.00    +0.000 A 
ATOM      3  C   UNL     1       5.722   4.192  15.107  0.00  0.00    +0.000 A 
ATOM      4  C   UNL     1       5.882   5.565  15.055  0.00  0.00    +0.000 A 
ATOM      5  C   UNL     1       5.265   6.361  16.022  0.00  0.00    +0.000 A 
ATOM      6  C   UNL     1       4.493   5.785  17.050  0.00  0.00    +0.000 A 
ENDROOT
BRANCH   1  10
ATOM      7  C   UNL     1       3.066   2.568  20.172  0.00  0.00    +0.000 C 
ATOM      8  C   UNL     1       4.121   3.219  19.319  0.00  0.00    +0.000 C 
ATOM      9  O   UNL     1       5.292   3.224  19.685  0.00  0.00    +0.000 OA
ATOM     10  N   UNL     1       3.611   3.775  18.155  0.00  0.00    +0.000 N 
ATOM     11  H   UNL     1       2.604   3.860  18.083  0.00  0.00    +0.000 HD
ENDBRANCH   1  10
BRANCH   3  12
ATOM     12  O   UNL     1       6.322   3.432  14.144  0.00  0.00    +0.000 OA
ATOM     13  H   UNL     1       7.283   3.559  14.203  0.00  0.00    +0.000 HD
ENDBRANCH   3  12
BRANCH   6  14
ATOM     14  C   UNL     1       3.855   6.716  17.999  0.00  0.00    +0.000 C 
ATOM     15  C   UNL     1       2.738   7.399  17.693  0.00  0.00    +0.000 C 
BRANCH  15  16
ATOM     16  C   UNL     1       1.994   8.276  18.618  0.00  0.00    +0.000 A 
ATOM     17  C   UNL     1       1.358   9.458  18.209  0.00  0.00    +0.000 A 
ATOM     18  C   UNL     1       0.629  10.238  19.117  0.00  0.00    +0.000 A 
ATOM     19  C   UNL     1       0.527   9.832  20.443  0.00  0.00    +0.000 A 
ATOM     20  C   UNL     1       1.141   8.664  20.872  0.00  0.00    +0.000 A 
ATOM     21  C   UNL     1       1.869   7.889  19.963  0.00  0.00    +0.000 A 
BRANCH  19  22
ATOM     22  O   UNL     1      -0.175  10.557  21.360  0.00  0.00    +0.000 OA
ATOM     23  H   UNL     1       0.414  11.221  21.751  0.00  0.00    +0.000 HD
ENDBRANCH  19  22
ENDBRANCH  15  16
ENDBRANCH   6  14
TORSDOF 5
ENDMDL
MODEL 9
REMARK VINA RESULT:      -7.2      1.357      1.492
REMARK  Name = 
REMARK  6 active torsions:
REMARK  status: ('A' for Active; 'I' for Inactive)
REMARK    1  A    between atoms: C_1  and  C_2
REMARK    2  A    between atoms: N_4  and  C_5
REMARK    3  A    between atoms: C_7  and  O_8
REMARK    4  A    between atoms: C_11  and  C_12
REMARK    5  A    between atoms: C_13  and  C_14
REMARK    6  A    between atoms: C_17  and  O_18
REMARK                            x       y       z     vdW  Elec       q    Type
REMARK                         _______ _______ _______ _____ _____    ______ ____
ROOT
ATOM      1  C   UNL     1       3.648   5.028  18.143  0.00  0.00    +0.000 A 
ATOM      2  C   UNL     1       4.492   4.101  17.510  0.00  0.00    +0.000 A 
ATOM      3  C   UNL     1       5.377   4.509  16.517  0.00  0.00    +0.000 A 
ATOM      4  C   UNL     1       5.436   5.831  16.116  0.00  0.00    +0.000 A 
ATOM      5  C   UNL     1       4.584   6.763  16.712  0.00  0.00    +0.000 A 
ATOM      6  C   UNL     1       3.677   6.377  17.718  0.00  0.00    +0.000 A 
ENDROOT
BRANCH   1  10
ATOM      7  C   UNL     1       0.796   3.757  20.280  0.00  0.00    +0.000 C 
ATOM      8  C   UNL     1       1.555   3.953  18.995  0.00  0.00    +0.000 C 
ATOM      9  O   UNL     1       1.095   3.530  17.939  0.00  0.00    +0.000 OA
ATOM     10  N   UNL     1       2.757   4.621  19.171  0.00  0.00    +0.000 N 
ATOM     11  H   UNL     1       3.091   4.736  20.120  0.00  0.00    +0.000 HD
ENDBRANCH   1  10
BRANCH   3  12
ATOM     12  O   UNL     1       6.208   3.610  15.912  0.00  0.00    +0.000 OA
ATOM     13  H   UNL     1       6.893   3.345  16.548  0.00  0.00    +0.000 HD
ENDBRANCH   3  12
BRANCH   6  14
ATOM     14  C   UNL     1       2.796   7.431  18.256  0.00  0.00    +0.000 C 
ATOM     15  C   UNL     1       2.521   8.555  17.572  0.00  0.00    +0.000 C 
BRANCH  15  16
ATOM     16  C   UNL     1       1.583   9.610  18.004  0.00  0.00    +0.000 A 
ATOM     17  C   UNL     1       2.002  10.873  18.447  0.00  0.00    +0.000 A 
ATOM     18  C   UNL     1       1.071  11.856  18.809  0.00  0.00    +0.000 A 
ATOM     19  C   UNL     1      -0.289  11.580  18.723  0.00  0.00    +0.000 A 
ATOM     20  C   UNL     1      -0.729  10.339  18.282  0.00  0.00    +0.000 A 
ATOM     21  C   UNL     1       0.203   9.360  17.922  0.00  0.00    +0.000 A 
BRANCH  19  22
ATOM     22  O   UNL     1      -1.231  12.507  19.061  0.00  0.00    +0.000 OA
ATOM     23  H   UNL     1      -0.787  13.268  19.466  0.00  0.00    +0.000 HD
ENDBRANCH  19  22
ENDBRANCH  15  16
ENDBRANCH   6  14
TORSDOF 5
ENDMDL
