MODEL 1
REMARK VINA RESULT:      -8.7      0.000      0.000
REMARK  Name = 
REMARK  3 active torsions:
REMARK  status: ('A' for Active; 'I' for Inactive)
REMARK    1  A    between atoms: C_2  and  C_3
REMARK    2  A    between atoms: C_5  and  C_6
REMARK    3  A    between atoms: C_6  and  C_7
REMARK                            x       y       z     vdW  Elec       q    Type
REMARK                         _______ _______ _______ _____ _____    ______ ____
ROOT
ATOM      1  C   UNL     1       2.603   6.886  18.989  0.00  0.00    +0.000 A 
ATOM      2  C   UNL     1       2.249   8.123  18.452  0.00  0.00    +0.000 A 
ATOM      3  C   UNL     1       1.558   9.097  19.181  0.00  0.00    +0.000 A 
ATOM      4  C   UNL     1       1.058   8.753  20.438  0.00  0.00    +0.000 A 
ATOM      5  C   UNL     1       1.310   7.480  20.960  0.00  0.00    +0.000 A 
ATOM      6  C   UNL     1       2.103   6.566  20.253  0.00  0.00    +0.000 A 
ATOM      7  F   UNL     1       2.356   5.384  20.831  0.00  0.00    +0.000 F 
ENDROOT
BRANCH   1   9
ATOM      8  O   UNL     1       4.588   6.149  18.036  0.00  0.00    +0.000 OA
ATOM      9  C   UNL     1       3.393   5.903  18.198  0.00  0.00    +0.000 C 
ATOM     10  N   UNL     1       2.815   4.719  17.705  0.00  0.00    +0.000 N 
ATOM     11  C   UNL     1       3.707   3.709  17.146  0.00  0.00    +0.000 C 
ATOM     12  C   UNL     1       4.189   2.706  18.187  0.00  0.00    +0.000 C 
ATOM     13  C   UNL     1       3.118   2.066  19.075  0.00  0.00    +0.000 C 
ATOM     14  N   UNL     1       1.772   1.951  18.501  0.00  0.00    +0.000 NA
ATOM     15  C   UNL     1       1.018   3.208  18.657  0.00  0.00    +0.000 C 
ATOM     16  C   UNL     1       1.394   4.339  17.669  0.00  0.00    +0.000 C 
ATOM     17  H   UNL     1       1.275   1.237  19.037  0.00  0.00    +0.000 HD
ENDBRANCH   1   9
BRANCH   3  18
ATOM     18  C   UNL     1       1.367  10.467  18.560  0.00  0.00    +0.000 C 
BRANCH  18  19
ATOM     19  C   UNL     1       0.069  11.116  18.969  0.00  0.00    +0.000 A 
ATOM     20  C   UNL     1       0.033  11.923  20.049  0.00  0.00    +0.000 A 
ATOM     21  N   UNL     1      -1.152  12.473  20.482  0.00  0.00    +0.000 N 
ATOM     22  C   UNL     1      -2.382  12.259  19.888  0.00  0.00    +0.000 A 
ATOM     23  O   UNL     1      -3.405  12.750  20.356  0.00  0.00    +0.000 OA
ATOM     24  C   UNL     1      -2.332  11.426  18.712  0.00  0.00    +0.000 A 
ATOM     25  C   UNL     1      -3.340  11.041  17.853  0.00  0.00    +0.000 A 
ATOM     26  C   UNL     1      -2.743  10.268  16.839  0.00  0.00    +0.000 A 
ATOM     27 CL   UNL     1      -3.563   9.597  15.514  0.00  0.00    +0.000 Cl
ATOM     28  C   UNL     1      -1.397  10.178  17.120  0.00  0.00    +0.000 A 
ATOM     29  N   UNL     1      -1.131  10.887  18.274  0.00  0.00    +0.000 N 
ATOM     30  H   UNL     1      -1.169  13.056  21.311  0.00  0.00    +0.000 HD
ENDBRANCH  18  19
ENDBRANCH   3  18
TORSDOF 3
ENDMDL
MODEL 2
REMARK VINA RESULT:      -8.6      1.830      2.482
REMARK  Name = 
REMARK  3 active torsions:
REMARK  status: ('A' for Active; 'I' for Inactive)
REMARK    1  A    between atoms: C_2  and  C_3
REMARK    2  A    between atoms: C_5  and  C_6
REMARK    3  A    between atoms: C_6  and  C_7
REMARK                            x       y       z     vdW  Elec       q    Type
REMARK                         _______ _______ _______ _____ _____    ______ ____
ROOT
ATOM      1  C   UNL     1       2.608   6.804  18.922  0.00  0.00    +0.000 A 
ATOM      2  C   UNL     1       2.165   8.009  18.380  0.00  0.00    +0.000 A 
ATOM      3  C   UNL     1       1.482   8.973  19.131  0.00  0.00    +0.000 A 
ATOM      4  C   UNL     1       1.083   8.642  20.428  0.00  0.00    +0.000 A 
ATOM      5  C   UNL     1       1.425   7.395  20.961  0.00  0.00    +0.000 A 
ATOM      6  C   UNL     1       2.208   6.497  20.224  0.00  0.00    +0.000 A 
ATOM      7  F   UNL     1       2.552   5.342  20.811  0.00  0.00    +0.000 F 
ENDROOT
BRANCH   1   9
ATOM      8  O   UNL     1       4.559   6.120  17.863  0.00  0.00    +0.000 OA
ATOM      9  C   UNL     1       3.385   5.834  18.103  0.00  0.00    +0.000 C 
ATOM     10  N   UNL     1       2.824   4.619  17.669  0.00  0.00    +0.000 N 
ATOM     11  C   UNL     1       3.719   3.631  17.075  0.00  0.00    +0.000 C 
ATOM     12  C   UNL     1       4.301   2.669  18.103  0.00  0.00    +0.000 C 
ATOM     13  C   UNL     1       3.312   2.009  19.068  0.00  0.00    +0.000 C 
ATOM     14  N   UNL     1       1.938   1.832  18.580  0.00  0.00    +0.000 NA
ATOM     15  C   UNL     1       1.148   3.063  18.757  0.00  0.00    +0.000 C 
ATOM     16  C   UNL     1       1.419   4.186  17.728  0.00  0.00    +0.000 C 
ATOM     17  H   UNL     1       1.502   1.111  19.158  0.00  0.00    +0.000 HD
ENDBRANCH   1   9
BRANCH   3  18
ATOM     18  C   UNL     1       1.189  10.316  18.492  0.00  0.00    +0.000 C 
BRANCH  18  19
ATOM     19  C   UNL     1      -0.267  10.695  18.574  0.00  0.00    +0.000 A 
ATOM     20  C   UNL     1      -1.143  10.199  17.676  0.00  0.00    +0.000 A 
ATOM     21  N   UNL     1      -2.465  10.582  17.690  0.00  0.00    +0.000 N 
ATOM     22  C   UNL     1      -3.012  11.485  18.582  0.00  0.00    +0.000 A 
ATOM     23  O   UNL     1      -4.193  11.812  18.507  0.00  0.00    +0.000 OA
ATOM     24  C   UNL     1      -2.081  11.984  19.563  0.00  0.00    +0.000 A 
ATOM     25  C   UNL     1      -2.281  12.850  20.617  0.00  0.00    +0.000 A 
ATOM     26  C   UNL     1      -1.052  12.964  21.294  0.00  0.00    +0.000 A 
ATOM     27 CL   UNL     1      -0.792  13.888  22.694  0.00  0.00    +0.000 Cl
ATOM     28  C   UNL     1      -0.132  12.190  20.622  0.00  0.00    +0.000 A 
ATOM     29  N   UNL     1      -0.754  11.581  19.552  0.00  0.00    +0.000 N 
ATOM     30  H   UNL     1      -3.106  10.223  16.992  0.00  0.00    +0.000 HD
ENDBRANCH  18  19
ENDBRANCH   3  18
TORSDOF 3
ENDMDL
MODEL 3
REMARK VINA RESULT:      -8.5      1.859      2.712
REMARK  Name = 
REMARK  3 active torsions:
REMARK  status: ('A' for Active; 'I' for Inactive)
REMARK    1  A    between atoms: C_2  and  C_3
REMARK    2  A    between atoms: C_5  and  C_6
REMARK    3  A    between atoms: C_6  and  C_7
REMARK                            x       y       z     vdW  Elec       q    Type
REMARK                         _______ _______ _______ _____ _____    ______ ____
ROOT
ATOM      1  C   UNL     1       2.754   6.113  18.675  0.00  0.00    +0.000 A 
ATOM      2  C   UNL     1       2.498   7.325  18.034  0.00  0.00    +0.000 A 
ATOM      3  C   UNL     1       2.027   8.456  18.712  0.00  0.00    +0.000 A 
ATOM      4  C   UNL     1       1.641   8.316  20.046  0.00  0.00    +0.000 A 
ATOM      5  C   UNL     1       1.791   7.081  20.685  0.00  0.00    +0.000 A 
ATOM      6  C   UNL     1       2.372   5.999  20.013  0.00  0.00    +0.000 A 
ATOM      7  F   UNL     1       2.541   4.858  20.697  0.00  0.00    +0.000 F 
ENDROOT
BRANCH   1   9
ATOM      8  O   UNL     1       2.505   4.173  17.424  0.00  0.00    +0.000 OA
ATOM      9  C   UNL     1       3.313   4.954  17.928  0.00  0.00    +0.000 C 
ATOM     10  N   UNL     1       4.699   4.786  17.755  0.00  0.00    +0.000 N 
ATOM     11  C   UNL     1       5.149   3.760  16.820  0.00  0.00    +0.000 C 
ATOM     12  C   UNL     1       5.321   4.290  15.401  0.00  0.00    +0.000 C 
ATOM     13  C   UNL     1       6.134   5.578  15.240  0.00  0.00    +0.000 C 
ATOM     14  N   UNL     1       7.156   5.841  16.261  0.00  0.00    +0.000 NA
ATOM     15  C   UNL     1       6.567   6.471  17.455  0.00  0.00    +0.000 C 
ATOM     16  C   UNL     1       5.798   5.519  18.403  0.00  0.00    +0.000 C 
ATOM     17  H   UNL     1       7.815   6.513  15.862  0.00  0.00    +0.000 HD
ENDBRANCH   1   9
BRANCH   3  18
ATOM     18  C   UNL     1       1.938   9.767  17.956  0.00  0.00    +0.000 C 
BRANCH  18  19
ATOM     19  C   UNL     1       1.047  10.773  18.640  0.00  0.00    +0.000 A 
ATOM     20  C   UNL     1       1.581  11.675  19.489  0.00  0.00    +0.000 A 
ATOM     21  N   UNL     1       0.781  12.559  20.176  0.00  0.00    +0.000 N 
ATOM     22  C   UNL     1      -0.597  12.611  20.081  0.00  0.00    +0.000 A 
ATOM     23  O   UNL     1      -1.249  13.400  20.758  0.00  0.00    +0.000 OA
ATOM     24  C   UNL     1      -1.159  11.671  19.144  0.00  0.00    +0.000 A 
ATOM     25  C   UNL     1      -2.470  11.472  18.765  0.00  0.00    +0.000 A 
ATOM     26  C   UNL     1      -2.464  10.464  17.782  0.00  0.00    +0.000 A 
ATOM     27 CL   UNL     1      -3.837   9.890  16.966  0.00  0.00    +0.000 Cl
ATOM     28  C   UNL     1      -1.160  10.056  17.608  0.00  0.00    +0.000 A 
ATOM     29  N   UNL     1      -0.345  10.793  18.444  0.00  0.00    +0.000 N 
ATOM     30  H   UNL     1       1.193  13.213  20.832  0.00  0.00    +0.000 HD
ENDBRANCH  18  19
ENDBRANCH   3  18
TORSDOF 3
ENDMDL
MODEL 4
REMARK VINA RESULT:      -8.5      2.540      3.649
REMARK  Name = 
REMARK  3 active torsions:
REMARK  status: ('A' for Active; 'I' for Inactive)
REMARK    1  A    between atoms: C_2  and  C_3
REMARK    2  A    between atoms: C_5  and  C_6
REMARK    3  A    between atoms: C_6  and  C_7
REMARK                            x       y       z     vdW  Elec       q    Type
REMARK                         _______ _______ _______ _____ _____    ______ ____
ROOT
ATOM      1  C   UNL     1       2.794   5.948  18.661  0.00  0.00    +0.000 A 
ATOM      2  C   UNL     1       2.464   7.162  18.060  0.00  0.00    +0.000 A 
ATOM      3  C   UNL     1       1.971   8.256  18.782  0.00  0.00    +0.000 A 
ATOM      4  C   UNL     1       1.640   8.068  20.125  0.00  0.00    +0.000 A 
ATOM      5  C   UNL     1       1.865   6.826  20.728  0.00  0.00    +0.000 A 
ATOM      6  C   UNL     1       2.466   5.785  20.008  0.00  0.00    +0.000 A 
ATOM      7  F   UNL     1       2.707   4.637  20.657  0.00  0.00    +0.000 F 
ENDROOT
BRANCH   1   9
ATOM      8  O   UNL     1       2.581   4.036  17.360  0.00  0.00    +0.000 OA
ATOM      9  C   UNL     1       3.374   4.831  17.865  0.00  0.00    +0.000 C 
ATOM     10  N   UNL     1       4.759   4.720  17.651  0.00  0.00    +0.000 N 
ATOM     11  C   UNL     1       5.220   3.738  16.675  0.00  0.00    +0.000 C 
ATOM     12  C   UNL     1       5.334   4.314  15.268  0.00  0.00    +0.000 C 
ATOM     13  C   UNL     1       6.096   5.635  15.124  0.00  0.00    +0.000 C 
ATOM     14  N   UNL     1       7.136   5.905  16.125  0.00  0.00    +0.000 NA
ATOM     15  C   UNL     1       6.557   6.480  17.352  0.00  0.00    +0.000 C 
ATOM     16  C   UNL     1       5.848   5.474  18.291  0.00  0.00    +0.000 C 
ATOM     17  H   UNL     1       7.759   6.613  15.729  0.00  0.00    +0.000 HD
ENDBRANCH   1   9
BRANCH   3  18
ATOM     18  C   UNL     1       1.800   9.580  18.063  0.00  0.00    +0.000 C 
BRANCH  18  19
ATOM     19  C   UNL     1       0.462  10.220  18.335  0.00  0.00    +0.000 A 
ATOM     20  C   UNL     1      -0.653   9.712  17.773  0.00  0.00    +0.000 A 
ATOM     21  N   UNL     1      -1.876  10.318  17.952  0.00  0.00    +0.000 N 
ATOM     22  C   UNL     1      -2.082  11.470  18.688  0.00  0.00    +0.000 A 
ATOM     23  O   UNL     1      -3.196  11.979  18.769  0.00  0.00    +0.000 OA
ATOM     24  C   UNL     1      -0.893  11.988  19.317  0.00  0.00    +0.000 A 
ATOM     25  C   UNL     1      -0.731  13.078  20.148  0.00  0.00    +0.000 A 
ATOM     26  C   UNL     1       0.626  13.109  20.523  0.00  0.00    +0.000 A 
ATOM     27 CL   UNL     1       1.318  14.243  21.579  0.00  0.00    +0.000 Cl
ATOM     28  C   UNL     1       1.258  12.061  19.892  0.00  0.00    +0.000 A 
ATOM     29  N   UNL     1       0.332  11.363  19.144  0.00  0.00    +0.000 N 
ATOM     30  H   UNL     1      -2.701   9.941  17.501  0.00  0.00    +0.000 HD
ENDBRANCH  18  19
ENDBRANCH   3  18
TORSDOF 3
ENDMDL
MODEL 5
REMARK VINA RESULT:      -8.5      0.974      1.101
REMARK  Name = 
REMARK  3 active torsions:
REMARK  status: ('A' for Active; 'I' for Inactive)
REMARK    1  A    between atoms: C_2  and  C_3
REMARK    2  A    between atoms: C_5  and  C_6
REMARK    3  A    between atoms: C_6  and  C_7
REMARK                            x       y       z     vdW  Elec       q    Type
REMARK                         _______ _______ _______ _____ _____    ______ ____
ROOT
ATOM      1  C   UNL     1       2.726   6.668  18.924  0.00  0.00    +0.000 A 
ATOM      2  C   UNL     1       2.442   7.859  18.256  0.00  0.00    +0.000 A 
ATOM      3  C   UNL     1       1.774   8.928  18.863  0.00  0.00    +0.000 A 
ATOM      4  C   UNL     1       1.223   8.730  20.131  0.00  0.00    +0.000 A 
ATOM      5  C   UNL     1       1.404   7.506  20.783  0.00  0.00    +0.000 A 
ATOM      6  C   UNL     1       2.176   6.496  20.195  0.00  0.00    +0.000 A 
ATOM      7  F   UNL     1       2.361   5.367  20.894  0.00  0.00    +0.000 F 
ENDROOT
BRANCH   1   9
ATOM      8  O   UNL     1       4.716   5.720  18.192  0.00  0.00    +0.000 OA
ATOM      9  C   UNL     1       3.495   5.580  18.259  0.00  0.00    +0.000 C 
ATOM     10  N   UNL     1       2.863   4.419  17.778  0.00  0.00    +0.000 N 
ATOM     11  C   UNL     1       3.712   3.309  17.355  0.00  0.00    +0.000 C 
ATOM     12  C   UNL     1       4.017   2.335  18.486  0.00  0.00    +0.000 C 
ATOM     13  C   UNL     1       2.825   1.836  19.307  0.00  0.00    +0.000 C 
ATOM     14  N   UNL     1       1.527   1.795  18.621  0.00  0.00    +0.000 NA
ATOM     15  C   UNL     1       0.871   3.114  18.643  0.00  0.00    +0.000 C 
ATOM     16  C   UNL     1       1.424   4.151  17.635  0.00  0.00    +0.000 C 
ATOM     17  H   UNL     1       0.928   1.154  19.147  0.00  0.00    +0.000 HD
ENDBRANCH   1   9
BRANCH   3  18
ATOM     18  C   UNL     1       1.661  10.236  18.105  0.00  0.00    +0.000 C 
BRANCH  18  19
ATOM     19  C   UNL     1       0.839  11.265  18.839  0.00  0.00    +0.000 A 
ATOM     20  C   UNL     1       1.446  12.155  19.650  0.00  0.00    +0.000 A 
ATOM     21  N   UNL     1       0.712  13.060  20.382  0.00  0.00    +0.000 N 
ATOM     22  C   UNL     1      -0.667  13.145  20.374  0.00  0.00    +0.000 A 
ATOM     23  O   UNL     1      -1.257  13.951  21.087  0.00  0.00    +0.000 OA
ATOM     24  C   UNL     1      -1.309  12.216  19.477  0.00  0.00    +0.000 A 
ATOM     25  C   UNL     1      -2.646  12.048  19.181  0.00  0.00    +0.000 A 
ATOM     26  C   UNL     1      -2.725  11.038  18.203  0.00  0.00    +0.000 A 
ATOM     27 CL   UNL     1      -4.160  10.495  17.477  0.00  0.00    +0.000 Cl
ATOM     28  C   UNL     1      -1.444  10.598  17.951  0.00  0.00    +0.000 A 
ATOM     29  N   UNL     1      -0.562  11.317  18.731  0.00  0.00    +0.000 N 
ATOM     30  H   UNL     1       1.180  13.706  21.009  0.00  0.00    +0.000 HD
ENDBRANCH  18  19
ENDBRANCH   3  18
TORSDOF 3
ENDMDL
MODEL 6
REMARK VINA RESULT:      -8.2      2.700      3.761
REMARK  Name = 
REMARK  3 active torsions:
REMARK  status: ('A' for Active; 'I' for Inactive)
REMARK    1  A    between atoms: C_2  and  C_3
REMARK    2  A    between atoms: C_5  and  C_6
REMARK    3  A    between atoms: C_6  and  C_7
REMARK                            x       y       z     vdW  Elec       q    Type
REMARK                         _______ _______ _______ _____ _____    ______ ____
ROOT
ATOM      1  C   UNL     1       2.783   6.066  18.627  0.00  0.00    +0.000 A 
ATOM      2  C   UNL     1       2.485   7.266  17.983  0.00  0.00    +0.000 A 
ATOM      3  C   UNL     1       1.999   8.391  18.660  0.00  0.00    +0.000 A 
ATOM      4  C   UNL     1       1.640   8.251  20.002  0.00  0.00    +0.000 A 
ATOM      5  C   UNL     1       1.831   7.026  20.647  0.00  0.00    +0.000 A 
ATOM      6  C   UNL     1       2.426   5.952  19.972  0.00  0.00    +0.000 A 
ATOM      7  F   UNL     1       2.635   4.821  20.661  0.00  0.00    +0.000 F 
ENDROOT
BRANCH   1   9
ATOM      8  O   UNL     1       2.560   4.107  17.401  0.00  0.00    +0.000 OA
ATOM      9  C   UNL     1       3.357   4.915  17.878  0.00  0.00    +0.000 C 
ATOM     10  N   UNL     1       4.742   4.785  17.675  0.00  0.00    +0.000 N 
ATOM     11  C   UNL     1       5.200   3.762  16.740  0.00  0.00    +0.000 C 
ATOM     12  C   UNL     1       5.325   4.282  15.312  0.00  0.00    +0.000 C 
ATOM     13  C   UNL     1       6.097   5.590  15.121  0.00  0.00    +0.000 C 
ATOM     14  N   UNL     1       7.135   5.892  16.116  0.00  0.00    +0.000 NA
ATOM     15  C   UNL     1       6.555   6.518  17.317  0.00  0.00    +0.000 C 
ATOM     16  C   UNL     1       5.835   5.555  18.291  0.00  0.00    +0.000 C 
ATOM     17  H   UNL     1       7.766   6.578  15.695  0.00  0.00    +0.000 HD
ENDBRANCH   1   9
BRANCH   3  18
ATOM     18  C   UNL     1       1.865   9.694  17.896  0.00  0.00    +0.000 C 
BRANCH  18  19
ATOM     19  C   UNL     1       0.803  10.597  18.471  0.00  0.00    +0.000 A 
ATOM     20  C   UNL     1      -0.451  10.133  18.648  0.00  0.00    +0.000 A 
ATOM     21  N   UNL     1      -1.452  10.958  19.107  0.00  0.00    +0.000 N 
ATOM     22  C   UNL     1      -1.291  12.296  19.414  0.00  0.00    +0.000 A 
ATOM     23  O   UNL     1      -2.241  12.981  19.779  0.00  0.00    +0.000 OA
ATOM     24  C   UNL     1       0.059  12.777  19.258  0.00  0.00    +0.000 A 
ATOM     25  C   UNL     1       0.591  14.025  19.511  0.00  0.00    +0.000 A 
ATOM     26  C   UNL     1       1.970  13.945  19.238  0.00  0.00    +0.000 A 
ATOM     27 CL   UNL     1       3.078  15.216  19.438  0.00  0.00    +0.000 Cl
ATOM     28  C   UNL     1       2.237  12.667  18.802  0.00  0.00    +0.000 A 
ATOM     29  N   UNL     1       1.066  11.937  18.810  0.00  0.00    +0.000 N 
ATOM     30  H   UNL     1      -2.396  10.603  19.210  0.00  0.00    +0.000 HD
ENDBRANCH  18  19
ENDBRANCH   3  18
TORSDOF 3
ENDMDL
MODEL 7
REMARK VINA RESULT:      -8.1      2.117      2.823
REMARK  Name = 
REMARK  3 active torsions:
REMARK  status: ('A' for Active; 'I' for Inactive)
REMARK    1  A    between atoms: C_2  and  C_3
REMARK    2  A    between atoms: C_5  and  C_6
REMARK    3  A    between atoms: C_6  and  C_7
REMARK                            x       y       z     vdW  Elec       q    Type
REMARK                         _______ _______ _______ _____ _____    ______ ____
ROOT
ATOM      1  C   UNL     1       2.657   6.815  18.835  0.00  0.00    +0.000 A 
ATOM      2  C   UNL     1       2.249   8.012  18.248  0.00  0.00    +0.000 A 
ATOM      3  C   UNL     1       1.584   9.018  18.959  0.00  0.00    +0.000 A 
ATOM      4  C   UNL     1       1.165   8.741  20.261  0.00  0.00    +0.000 A 
ATOM      5  C   UNL     1       1.469   7.505  20.840  0.00  0.00    +0.000 A 
ATOM      6  C   UNL     1       2.236   6.563  20.142  0.00  0.00    +0.000 A 
ATOM      7  F   UNL     1       2.545   5.421  20.772  0.00  0.00    +0.000 F 
ENDROOT
BRANCH   1   9
ATOM      8  O   UNL     1       4.608   6.031  17.850  0.00  0.00    +0.000 OA
ATOM      9  C   UNL     1       3.417   5.799  18.057  0.00  0.00    +0.000 C 
ATOM     10  N   UNL     1       2.818   4.602  17.625  0.00  0.00    +0.000 N 
ATOM     11  C   UNL     1       3.688   3.566  17.077  0.00  0.00    +0.000 C 
ATOM     12  C   UNL     1       4.196   2.598  18.140  0.00  0.00    +0.000 C 
ATOM     13  C   UNL     1       3.150   1.998  19.083  0.00  0.00    +0.000 C 
ATOM     14  N   UNL     1       1.785   1.871  18.554  0.00  0.00    +0.000 NA
ATOM     15  C   UNL     1       1.044   3.137  18.686  0.00  0.00    +0.000 C 
ATOM     16  C   UNL     1       1.395   4.229  17.647  0.00  0.00    +0.000 C 
ATOM     17  H   UNL     1       1.301   1.180  19.131  0.00  0.00    +0.000 HD
ENDBRANCH   1   9
BRANCH   3  18
ATOM     18  C   UNL     1       1.333  10.345  18.271  0.00  0.00    +0.000 C 
BRANCH  18  19
ATOM     19  C   UNL     1       0.172  11.100  18.869  0.00  0.00    +0.000 A 
ATOM     20  C   UNL     1      -1.092  10.730  18.577  0.00  0.00    +0.000 A 
ATOM     21  N   UNL     1      -2.166  11.444  19.056  0.00  0.00    +0.000 N 
ATOM     22  C   UNL     1      -2.071  12.573  19.848  0.00  0.00    +0.000 A 
ATOM     23  O   UNL     1      -3.074  13.184  20.204  0.00  0.00    +0.000 OA
ATOM     24  C   UNL     1      -0.719  12.942  20.188  0.00  0.00    +0.000 A 
ATOM     25  C   UNL     1      -0.253  13.968  20.983  0.00  0.00    +0.000 A 
ATOM     26  C   UNL     1       1.150  13.849  21.024  0.00  0.00    +0.000 A 
ATOM     27 CL   UNL     1       2.188  14.857  21.912  0.00  0.00    +0.000 Cl
ATOM     28  C   UNL     1       1.502  12.776  20.236  0.00  0.00    +0.000 A 
ATOM     29  N   UNL     1       0.358  12.209  19.714  0.00  0.00    +0.000 N 
ATOM     30  H   UNL     1      -3.110  11.171  18.806  0.00  0.00    +0.000 HD
ENDBRANCH  18  19
ENDBRANCH   3  18
TORSDOF 3
ENDMDL
MODEL 8
REMARK VINA RESULT:      -8.1      1.742      2.216
REMARK  Name = 
REMARK  3 active torsions:
REMARK  status: ('A' for Active; 'I' for Inactive)
REMARK    1  A    between atoms: C_2  and  C_3
REMARK    2  A    between atoms: C_5  and  C_6
REMARK    3  A    between atoms: C_6  and  C_7
REMARK                            x       y       z     vdW  Elec       q    Type
REMARK                         _______ _______ _______ _____ _____    ______ ____
ROOT
ATOM      1  C   UNL     1       3.226   6.463  18.806  0.00  0.00    +0.000 A 
ATOM      2  C   UNL     1       2.396   7.159  19.684  0.00  0.00    +0.000 A 
ATOM      3  C   UNL     1       1.798   8.381  19.355  0.00  0.00    +0.000 A 
ATOM      4  C   UNL     1       2.180   9.006  18.167  0.00  0.00    +0.000 A 
ATOM      5  C   UNL     1       3.093   8.377  17.314  0.00  0.00    +0.000 A 
ATOM      6  C   UNL     1       3.586   7.102  17.618  0.00  0.00    +0.000 A 
ATOM      7  F   UNL     1       4.413   6.526  16.734  0.00  0.00    +0.000 F 
ENDROOT
BRANCH   1   9
ATOM      8  O   UNL     1       4.964   5.115  19.552  0.00  0.00    +0.000 OA
ATOM      9  C   UNL     1       3.792   5.136  19.175  0.00  0.00    +0.000 C 
ATOM     10  N   UNL     1       3.010   3.968  19.147  0.00  0.00    +0.000 N 
ATOM     11  C   UNL     1       3.573   2.759  19.741  0.00  0.00    +0.000 C 
ATOM     12  C   UNL     1       3.231   2.615  21.220  0.00  0.00    +0.000 C 
ATOM     13  C   UNL     1       1.759   2.787  21.607  0.00  0.00    +0.000 C 
ATOM     14  N   UNL     1       0.766   2.452  20.578  0.00  0.00    +0.000 NA
ATOM     15  C   UNL     1       0.559   3.578  19.652  0.00  0.00    +0.000 C 
ATOM     16  C   UNL     1       1.663   3.780  18.586  0.00  0.00    +0.000 C 
ATOM     17  H   UNL     1      -0.122   2.291  21.057  0.00  0.00    +0.000 HD
ENDBRANCH   1   9
BRANCH   3  18
ATOM     18  C   UNL     1       0.784   8.972  20.315  0.00  0.00    +0.000 C 
BRANCH  18  19
ATOM     19  C   UNL     1       0.396  10.384  19.953  0.00  0.00    +0.000 A 
ATOM     20  C   UNL     1       0.985  11.424  20.577  0.00  0.00    +0.000 A 
ATOM     21  N   UNL     1       0.599  12.718  20.312  0.00  0.00    +0.000 N 
ATOM     22  C   UNL     1      -0.397  13.076  19.423  0.00  0.00    +0.000 A 
ATOM     23  O   UNL     1      -0.716  14.251  19.270  0.00  0.00    +0.000 OA
ATOM     24  C   UNL     1      -0.997  11.963  18.731  0.00  0.00    +0.000 A 
ATOM     25  C   UNL     1      -1.974  11.946  17.758  0.00  0.00    +0.000 A 
ATOM     26  C   UNL     1      -2.159  10.600  17.386  0.00  0.00    +0.000 A 
ATOM     27 CL   UNL     1      -3.229  10.059  16.185  0.00  0.00    +0.000 Cl
ATOM     28  C   UNL     1      -1.314   9.833  18.158  0.00  0.00    +0.000 A 
ATOM     29  N   UNL     1      -0.593  10.663  18.992  0.00  0.00    +0.000 N 
ATOM     30  H   UNL     1       1.031  13.489  20.809  0.00  0.00    +0.000 HD
ENDBRANCH  18  19
ENDBRANCH   3  18
TORSDOF 3
ENDMDL
MODEL 9
REMARK VINA RESULT:      -8.0      2.841      3.894
REMARK  Name = 
REMARK  3 active torsions:
REMARK  status: ('A' for Active; 'I' for Inactive)
REMARK    1  A    between atoms: C_2  and  C_3
REMARK    2  A    between atoms: C_5  and  C_6
REMARK    3  A    between atoms: C_6  and  C_7
REMARK                            x       y       z     vdW  Elec       q    Type
REMARK                         _______ _______ _______ _____ _____    ______ ____
ROOT
ATOM      1  C   UNL     1       4.379   5.361  18.325  0.00  0.00    +0.000 A 
ATOM      2  C   UNL     1       3.303   6.231  18.502  0.00  0.00    +0.000 A 
ATOM      3  C   UNL     1       3.148   7.406  17.757  0.00  0.00    +0.000 A 
ATOM      4  C   UNL     1       4.195   7.806  16.925  0.00  0.00    +0.000 A 
ATOM      5  C   UNL     1       5.334   7.003  16.808  0.00  0.00    +0.000 A 
ATOM      6  C   UNL     1       5.409   5.775  17.480  0.00  0.00    +0.000 A 
ATOM      7  F   UNL     1       6.502   5.023  17.282  0.00  0.00    +0.000 F 
ENDROOT
BRANCH   1   9
ATOM      8  O   UNL     1       5.507   3.902  19.737  0.00  0.00    +0.000 OA
ATOM      9  C   UNL     1       4.473   4.091  19.096  0.00  0.00    +0.000 C 
ATOM     10  N   UNL     1       3.408   3.173  19.137  0.00  0.00    +0.000 N 
ATOM     11  C   UNL     1       3.493   2.075  20.095  0.00  0.00    +0.000 C 
ATOM     12  C   UNL     1       2.876   2.421  21.445  0.00  0.00    +0.000 C 
ATOM     13  C   UNL     1       1.470   3.028  21.425  0.00  0.00    +0.000 C 
ATOM     14  N   UNL     1       0.615   2.665  20.287  0.00  0.00    +0.000 NA
ATOM     15  C   UNL     1       0.898   3.514  19.116  0.00  0.00    +0.000 C 
ATOM     16  C   UNL     1       2.180   3.157  18.327  0.00  0.00    +0.000 C 
ATOM     17  H   UNL     1      -0.351   2.851  20.564  0.00  0.00    +0.000 HD
ENDBRANCH   1   9
BRANCH   3  18
ATOM     18  C   UNL     1       1.862   8.195  17.910  0.00  0.00    +0.000 C 
BRANCH  18  19
ATOM     19  C   UNL     1       1.633   8.666  19.324  0.00  0.00    +0.000 A 
ATOM     20  C   UNL     1       1.862   7.829  20.357  0.00  0.00    +0.000 A 
ATOM     21  N   UNL     1       1.596   8.213  21.651  0.00  0.00    +0.000 N 
ATOM     22  C   UNL     1       1.081   9.443  22.017  0.00  0.00    +0.000 A 
ATOM     23  O   UNL     1       0.830   9.700  23.190  0.00  0.00    +0.000 OA
ATOM     24  C   UNL     1       0.874  10.347  20.913  0.00  0.00    +0.000 A 
ATOM     25  C   UNL     1       0.423  11.650  20.907  0.00  0.00    +0.000 A 
ATOM     26  C   UNL     1       0.456  12.088  19.569  0.00  0.00    +0.000 A 
ATOM     27 CL   UNL     1       0.035  13.646  19.043  0.00  0.00    +0.000 Cl
ATOM     28  C   UNL     1       0.897  11.038  18.795  0.00  0.00    +0.000 A 
ATOM     29  N   UNL     1       1.158   9.957  19.613  0.00  0.00    +0.000 N 
ATOM     30  H   UNL     1       1.747   7.564  22.415  0.00  0.00    +0.000 HD
ENDBRANCH  18  19
ENDBRANCH   3  18
TORSDOF 3
ENDMDL
