MODEL 1
REMARK VINA RESULT:      -8.0      0.000      0.000
REMARK  Name = 
REMARK  5 active torsions:
REMARK  status: ('A' for Active; 'I' for Inactive)
REMARK    1  A    between atoms: C_2  and  C_3
REMARK    2  A    between atoms: C_2  and  C_10
REMARK    3  A    between atoms: C_13  and  C_14
REMARK    4  A    between atoms: N_16  and  C_17
REMARK    5  A    between atoms: C_17  and  C_18
REMARK                            x       y       z     vdW  Elec       q    Type
REMARK                         _______ _______ _______ _____ _____    ______ ____
ROOT
ATOM      1  C   UNL     1       1.436   9.098  19.189  0.00  0.00    +0.000 A 
ATOM      2  C   UNL     1       1.360   8.678  20.502  0.00  0.00    +0.000 A 
ATOM      3  N   UNL     1       1.857   7.406  20.584  0.00  0.00    +0.000 N 
ATOM      4  C   UNL     1       2.305   6.982  19.349  0.00  0.00    +0.000 A 
ATOM      5  C   UNL     1       2.040   8.020  18.468  0.00  0.00    +0.000 A 
ATOM      6  H   UNL     1       1.923   6.846  21.427  0.00  0.00    +0.000 HD
ENDROOT
BRANCH   4   7
ATOM      7  C   UNL     1       2.931   5.684  19.170  0.00  0.00    +0.000 C 
ATOM      8  O   UNL     1       3.326   5.022  20.122  0.00  0.00    +0.000 OA
ATOM      9  N   UNL     1       3.051   5.266  17.867  0.00  0.00    +0.000 N 
ATOM     10  H   UNL     1       2.680   5.836  17.122  0.00  0.00    +0.000 HD
BRANCH   9  11
ATOM     11  C   UNL     1       3.677   4.015  17.501  0.00  0.00    +0.000 C 
BRANCH  11  12
ATOM     12  C   UNL     1       5.093   4.219  17.025  0.00  0.00    +0.000 A 
ATOM     13  C   UNL     1       5.388   4.234  15.657  0.00  0.00    +0.000 A 
ATOM     14  C   UNL     1       6.696   4.465  15.257  0.00  0.00    +0.000 A 
ATOM     15  N   UNL     1       7.716   4.685  16.113  0.00  0.00    +0.000 NA
ATOM     16  C   UNL     1       7.414   4.673  17.428  0.00  0.00    +0.000 A 
ATOM     17  C   UNL     1       6.139   4.444  17.927  0.00  0.00    +0.000 A 
ENDBRANCH  11  12
ENDBRANCH   9  11
ENDBRANCH   4   7
BRANCH   1  19
ATOM     18  O   UNL     1       1.776  11.333  18.508  0.00  0.00    +0.000 OA
ATOM     19  C   UNL     1       0.997  10.405  18.705  0.00  0.00    +0.000 C 
BRANCH  19  20
ATOM     20  C   UNL     1      -0.459  10.615  18.445  0.00  0.00    +0.000 A 
ATOM     21  C   UNL     1      -1.148  11.611  19.146  0.00  0.00    +0.000 A 
ATOM     22  C   UNL     1      -2.513  11.816  18.912  0.00  0.00    +0.000 A 
ATOM     23  C   UNL     1      -3.186  11.016  17.988  0.00  0.00    +0.000 A 
ATOM     24 CL   UNL     1      -4.861  11.270  17.693  0.00  0.00    +0.000 Cl
ATOM     25  C   UNL     1      -2.512  10.006  17.305  0.00  0.00    +0.000 A 
ATOM     26  C   UNL     1      -1.154   9.797  17.541  0.00  0.00    +0.000 A 
ENDBRANCH  19  20
ENDBRANCH   1  19
TORSDOF 5
ENDMDL
MODEL 2
REMARK VINA RESULT:      -7.9      5.734      8.711
REMARK  Name = 
REMARK  5 active torsions:
REMARK  status: ('A' for Active; 'I' for Inactive)
REMARK    1  A    between atoms: C_2  and  C_3
REMARK    2  A    between atoms: C_2  and  C_10
REMARK    3  A    between atoms: C_13  and  C_14
REMARK    4  A    between atoms: N_16  and  C_17
REMARK    5  A    between atoms: C_17  and  C_18
REMARK                            x       y       z     vdW  Elec       q    Type
REMARK                         _______ _______ _______ _____ _____    ______ ____
ROOT
ATOM      1  C   UNL     1       7.440   6.874  17.411  0.00  0.00    +0.000 A 
ATOM      2  C   UNL     1       8.022   6.536  18.618  0.00  0.00    +0.000 A 
ATOM      3  N   UNL     1       8.606   7.654  19.150  0.00  0.00    +0.000 N 
ATOM      4  C   UNL     1       8.385   8.747  18.336  0.00  0.00    +0.000 A 
ATOM      5  C   UNL     1       7.671   8.276  17.245  0.00  0.00    +0.000 A 
ATOM      6  H   UNL     1       9.108   7.700  20.028  0.00  0.00    +0.000 HD
ENDROOT
BRANCH   4   7
ATOM      7  C   UNL     1       8.853  10.072  18.700  0.00  0.00    +0.000 C 
ATOM      8  O   UNL     1       8.720  11.031  17.950  0.00  0.00    +0.000 OA
ATOM      9  N   UNL     1       9.455  10.164  19.931  0.00  0.00    +0.000 N 
ATOM     10  H   UNL     1       9.510   9.350  20.524  0.00  0.00    +0.000 HD
BRANCH   9  11
ATOM     11  C   UNL     1      10.008  11.399  20.443  0.00  0.00    +0.000 C 
BRANCH  11  12
ATOM     12  C   UNL     1       9.003  12.159  21.271  0.00  0.00    +0.000 A 
ATOM     13  C   UNL     1       8.671  13.479  20.949  0.00  0.00    +0.000 A 
ATOM     14  C   UNL     1       7.712  14.133  21.709  0.00  0.00    +0.000 A 
ATOM     15  N   UNL     1       7.066  13.568  22.751  0.00  0.00    +0.000 NA
ATOM     16  C   UNL     1       7.394  12.293  23.045  0.00  0.00    +0.000 A 
ATOM     17  C   UNL     1       8.344  11.558  22.349  0.00  0.00    +0.000 A 
ENDBRANCH  11  12
ENDBRANCH   9  11
ENDBRANCH   4   7
BRANCH   1  19
ATOM     18  O   UNL     1       7.188   5.537  15.481  0.00  0.00    +0.000 OA
ATOM     19  C   UNL     1       6.723   5.943  16.542  0.00  0.00    +0.000 C 
BRANCH  19  20
ATOM     20  C   UNL     1       5.369   5.474  16.965  0.00  0.00    +0.000 A 
ATOM     21  C   UNL     1       5.003   4.140  16.748  0.00  0.00    +0.000 A 
ATOM     22  C   UNL     1       3.737   3.690  17.138  0.00  0.00    +0.000 A 
ATOM     23  C   UNL     1       2.837   4.576  17.731  0.00  0.00    +0.000 A 
ATOM     24 CL   UNL     1       1.282   4.023  18.217  0.00  0.00    +0.000 Cl
ATOM     25  C   UNL     1       3.185   5.911  17.927  0.00  0.00    +0.000 A 
ATOM     26  C   UNL     1       4.445   6.362  17.534  0.00  0.00    +0.000 A 
ENDBRANCH  19  20
ENDBRANCH   1  19
TORSDOF 5
ENDMDL
MODEL 3
REMARK VINA RESULT:      -7.8      5.718      8.545
REMARK  Name = 
REMARK  5 active torsions:
REMARK  status: ('A' for Active; 'I' for Inactive)
REMARK    1  A    between atoms: C_2  and  C_3
REMARK    2  A    between atoms: C_2  and  C_10
REMARK    3  A    between atoms: C_13  and  C_14
REMARK    4  A    between atoms: N_16  and  C_17
REMARK    5  A    between atoms: C_17  and  C_18
REMARK                            x       y       z     vdW  Elec       q    Type
REMARK                         _______ _______ _______ _____ _____    ______ ____
ROOT
ATOM      1  C   UNL     1       7.447   6.931  17.408  0.00  0.00    +0.000 A 
ATOM      2  C   UNL     1       7.965   6.516  18.620  0.00  0.00    +0.000 A 
ATOM      3  N   UNL     1       8.599   7.575  19.210  0.00  0.00    +0.000 N 
ATOM      4  C   UNL     1       8.477   8.707  18.430  0.00  0.00    +0.000 A 
ATOM      5  C   UNL     1       7.773   8.319  17.300  0.00  0.00    +0.000 A 
ATOM      6  H   UNL     1       9.072   7.559  20.106  0.00  0.00    +0.000 HD
ENDROOT
BRANCH   4   7
ATOM      7  C   UNL     1       9.015   9.986  18.856  0.00  0.00    +0.000 C 
ATOM      8  O   UNL     1       9.224  10.238  20.035  0.00  0.00    +0.000 OA
ATOM      9  N   UNL     1       9.261  10.883  17.844  0.00  0.00    +0.000 N 
ATOM     10  H   UNL     1       9.102  10.615  16.886  0.00  0.00    +0.000 HD
BRANCH   9  11
ATOM     11  C   UNL     1       9.767  12.217  18.087  0.00  0.00    +0.000 C 
BRANCH  11  12
ATOM     12  C   UNL     1       8.652  13.200  18.336  0.00  0.00    +0.000 A 
ATOM     13  C   UNL     1       7.635  13.375  17.391  0.00  0.00    +0.000 A 
ATOM     14  C   UNL     1       6.604  14.259  17.673  0.00  0.00    +0.000 A 
ATOM     15  N   UNL     1       6.512  14.966  18.819  0.00  0.00    +0.000 NA
ATOM     16  C   UNL     1       7.497  14.781  19.723  0.00  0.00    +0.000 A 
ATOM     17  C   UNL     1       8.574  13.926  19.530  0.00  0.00    +0.000 A 
ENDBRANCH  11  12
ENDBRANCH   9  11
ENDBRANCH   4   7
BRANCH   1  19
ATOM     18  O   UNL     1       7.135   5.769  15.376  0.00  0.00    +0.000 OA
ATOM     19  C   UNL     1       6.703   6.079  16.484  0.00  0.00    +0.000 C 
BRANCH  19  20
ATOM     20  C   UNL     1       5.364   5.570  16.905  0.00  0.00    +0.000 A 
ATOM     21  C   UNL     1       4.463   6.438  17.535  0.00  0.00    +0.000 A 
ATOM     22  C   UNL     1       3.206   5.972  17.936  0.00  0.00    +0.000 A 
ATOM     23  C   UNL     1       2.858   4.638  17.718  0.00  0.00    +0.000 A 
ATOM     24 CL   UNL     1       1.311   4.065  18.203  0.00  0.00    +0.000 Cl
ATOM     25  C   UNL     1       3.759   3.763  17.115  0.00  0.00    +0.000 A 
ATOM     26  C   UNL     1       5.014   4.224  16.720  0.00  0.00    +0.000 A 
ENDBRANCH  19  20
ENDBRANCH   1  19
TORSDOF 5
ENDMDL
MODEL 4
REMARK VINA RESULT:      -7.8      5.906      8.524
REMARK  Name = 
REMARK  5 active torsions:
REMARK  status: ('A' for Active; 'I' for Inactive)
REMARK    1  A    between atoms: C_2  and  C_3
REMARK    2  A    between atoms: C_2  and  C_10
REMARK    3  A    between atoms: C_13  and  C_14
REMARK    4  A    between atoms: N_16  and  C_17
REMARK    5  A    between atoms: C_17  and  C_18
REMARK                            x       y       z     vdW  Elec       q    Type
REMARK                         _______ _______ _______ _____ _____    ______ ____
ROOT
ATOM      1  C   UNL     1       7.219   6.979  17.394  0.00  0.00    +0.000 A 
ATOM      2  C   UNL     1       7.831   6.478  18.527  0.00  0.00    +0.000 A 
ATOM      3  N   UNL     1       8.568   7.476  19.103  0.00  0.00    +0.000 N 
ATOM      4  C   UNL     1       8.424   8.653  18.396  0.00  0.00    +0.000 A 
ATOM      5  C   UNL     1       7.596   8.357  17.323  0.00  0.00    +0.000 A 
ATOM      6  H   UNL     1       9.124   7.393  19.946  0.00  0.00    +0.000 HD
ENDROOT
BRANCH   4   7
ATOM      7  C   UNL     1       9.059   9.884  18.829  0.00  0.00    +0.000 C 
ATOM      8  O   UNL     1       9.211  10.149  20.015  0.00  0.00    +0.000 OA
ATOM      9  N   UNL     1       9.465  10.721  17.818  0.00  0.00    +0.000 N 
ATOM     10  H   UNL     1       9.345  10.441  16.857  0.00  0.00    +0.000 HD
BRANCH   9  11
ATOM     11  C   UNL     1      10.087  12.004  18.066  0.00  0.00    +0.000 C 
BRANCH  11  12
ATOM     12  C   UNL     1       9.080  13.126  18.039  0.00  0.00    +0.000 A 
ATOM     13  C   UNL     1       9.417  14.394  18.523  0.00  0.00    +0.000 A 
ATOM     14  C   UNL     1       8.478  15.412  18.445  0.00  0.00    +0.000 A 
ATOM     15  N   UNL     1       7.244  15.257  17.920  0.00  0.00    +0.000 NA
ATOM     16  C   UNL     1       6.937  14.029  17.452  0.00  0.00    +0.000 A 
ATOM     17  C   UNL     1       7.805  12.947  17.492  0.00  0.00    +0.000 A 
ENDBRANCH  11  12
ENDBRANCH   9  11
ENDBRANCH   4   7
BRANCH   1  19
ATOM     18  O   UNL     1       6.619   6.014  15.324  0.00  0.00    +0.000 OA
ATOM     19  C   UNL     1       6.350   6.209  16.506  0.00  0.00    +0.000 C 
BRANCH  19  20
ATOM     20  C   UNL     1       5.085   5.644  17.063  0.00  0.00    +0.000 A 
ATOM     21  C   UNL     1       4.109   6.508  17.574  0.00  0.00    +0.000 A 
ATOM     22  C   UNL     1       2.921   5.990  18.100  0.00  0.00    +0.000 A 
ATOM     23  C   UNL     1       2.716   4.610  18.124  0.00  0.00    +0.000 A 
ATOM     24 CL   UNL     1       1.254   3.969  18.763  0.00  0.00    +0.000 Cl
ATOM     25  C   UNL     1       3.693   3.742  17.640  0.00  0.00    +0.000 A 
ATOM     26  C   UNL     1       4.881   4.257  17.121  0.00  0.00    +0.000 A 
ENDBRANCH  19  20
ENDBRANCH   1  19
TORSDOF 5
ENDMDL
MODEL 5
REMARK VINA RESULT:      -7.8      5.782      8.511
REMARK  Name = 
REMARK  5 active torsions:
REMARK  status: ('A' for Active; 'I' for Inactive)
REMARK    1  A    between atoms: C_2  and  C_3
REMARK    2  A    between atoms: C_2  and  C_10
REMARK    3  A    between atoms: C_13  and  C_14
REMARK    4  A    between atoms: N_16  and  C_17
REMARK    5  A    between atoms: C_17  and  C_18
REMARK                            x       y       z     vdW  Elec       q    Type
REMARK                         _______ _______ _______ _____ _____    ______ ____
ROOT
ATOM      1  C   UNL     1       7.197   6.925  17.401  0.00  0.00    +0.000 A 
ATOM      2  C   UNL     1       7.809   6.428  18.536  0.00  0.00    +0.000 A 
ATOM      3  N   UNL     1       8.538   7.431  19.115  0.00  0.00    +0.000 N 
ATOM      4  C   UNL     1       8.389   8.606  18.406  0.00  0.00    +0.000 A 
ATOM      5  C   UNL     1       7.567   8.305  17.331  0.00  0.00    +0.000 A 
ATOM      6  H   UNL     1       9.092   7.351  19.960  0.00  0.00    +0.000 HD
ENDROOT
BRANCH   4   7
ATOM      7  C   UNL     1       9.016   9.842  18.841  0.00  0.00    +0.000 C 
ATOM      8  O   UNL     1       9.203  10.088  20.026  0.00  0.00    +0.000 OA
ATOM      9  N   UNL     1       9.371  10.704  17.833  0.00  0.00    +0.000 N 
ATOM     10  H   UNL     1       9.224  10.439  16.871  0.00  0.00    +0.000 HD
BRANCH   9  11
ATOM     11  C   UNL     1       9.977  11.994  18.083  0.00  0.00    +0.000 C 
BRANCH  11  12
ATOM     12  C   UNL     1       8.939  13.062  18.318  0.00  0.00    +0.000 A 
ATOM     13  C   UNL     1       7.896  13.252  17.405  0.00  0.00    +0.000 A 
ATOM     14  C   UNL     1       6.937  14.217  17.677  0.00  0.00    +0.000 A 
ATOM     15  N   UNL     1       6.941  14.991  18.782  0.00  0.00    +0.000 NA
ATOM     16  C   UNL     1       7.950  14.791  19.655  0.00  0.00    +0.000 A 
ATOM     17  C   UNL     1       8.959  13.856  19.470  0.00  0.00    +0.000 A 
ENDBRANCH  11  12
ENDBRANCH   9  11
ENDBRANCH   4   7
BRANCH   1  19
ATOM     18  O   UNL     1       6.607   5.959  15.329  0.00  0.00    +0.000 OA
ATOM     19  C   UNL     1       6.336   6.150  16.512  0.00  0.00    +0.000 C 
BRANCH  19  20
ATOM     20  C   UNL     1       5.075   5.573  17.066  0.00  0.00    +0.000 A 
ATOM     21  C   UNL     1       4.901   4.183  17.082  0.00  0.00    +0.000 A 
ATOM     22  C   UNL     1       3.722   3.631  17.596  0.00  0.00    +0.000 A 
ATOM     23  C   UNL     1       2.718   4.469  18.082  0.00  0.00    +0.000 A 
ATOM     24 CL   UNL     1       1.272   3.793  18.722  0.00  0.00    +0.000 Cl
ATOM     25  C   UNL     1       2.873   5.853  18.046  0.00  0.00    +0.000 A 
ATOM     26  C   UNL     1       4.045   6.405  17.528  0.00  0.00    +0.000 A 
ENDBRANCH  19  20
ENDBRANCH   1  19
TORSDOF 5
ENDMDL
MODEL 6
REMARK VINA RESULT:      -7.7      0.724      1.498
REMARK  Name = 
REMARK  5 active torsions:
REMARK  status: ('A' for Active; 'I' for Inactive)
REMARK    1  A    between atoms: C_2  and  C_3
REMARK    2  A    between atoms: C_2  and  C_10
REMARK    3  A    between atoms: C_13  and  C_14
REMARK    4  A    between atoms: N_16  and  C_17
REMARK    5  A    between atoms: C_17  and  C_18
REMARK                            x       y       z     vdW  Elec       q    Type
REMARK                         _______ _______ _______ _____ _____    ______ ____
ROOT
ATOM      1  C   UNL     1       1.188   9.231  19.810  0.00  0.00    +0.000 A 
ATOM      2  C   UNL     1       1.095   8.605  21.038  0.00  0.00    +0.000 A 
ATOM      3  N   UNL     1       1.652   7.359  20.937  0.00  0.00    +0.000 N 
ATOM      4  C   UNL     1       2.157   7.158  19.668  0.00  0.00    +0.000 A 
ATOM      5  C   UNL     1       1.867   8.309  18.952  0.00  0.00    +0.000 A 
ATOM      6  H   UNL     1       1.720   6.677  21.683  0.00  0.00    +0.000 HD
ENDROOT
BRANCH   4   7
ATOM      7  C   UNL     1       2.852   5.934  19.312  0.00  0.00    +0.000 C 
ATOM      8  O   UNL     1       3.298   5.174  20.162  0.00  0.00    +0.000 OA
ATOM      9  N   UNL     1       2.975   5.703  17.963  0.00  0.00    +0.000 N 
ATOM     10  H   UNL     1       2.561   6.344  17.304  0.00  0.00    +0.000 HD
BRANCH   9  11
ATOM     11  C   UNL     1       3.665   4.550  17.426  0.00  0.00    +0.000 C 
BRANCH  11  12
ATOM     12  C   UNL     1       4.981   4.932  16.796  0.00  0.00    +0.000 A 
ATOM     13  C   UNL     1       5.841   5.830  17.436  0.00  0.00    +0.000 A 
ATOM     14  C   UNL     1       7.061   6.126  16.845  0.00  0.00    +0.000 A 
ATOM     15  N   UNL     1       7.480   5.591  15.678  0.00  0.00    +0.000 NA
ATOM     16  C   UNL     1       6.641   4.722  15.076  0.00  0.00    +0.000 A 
ATOM     17  C   UNL     1       5.398   4.368  15.585  0.00  0.00    +0.000 A 
ENDBRANCH  11  12
ENDBRANCH   9  11
ENDBRANCH   4   7
BRANCH   1  19
ATOM     18  O   UNL     1       1.360  11.586  19.754  0.00  0.00    +0.000 OA
ATOM     19  C   UNL     1       0.699  10.577  19.521  0.00  0.00    +0.000 C 
BRANCH  19  20
ATOM     20  C   UNL     1      -0.662  10.727  18.924  0.00  0.00    +0.000 A 
ATOM     21  C   UNL     1      -1.007   9.972  17.796  0.00  0.00    +0.000 A 
ATOM     22  C   UNL     1      -2.278  10.105  17.226  0.00  0.00    +0.000 A 
ATOM     23  C   UNL     1      -3.195  11.001  17.778  0.00  0.00    +0.000 A 
ATOM     24 CL   UNL     1      -4.761  11.162  17.084  0.00  0.00    +0.000 Cl
ATOM     25  C   UNL     1      -2.850  11.774  18.884  0.00  0.00    +0.000 A 
ATOM     26  C   UNL     1      -1.582  11.646  19.450  0.00  0.00    +0.000 A 
ENDBRANCH  19  20
ENDBRANCH   1  19
TORSDOF 5
ENDMDL
MODEL 7
REMARK VINA RESULT:      -7.7      0.523      1.116
REMARK  Name = 
REMARK  5 active torsions:
REMARK  status: ('A' for Active; 'I' for Inactive)
REMARK    1  A    between atoms: C_2  and  C_3
REMARK    2  A    between atoms: C_2  and  C_10
REMARK    3  A    between atoms: C_13  and  C_14
REMARK    4  A    between atoms: N_16  and  C_17
REMARK    5  A    between atoms: C_17  and  C_18
REMARK                            x       y       z     vdW  Elec       q    Type
REMARK                         _______ _______ _______ _____ _____    ______ ____
ROOT
ATOM      1  C   UNL     1       1.340   9.282  19.266  0.00  0.00    +0.000 A 
ATOM      2  C   UNL     1       1.251   8.783  20.551  0.00  0.00    +0.000 A 
ATOM      3  N   UNL     1       1.807   7.533  20.575  0.00  0.00    +0.000 N 
ATOM      4  C   UNL     1       2.307   7.203  19.332  0.00  0.00    +0.000 A 
ATOM      5  C   UNL     1       2.015   8.277  18.504  0.00  0.00    +0.000 A 
ATOM      6  H   UNL     1       1.877   6.929  21.386  0.00  0.00    +0.000 HD
ENDROOT
BRANCH   4   7
ATOM      7  C   UNL     1       3.001   5.950  19.098  0.00  0.00    +0.000 C 
ATOM      8  O   UNL     1       3.437   5.272  20.020  0.00  0.00    +0.000 OA
ATOM      9  N   UNL     1       3.134   5.591  17.778  0.00  0.00    +0.000 N 
ATOM     10  H   UNL     1       2.728   6.169  17.058  0.00  0.00    +0.000 HD
BRANCH   9  11
ATOM     11  C   UNL     1       3.824   4.391  17.359  0.00  0.00    +0.000 C 
BRANCH  11  12
ATOM     12  C   UNL     1       5.114   4.710  16.647  0.00  0.00    +0.000 A 
ATOM     13  C   UNL     1       5.288   4.363  15.303  0.00  0.00    +0.000 A 
ATOM     14  C   UNL     1       6.473   4.709  14.670  0.00  0.00    +0.000 A 
ATOM     15  N   UNL     1       7.481   5.373  15.274  0.00  0.00    +0.000 NA
ATOM     16  C   UNL     1       7.296   5.706  16.569  0.00  0.00    +0.000 A 
ATOM     17  C   UNL     1       6.150   5.398  17.289  0.00  0.00    +0.000 A 
ENDBRANCH  11  12
ENDBRANCH   9  11
ENDBRANCH   4   7
BRANCH   1  19
ATOM     18  O   UNL     1       1.583  11.572  18.747  0.00  0.00    +0.000 OA
ATOM     19  C   UNL     1       0.850  10.592  18.844  0.00  0.00    +0.000 C 
BRANCH  19  20
ATOM     20  C   UNL     1      -0.601  10.740  18.524  0.00  0.00    +0.000 A 
ATOM     21  C   UNL     1      -1.205   9.846  17.631  0.00  0.00    +0.000 A 
ATOM     22  C   UNL     1      -2.563   9.976  17.321  0.00  0.00    +0.000 A 
ATOM     23  C   UNL     1      -3.311  11.005  17.895  0.00  0.00    +0.000 A 
ATOM     24 CL   UNL     1      -4.982  11.163  17.523  0.00  0.00    +0.000 Cl
ATOM     25  C   UNL     1      -2.711  11.913  18.766  0.00  0.00    +0.000 A 
ATOM     26  C   UNL     1      -1.356  11.788  19.071  0.00  0.00    +0.000 A 
ENDBRANCH  19  20
ENDBRANCH   1  19
TORSDOF 5
ENDMDL
MODEL 8
REMARK VINA RESULT:      -7.6      0.985      1.482
REMARK  Name = 
REMARK  5 active torsions:
REMARK  status: ('A' for Active; 'I' for Inactive)
REMARK    1  A    between atoms: C_2  and  C_3
REMARK    2  A    between atoms: C_2  and  C_10
REMARK    3  A    between atoms: C_13  and  C_14
REMARK    4  A    between atoms: N_16  and  C_17
REMARK    5  A    between atoms: C_17  and  C_18
REMARK                            x       y       z     vdW  Elec       q    Type
REMARK                         _______ _______ _______ _____ _____    ______ ____
ROOT
ATOM      1  C   UNL     1       1.241   9.448  19.163  0.00  0.00    +0.000 A 
ATOM      2  C   UNL     1       1.894   9.503  17.947  0.00  0.00    +0.000 A 
ATOM      3  N   UNL     1       2.602   8.345  17.778  0.00  0.00    +0.000 N 
ATOM      4  C   UNL     1       2.400   7.495  18.846  0.00  0.00    +0.000 A 
ATOM      5  C   UNL     1       1.564   8.171  19.721  0.00  0.00    +0.000 A 
ATOM      6  H   UNL     1       3.178   8.112  16.977  0.00  0.00    +0.000 HD
ENDROOT
BRANCH   4   7
ATOM      7  C   UNL     1       2.995   6.171  18.889  0.00  0.00    +0.000 C 
ATOM      8  O   UNL     1       3.393   5.677  19.936  0.00  0.00    +0.000 OA
ATOM      9  N   UNL     1       3.084   5.529  17.678  0.00  0.00    +0.000 N 
ATOM     10  H   UNL     1       2.713   5.968  16.849  0.00  0.00    +0.000 HD
BRANCH   9  11
ATOM     11  C   UNL     1       3.678   4.219  17.528  0.00  0.00    +0.000 C 
BRANCH  11  12
ATOM     12  C   UNL     1       5.110   4.306  17.063  0.00  0.00    +0.000 A 
ATOM     13  C   UNL     1       5.420   4.236  15.701  0.00  0.00    +0.000 A 
ATOM     14  C   UNL     1       6.745   4.361  15.308  0.00  0.00    +0.000 A 
ATOM     15  N   UNL     1       7.768   4.553  16.167  0.00  0.00    +0.000 NA
ATOM     16  C   UNL     1       7.452   4.623  17.477  0.00  0.00    +0.000 A 
ATOM     17  C   UNL     1       6.159   4.504  17.968  0.00  0.00    +0.000 A 
ENDBRANCH  11  12
ENDBRANCH   9  11
ENDBRANCH   4   7
BRANCH   1  19
ATOM     18  O   UNL     1       0.712  11.196  20.660  0.00  0.00    +0.000 OA
ATOM     19  C   UNL     1       0.385  10.504  19.699  0.00  0.00    +0.000 C 
BRANCH  19  20
ATOM     20  C   UNL     1      -0.938  10.745  19.052  0.00  0.00    +0.000 A 
ATOM     21  C   UNL     1      -1.305   9.993  17.929  0.00  0.00    +0.000 A 
ATOM     22  C   UNL     1      -2.542  10.212  17.313  0.00  0.00    +0.000 A 
ATOM     23  C   UNL     1      -3.403  11.189  17.813  0.00  0.00    +0.000 A 
ATOM     24 CL   UNL     1      -4.928  11.455  17.062  0.00  0.00    +0.000 Cl
ATOM     25  C   UNL     1      -3.035  11.959  18.914  0.00  0.00    +0.000 A 
ATOM     26  C   UNL     1      -1.800  11.745  19.526  0.00  0.00    +0.000 A 
ENDBRANCH  19  20
ENDBRANCH   1  19
TORSDOF 5
ENDMDL
MODEL 9
REMARK VINA RESULT:      -7.6      3.799      8.976
REMARK  Name = 
REMARK  5 active torsions:
REMARK  status: ('A' for Active; 'I' for Inactive)
REMARK    1  A    between atoms: C_2  and  C_3
REMARK    2  A    between atoms: C_2  and  C_10
REMARK    3  A    between atoms: C_13  and  C_14
REMARK    4  A    between atoms: N_16  and  C_17
REMARK    5  A    between atoms: C_17  and  C_18
REMARK                            x       y       z     vdW  Elec       q    Type
REMARK                         _______ _______ _______ _____ _____    ______ ____
ROOT
ATOM      1  C   UNL     1       3.842   5.476  18.544  0.00  0.00    +0.000 A 
ATOM      2  C   UNL     1       3.300   5.588  19.810  0.00  0.00    +0.000 A 
ATOM      3  N   UNL     1       2.600   6.761  19.885  0.00  0.00    +0.000 N 
ATOM      4  C   UNL     1       2.630   7.419  18.672  0.00  0.00    +0.000 A 
ATOM      5  C   UNL     1       3.408   6.637  17.831  0.00  0.00    +0.000 A 
ATOM      6  H   UNL     1       2.100   7.104  20.697  0.00  0.00    +0.000 HD
ENDROOT
BRANCH   4   7
ATOM      7  C   UNL     1       1.916   8.666  18.464  0.00  0.00    +0.000 C 
ATOM      8  O   UNL     1       2.066   9.334  17.450  0.00  0.00    +0.000 OA
ATOM      9  N   UNL     1       1.076   9.036  19.486  0.00  0.00    +0.000 N 
ATOM     10  H   UNL     1       0.964   8.434  20.287  0.00  0.00    +0.000 HD
BRANCH   9  11
ATOM     11  C   UNL     1       0.310  10.264  19.464  0.00  0.00    +0.000 C 
BRANCH  11  12
ATOM     12  C   UNL     1      -0.198  10.628  20.836  0.00  0.00    +0.000 A 
ATOM     13  C   UNL     1      -0.816  11.863  21.059  0.00  0.00    +0.000 A 
ATOM     14  C   UNL     1      -1.308  12.146  22.325  0.00  0.00    +0.000 A 
ATOM     15  N   UNL     1      -1.233  11.293  23.369  0.00  0.00    +0.000 NA
ATOM     16  C   UNL     1      -0.639  10.104  23.135  0.00  0.00    +0.000 A 
ATOM     17  C   UNL     1      -0.111   9.732  21.907  0.00  0.00    +0.000 A 
ENDBRANCH  11  12
ENDBRANCH   9  11
ENDBRANCH   4   7
BRANCH   1  19
ATOM     18  O   UNL     1       4.743   3.300  18.702  0.00  0.00    +0.000 OA
ATOM     19  C   UNL     1       4.661   4.358  18.084  0.00  0.00    +0.000 C 
BRANCH  19  20
ATOM     20  C   UNL     1       5.430   4.514  16.813  0.00  0.00    +0.000 A 
ATOM     21  C   UNL     1       6.698   5.105  16.842  0.00  0.00    +0.000 A 
ATOM     22  C   UNL     1       7.427   5.259  15.657  0.00  0.00    +0.000 A 
ATOM     23  C   UNL     1       6.880   4.832  14.446  0.00  0.00    +0.000 A 
ATOM     24 CL   UNL     1       7.776   5.013  12.989  0.00  0.00    +0.000 Cl
ATOM     25  C   UNL     1       5.608   4.266  14.406  0.00  0.00    +0.000 A 
ATOM     26  C   UNL     1       4.878   4.118  15.585  0.00  0.00    +0.000 A 
ENDBRANCH  19  20
ENDBRANCH   1  19
TORSDOF 5
ENDMDL
