MODEL 1
REMARK VINA RESULT:      -8.0      0.000      0.000
REMARK  Name = 
REMARK  5 active torsions:
REMARK  status: ('A' for Active; 'I' for Inactive)
REMARK    1  A    between atoms: C_1  and  C_2
REMARK    2  A    between atoms: C_2  and  C_3
REMARK    3  A    between atoms: C_3  and  O_4
REMARK    4  A    between atoms: C_25  and  N_26
REMARK    5  A    between atoms: C_28  and  C_29
REMARK                            x       y       z     vdW  Elec       q    Type
REMARK                         _______ _______ _______ _____ _____    ______ ____
ROOT
ATOM      1  C   UNL     1       4.385   4.876  17.074  0.00  0.00    +0.000 C 
ATOM      2  C   UNL     1       3.214   3.855  17.470  0.00  0.00    +0.000 C 
ATOM      3  C   UNL     1       3.469   3.072  18.719  0.00  0.00    +0.000 C 
ATOM      4  O   UNL     1       3.887   1.921  18.716  0.00  0.00    +0.000 OA
ATOM      5  O   UNL     1       3.131   3.730  19.844  0.00  0.00    +0.000 OA
ATOM      6  C   UNL     1       3.841   4.952  20.011  0.00  0.00    +0.000 C 
ATOM      7  C   UNL     1       3.397   6.057  19.078  0.00  0.00    +0.000 A 
ATOM      8  C   UNL     1       3.805   6.296  17.785  0.00  0.00    +0.000 A 
ATOM      9  C   UNL     1       3.580   7.804  17.379  0.00  0.00    +0.000 A 
ATOM     10  C   UNL     1       2.729   8.650  18.090  0.00  0.00    +0.000 A 
ATOM     11  N   UNL     1       1.995   8.015  19.078  0.00  0.00    +0.000 N 
ATOM     12  C   UNL     1       2.264   6.806  19.636  0.00  0.00    +0.000 A 
ATOM     13  O   UNL     1       1.550   6.334  20.517  0.00  0.00    +0.000 OA
ATOM     14  C   UNL     1       0.880   8.742  19.600  0.00  0.00    +0.000 C 
ATOM     15  C   UNL     1       1.043  10.099  19.035  0.00  0.00    +0.000 A 
ATOM     16  C   UNL     1       2.179  10.151  18.230  0.00  0.00    +0.000 A 
ATOM     17  N   UNL     1       2.646  11.385  17.927  0.00  0.00    +0.000 NA
ATOM     18  C   UNL     1       1.900  12.530  18.343  0.00  0.00    +0.000 A 
ATOM     19  C   UNL     1       2.409  13.825  18.120  0.00  0.00    +0.000 A 
ATOM     20  C   UNL     1       1.737  15.031  18.415  0.00  0.00    +0.000 A 
ATOM     21  C   UNL     1       0.467  15.001  18.949  0.00  0.00    +0.000 A 
ATOM     22  C   UNL     1      -0.101  13.766  19.275  0.00  0.00    +0.000 A 
ATOM     23  C   UNL     1       0.624  12.507  19.018  0.00  0.00    +0.000 A 
ATOM     24  C   UNL     1       0.212  11.199  19.385  0.00  0.00    +0.000 A 
ATOM     25  C   UNL     1      -1.001  10.854  20.214  0.00  0.00    +0.000 C 
ENDROOT
BRANCH  22  26
ATOM     26  N   UNL     1      -1.426  13.847  19.784  0.00  0.00    +0.000 N 
ATOM     27  H   UNL     1      -2.068  14.372  19.192  0.00  0.00    +0.000 HD
ATOM     28  H   UNL     1      -1.475  14.221  20.726  0.00  0.00    +0.000 HD
ENDBRANCH  22  26
BRANCH   1  30
ATOM     29  C   UNL     1       5.816   4.659  14.656  0.00  0.00    +0.000 C 
ATOM     30  C   UNL     1       4.691   4.251  15.619  0.00  0.00    +0.000 C 
ENDBRANCH   1  30
BRANCH   1  31
ATOM     31  O   UNL     1       5.607   4.583  17.792  0.00  0.00    +0.000 OA
ATOM     32  H   UNL     1       6.148   3.955  17.274  0.00  0.00    +0.000 HD
ENDBRANCH   1  31
TORSDOF 3
ENDMDL
MODEL 2
REMARK VINA RESULT:      -7.6      3.189      8.519
REMARK  Name = 
REMARK  5 active torsions:
REMARK  status: ('A' for Active; 'I' for Inactive)
REMARK    1  A    between atoms: C_1  and  C_2
REMARK    2  A    between atoms: C_2  and  C_3
REMARK    3  A    between atoms: C_3  and  O_4
REMARK    4  A    between atoms: C_25  and  N_26
REMARK    5  A    between atoms: C_28  and  C_29
REMARK                            x       y       z     vdW  Elec       q    Type
REMARK                         _______ _______ _______ _____ _____    ______ ____
ROOT
ATOM      1  C   UNL     1       1.387  12.540  18.571  0.00  0.00    +0.000 C 
ATOM      2  C   UNL     1       1.340  12.974  20.114  0.00  0.00    +0.000 C 
ATOM      3  C   UNL     1      -0.030  13.286  20.630  0.00  0.00    +0.000 C 
ATOM      4  O   UNL     1      -0.462  14.426  20.740  0.00  0.00    +0.000 OA
ATOM      5  O   UNL     1      -0.716  12.197  21.025  0.00  0.00    +0.000 OA
ATOM      6  C   UNL     1      -0.911  11.250  19.979  0.00  0.00    +0.000 C 
ATOM      7  C   UNL     1       0.337  10.485  19.599  0.00  0.00    +0.000 A 
ATOM      8  C   UNL     1       1.333  10.858  18.725  0.00  0.00    +0.000 A 
ATOM      9  C   UNL     1       2.113   9.603  18.169  0.00  0.00    +0.000 A 
ATOM     10  C   UNL     1       2.054   8.354  18.787  0.00  0.00    +0.000 A 
ATOM     11  N   UNL     1       1.382   8.352  19.997  0.00  0.00    +0.000 N 
ATOM     12  C   UNL     1       0.515   9.298  20.445  0.00  0.00    +0.000 A 
ATOM     13  O   UNL     1      -0.037   9.195  21.538  0.00  0.00    +0.000 OA
ATOM     14  C   UNL     1       1.579   7.203  20.826  0.00  0.00    +0.000 C 
ATOM     15  C   UNL     1       2.293   6.250  19.948  0.00  0.00    +0.000 A 
ATOM     16  C   UNL     1       2.501   6.816  18.692  0.00  0.00    +0.000 A 
ATOM     17  N   UNL     1       2.825   5.962  17.693  0.00  0.00    +0.000 NA
ATOM     18  C   UNL     1       3.042   4.584  18.002  0.00  0.00    +0.000 A 
ATOM     19  C   UNL     1       3.291   3.658  16.968  0.00  0.00    +0.000 A 
ATOM     20  C   UNL     1       3.593   2.291  17.149  0.00  0.00    +0.000 A 
ATOM     21  C   UNL     1       3.685   1.767  18.420  0.00  0.00    +0.000 A 
ATOM     22  C   UNL     1       3.385   2.585  19.512  0.00  0.00    +0.000 A 
ATOM     23  C   UNL     1       3.015   4.000  19.322  0.00  0.00    +0.000 A 
ATOM     24  C   UNL     1       2.595   4.912  20.325  0.00  0.00    +0.000 A 
ATOM     25  C   UNL     1       2.337   4.575  21.773  0.00  0.00    +0.000 C 
ENDROOT
BRANCH  22  26
ATOM     26  N   UNL     1       3.547   1.954  20.778  0.00  0.00    +0.000 N 
ATOM     27  H   UNL     1       4.504   1.958  21.125  0.00  0.00    +0.000 HD
ATOM     28  H   UNL     1       3.196   1.003  20.803  0.00  0.00    +0.000 HD
ENDBRANCH  22  26
BRANCH   1  30
ATOM     29  C   UNL     1       2.373  15.180  18.531  0.00  0.00    +0.000 C 
ATOM     30  C   UNL     1       2.382  13.711  18.081  0.00  0.00    +0.000 C 
ENDBRANCH   1  30
BRANCH   1  31
ATOM     31  O   UNL     1       0.157  12.883  17.888  0.00  0.00    +0.000 OA
ATOM     32  H   UNL     1       0.146  13.841  17.695  0.00  0.00    +0.000 HD
ENDBRANCH   1  31
TORSDOF 3
ENDMDL
MODEL 3
REMARK VINA RESULT:      -7.6      2.961      8.375
REMARK  Name = 
REMARK  5 active torsions:
REMARK  status: ('A' for Active; 'I' for Inactive)
REMARK    1  A    between atoms: C_1  and  C_2
REMARK    2  A    between atoms: C_2  and  C_3
REMARK    3  A    between atoms: C_3  and  O_4
REMARK    4  A    between atoms: C_25  and  N_26
REMARK    5  A    between atoms: C_28  and  C_29
REMARK                            x       y       z     vdW  Elec       q    Type
REMARK                         _______ _______ _______ _____ _____    ______ ____
ROOT
ATOM      1  C   UNL     1       0.486  13.273  18.878  0.00  0.00    +0.000 C 
ATOM      2  C   UNL     1       0.096  13.237  20.433  0.00  0.00    +0.000 C 
ATOM      3  C   UNL     1      -1.367  13.073  20.702  0.00  0.00    +0.000 C 
ATOM      4  O   UNL     1      -2.107  14.008  20.979  0.00  0.00    +0.000 OA
ATOM      5  O   UNL     1      -1.776  11.790  20.679  0.00  0.00    +0.000 OA
ATOM      6  C   UNL     1      -1.548  11.154  19.426  0.00  0.00    +0.000 C 
ATOM      7  C   UNL     1      -0.096  10.830  19.155  0.00  0.00    +0.000 A 
ATOM      8  C   UNL     1       0.876  11.648  18.624  0.00  0.00    +0.000 A 
ATOM      9  C   UNL     1       2.043  10.809  17.973  0.00  0.00    +0.000 A 
ATOM     10  C   UNL     1       2.241   9.459  18.257  0.00  0.00    +0.000 A 
ATOM     11  N   UNL     1       1.426   8.966  19.262  0.00  0.00    +0.000 N 
ATOM     12  C   UNL     1       0.277   9.527  19.721  0.00  0.00    +0.000 A 
ATOM     13  O   UNL     1      -0.380   9.001  20.617  0.00  0.00    +0.000 OA
ATOM     14  C   UNL     1       1.809   7.708  19.825  0.00  0.00    +0.000 C 
ATOM     15  C   UNL     1       2.878   7.226  18.924  0.00  0.00    +0.000 A 
ATOM     16  C   UNL     1       3.103   8.151  17.907  0.00  0.00    +0.000 A 
ATOM     17  N   UNL     1       3.793   7.707  16.831  0.00  0.00    +0.000 NA
ATOM     18  C   UNL     1       4.333   6.384  16.851  0.00  0.00    +0.000 A 
ATOM     19  C   UNL     1       4.976   5.864  15.709  0.00  0.00    +0.000 A 
ATOM     20  C   UNL     1       5.613   4.608  15.629  0.00  0.00    +0.000 A 
ATOM     21  C   UNL     1       5.659   3.785  16.734  0.00  0.00    +0.000 A 
ATOM     22  C   UNL     1       4.989   4.176  17.896  0.00  0.00    +0.000 A 
ATOM     23  C   UNL     1       4.275   5.466  17.964  0.00  0.00    +0.000 A 
ATOM     24  C   UNL     1       3.477   5.942  19.037  0.00  0.00    +0.000 A 
ATOM     25  C   UNL     1       3.113   5.165  20.278  0.00  0.00    +0.000 C 
ENDROOT
BRANCH  22  26
ATOM     26  N   UNL     1       5.130   3.272  18.986  0.00  0.00    +0.000 N 
ATOM     27  H   UNL     1       4.612   2.402  18.875  0.00  0.00    +0.000 HD
ATOM     28  H   UNL     1       4.891   3.680  19.882  0.00  0.00    +0.000 HD
ENDBRANCH  22  26
BRANCH   1  30
ATOM     29  C   UNL     1       2.616  15.073  18.470  0.00  0.00    +0.000 C 
ATOM     30  C   UNL     1       1.180  14.728  18.896  0.00  0.00    +0.000 C 
ENDBRANCH   1  30
BRANCH   1  31
ATOM     31  O   UNL     1      -0.677  13.503  18.047  0.00  0.00    +0.000 OA
ATOM     32  H   UNL     1      -1.300  14.095  18.512  0.00  0.00    +0.000 HD
ENDBRANCH   1  31
TORSDOF 3
ENDMDL
MODEL 4
REMARK VINA RESULT:      -7.6      1.246      1.447
REMARK  Name = 
REMARK  5 active torsions:
REMARK  status: ('A' for Active; 'I' for Inactive)
REMARK    1  A    between atoms: C_1  and  C_2
REMARK    2  A    between atoms: C_2  and  C_3
REMARK    3  A    between atoms: C_3  and  O_4
REMARK    4  A    between atoms: C_25  and  N_26
REMARK    5  A    between atoms: C_28  and  C_29
REMARK                            x       y       z     vdW  Elec       q    Type
REMARK                         _______ _______ _______ _____ _____    ______ ____
ROOT
ATOM      1  C   UNL     1       3.185   5.155  18.094  0.00  0.00    +0.000 C 
ATOM      2  C   UNL     1       1.815   4.410  18.468  0.00  0.00    +0.000 C 
ATOM      3  C   UNL     1       1.817   3.746  19.809  0.00  0.00    +0.000 C 
ATOM      4  O   UNL     1       2.012   2.548  19.965  0.00  0.00    +0.000 OA
ATOM      5  O   UNL     1       1.515   4.581  20.821  0.00  0.00    +0.000 OA
ATOM      6  C   UNL     1       2.424   5.670  20.937  0.00  0.00    +0.000 C 
ATOM      7  C   UNL     1       2.272   6.718  19.857  0.00  0.00    +0.000 A 
ATOM      8  C   UNL     1       2.823   6.729  18.595  0.00  0.00    +0.000 A 
ATOM      9  C   UNL     1       2.917   8.195  18.019  0.00  0.00    +0.000 A 
ATOM     10  C   UNL     1       2.183   9.254  18.550  0.00  0.00    +0.000 A 
ATOM     11  N   UNL     1       1.265   8.879  19.516  0.00  0.00    +0.000 N 
ATOM     12  C   UNL     1       1.256   7.715  20.218  0.00  0.00    +0.000 A 
ATOM     13  O   UNL     1       0.396   7.483  21.064  0.00  0.00    +0.000 OA
ATOM     14  C   UNL     1       0.264   9.847  19.846  0.00  0.00    +0.000 C 
ATOM     15  C   UNL     1       0.724  11.078  19.166  0.00  0.00    +0.000 A 
ATOM     16  C   UNL     1       1.913  10.835  18.481  0.00  0.00    +0.000 A 
ATOM     17  N   UNL     1       2.624  11.923  18.105  0.00  0.00    +0.000 NA
ATOM     18  C   UNL     1       2.073  13.222  18.326  0.00  0.00    +0.000 A 
ATOM     19  C   UNL     1       2.831  14.373  18.027  0.00  0.00    +0.000 A 
ATOM     20  C   UNL     1       2.373  15.704  18.129  0.00  0.00    +0.000 A 
ATOM     21  C   UNL     1       1.080  15.961  18.530  0.00  0.00    +0.000 A 
ATOM     22  C   UNL     1       0.267  14.892  18.918  0.00  0.00    +0.000 A 
ATOM     23  C   UNL     1       0.763  13.503  18.865  0.00  0.00    +0.000 A 
ATOM     24  C   UNL     1       0.087  12.341  19.317  0.00  0.00    +0.000 A 
ATOM     25  C   UNL     1      -1.234  12.315  20.047  0.00  0.00    +0.000 C 
ENDROOT
BRANCH  22  26
ATOM     26  N   UNL     1      -1.058  15.265  19.278  0.00  0.00    +0.000 N 
ATOM     27  H   UNL     1      -1.668  14.477  19.489  0.00  0.00    +0.000 HD
ATOM     28  H   UNL     1      -1.513  15.853  18.589  0.00  0.00    +0.000 HD
ENDBRANCH  22  26
BRANCH   1  30
ATOM     29  C   UNL     1       4.856   4.101  16.085  0.00  0.00    +0.000 C 
ATOM     30  C   UNL     1       3.488   4.320  16.748  0.00  0.00    +0.000 C 
ENDBRANCH   1  30
BRANCH   1  31
ATOM     31  O   UNL     1       4.268   4.738  18.959  0.00  0.00    +0.000 OA
ATOM     32  H   UNL     1       4.380   3.769  18.899  0.00  0.00    +0.000 HD
ENDBRANCH   1  31
TORSDOF 3
ENDMDL
MODEL 5
REMARK VINA RESULT:      -7.5      3.339      8.971
REMARK  Name = 
REMARK  5 active torsions:
REMARK  status: ('A' for Active; 'I' for Inactive)
REMARK    1  A    between atoms: C_1  and  C_2
REMARK    2  A    between atoms: C_2  and  C_3
REMARK    3  A    between atoms: C_3  and  O_4
REMARK    4  A    between atoms: C_25  and  N_26
REMARK    5  A    between atoms: C_28  and  C_29
REMARK                            x       y       z     vdW  Elec       q    Type
REMARK                         _______ _______ _______ _____ _____    ______ ____
ROOT
ATOM      1  C   UNL     1      -1.235  12.413  20.123  0.00  0.00    +0.000 C 
ATOM      2  C   UNL     1      -1.043  13.044  18.662  0.00  0.00    +0.000 C 
ATOM      3  C   UNL     1      -0.088  14.195  18.604  0.00  0.00    +0.000 C 
ATOM      4  O   UNL     1      -0.448  15.366  18.594  0.00  0.00    +0.000 OA
ATOM      5  O   UNL     1       1.200  13.819  18.495  0.00  0.00    +0.000 OA
ATOM      6  C   UNL     1       1.641  13.016  19.585  0.00  0.00    +0.000 C 
ATOM      7  C   UNL     1       1.095  11.606  19.572  0.00  0.00    +0.000 A 
ATOM      8  C   UNL     1      -0.109  11.153  20.062  0.00  0.00    +0.000 A 
ATOM      9  C   UNL     1      -0.057   9.609  20.385  0.00  0.00    +0.000 A 
ATOM     10  C   UNL     1       0.932   8.772  19.870  0.00  0.00    +0.000 A 
ATOM     11  N   UNL     1       1.761   9.378  18.942  0.00  0.00    +0.000 N 
ATOM     12  C   UNL     1       1.934  10.714  18.761  0.00  0.00    +0.000 A 
ATOM     13  O   UNL     1       2.706  11.150  17.910  0.00  0.00    +0.000 OA
ATOM     14  C   UNL     1       2.558   8.502  18.141  0.00  0.00    +0.000 C 
ATOM     15  C   UNL     1       2.382   7.179  18.779  0.00  0.00    +0.000 A 
ATOM     16  C   UNL     1       1.531   7.283  19.877  0.00  0.00    +0.000 A 
ATOM     17  N   UNL     1       1.546   6.249  20.750  0.00  0.00    +0.000 NA
ATOM     18  C   UNL     1       2.327   5.094  20.443  0.00  0.00    +0.000 A 
ATOM     19  C   UNL     1       2.434   4.043  21.377  0.00  0.00    +0.000 A 
ATOM     20  C   UNL     1       3.109   2.822  21.163  0.00  0.00    +0.000 A 
ATOM     21  C   UNL     1       3.719   2.573  19.952  0.00  0.00    +0.000 A 
ATOM     22  C   UNL     1       3.734   3.580  18.983  0.00  0.00    +0.000 A 
ATOM     23  C   UNL     1       3.074   4.878  19.226  0.00  0.00    +0.000 A 
ATOM     24  C   UNL     1       3.095   6.015  18.378  0.00  0.00    +0.000 A 
ATOM     25  C   UNL     1       3.894   6.153  17.105  0.00  0.00    +0.000 C 
ENDROOT
BRANCH  22  26
ATOM     26  N   UNL     1       4.356   3.206  17.759  0.00  0.00    +0.000 N 
ATOM     27  H   UNL     1       4.056   3.755  16.956  0.00  0.00    +0.000 HD
ATOM     28  H   UNL     1       4.251   2.223  17.538  0.00  0.00    +0.000 HD
ENDBRANCH  22  26
BRANCH   1  30
ATOM     29  C   UNL     1      -3.663  12.806  21.499  0.00  0.00    +0.000 C 
ATOM     30  C   UNL     1      -2.827  12.652  20.219  0.00  0.00    +0.000 C 
ENDBRANCH   1  30
BRANCH   1  31
ATOM     31  O   UNL     1      -0.733  13.299  21.152  0.00  0.00    +0.000 OA
ATOM     32  H   UNL     1      -1.433  13.930  21.410  0.00  0.00    +0.000 HD
ENDBRANCH   1  31
TORSDOF 3
ENDMDL
MODEL 6
REMARK VINA RESULT:      -7.1      7.639      8.168
REMARK  Name = 
REMARK  5 active torsions:
REMARK  status: ('A' for Active; 'I' for Inactive)
REMARK    1  A    between atoms: C_1  and  C_2
REMARK    2  A    between atoms: C_2  and  C_3
REMARK    3  A    between atoms: C_3  and  O_4
REMARK    4  A    between atoms: C_25  and  N_26
REMARK    5  A    between atoms: C_28  and  C_29
REMARK                            x       y       z     vdW  Elec       q    Type
REMARK                         _______ _______ _______ _____ _____    ______ ____
ROOT
ATOM      1  C   UNL     1       9.083  13.702  18.575  0.00  0.00    +0.000 C 
ATOM      2  C   UNL     1       8.979  12.581  19.717  0.00  0.00    +0.000 C 
ATOM      3  C   UNL     1       9.664  12.937  20.999  0.00  0.00    +0.000 C 
ATOM      4  O   UNL     1      10.778  12.530  21.300  0.00  0.00    +0.000 OA
ATOM      5  O   UNL     1       8.908  13.691  21.820  0.00  0.00    +0.000 OA
ATOM      6  C   UNL     1       8.522  14.932  21.239  0.00  0.00    +0.000 C 
ATOM      7  C   UNL     1       7.463  14.809  20.167  0.00  0.00    +0.000 A 
ATOM      8  C   UNL     1       7.632  14.532  18.829  0.00  0.00    +0.000 A 
ATOM      9  C   UNL     1       6.413  15.054  17.973  0.00  0.00    +0.000 A 
ATOM     10  C   UNL     1       5.185  15.382  18.545  0.00  0.00    +0.000 A 
ATOM     11  N   UNL     1       5.084  15.067  19.890  0.00  0.00    +0.000 N 
ATOM     12  C   UNL     1       6.112  14.824  20.744  0.00  0.00    +0.000 A 
ATOM     13  O   UNL     1       5.914  14.560  21.927  0.00  0.00    +0.000 OA
ATOM     14  C   UNL     1       3.764  15.060  20.439  0.00  0.00    +0.000 C 
ATOM     15  C   UNL     1       2.932  15.656  19.371  0.00  0.00    +0.000 A 
ATOM     16  C   UNL     1       3.721  15.980  18.270  0.00  0.00    +0.000 A 
ATOM     17  N   UNL     1       3.178  16.831  17.369  0.00  0.00    +0.000 NA
ATOM     18  C   UNL     1       1.820  17.244  17.536  0.00  0.00    +0.000 A 
ATOM     19  C   UNL     1       1.258  18.199  16.665  0.00  0.00    +0.000 A 
ATOM     20  C   UNL     1      -0.085  18.631  16.679  0.00  0.00    +0.000 A 
ATOM     21  C   UNL     1      -0.973  18.094  17.587  0.00  0.00    +0.000 A 
ATOM     22  C   UNL     1      -0.500  17.192  18.543  0.00  0.00    +0.000 A 
ATOM     23  C   UNL     1       0.918  16.781  18.564  0.00  0.00    +0.000 A 
ATOM     24  C   UNL     1       1.550  15.955  19.529  0.00  0.00    +0.000 A 
ATOM     25  C   UNL     1       0.914  15.426  20.791  0.00  0.00    +0.000 C 
ENDROOT
BRANCH  22  26
ATOM     26  N   UNL     1      -1.504  16.672  19.406  0.00  0.00    +0.000 N 
ATOM     27  H   UNL     1      -1.353  16.878  20.392  0.00  0.00    +0.000 HD
ATOM     28  H   UNL     1      -1.650  15.674  19.301  0.00  0.00    +0.000 HD
ENDBRANCH  22  26
BRANCH   1  30
ATOM     29  C   UNL     1      11.060  11.910  17.669  0.00  0.00    +0.000 C 
ATOM     30  C   UNL     1       9.806  12.775  17.471  0.00  0.00    +0.000 C 
ENDBRANCH   1  30
BRANCH   1  31
ATOM     31  O   UNL     1      10.114  14.672  18.878  0.00  0.00    +0.000 OA
ATOM     32  H   UNL     1      10.339  14.624  19.828  0.00  0.00    +0.000 HD
ENDBRANCH   1  31
TORSDOF 3
ENDMDL
MODEL 7
REMARK VINA RESULT:      -6.9      3.779      9.178
REMARK  Name = 
REMARK  5 active torsions:
REMARK  status: ('A' for Active; 'I' for Inactive)
REMARK    1  A    between atoms: C_1  and  C_2
REMARK    2  A    between atoms: C_2  and  C_3
REMARK    3  A    between atoms: C_3  and  O_4
REMARK    4  A    between atoms: C_25  and  N_26
REMARK    5  A    between atoms: C_28  and  C_29
REMARK                            x       y       z     vdW  Elec       q    Type
REMARK                         _______ _______ _______ _____ _____    ______ ____
ROOT
ATOM      1  C   UNL     1      -1.888  12.580  21.994  0.00  0.00    +0.000 C 
ATOM      2  C   UNL     1      -1.926  13.507  20.686  0.00  0.00    +0.000 C 
ATOM      3  C   UNL     1      -1.062  14.727  20.765  0.00  0.00    +0.000 C 
ATOM      4  O   UNL     1      -1.494  15.838  21.041  0.00  0.00    +0.000 OA
ATOM      5  O   UNL     1       0.223  14.497  20.435  0.00  0.00    +0.000 OA
ATOM      6  C   UNL     1       0.851  13.533  21.275  0.00  0.00    +0.000 C 
ATOM      7  C   UNL     1       0.399  12.111  21.027  0.00  0.00    +0.000 A 
ATOM      8  C   UNL     1      -0.701  11.464  21.543  0.00  0.00    +0.000 A 
ATOM      9  C   UNL     1      -0.510   9.898  21.527  0.00  0.00    +0.000 A 
ATOM     10  C   UNL     1       0.456   9.272  20.740  0.00  0.00    +0.000 A 
ATOM     11  N   UNL     1       1.120  10.124  19.873  0.00  0.00    +0.000 N 
ATOM     12  C   UNL     1       1.183  11.479  19.958  0.00  0.00    +0.000 A 
ATOM     13  O   UNL     1       1.809  12.144  19.138  0.00  0.00    +0.000 OA
ATOM     14  C   UNL     1       1.862   9.501  18.821  0.00  0.00    +0.000 C 
ATOM     15  C   UNL     1       1.855   8.067  19.182  0.00  0.00    +0.000 A 
ATOM     16  C   UNL     1       1.146   7.872  20.366  0.00  0.00    +0.000 A 
ATOM     17  N   UNL     1       1.339   6.690  20.996  0.00  0.00    +0.000 NA
ATOM     18  C   UNL     1       2.147   5.693  20.367  0.00  0.00    +0.000 A 
ATOM     19  C   UNL     1       2.439   4.490  21.041  0.00  0.00    +0.000 A 
ATOM     20  C   UNL     1       3.158   3.403  20.501  0.00  0.00    +0.000 A 
ATOM     21  C   UNL     1       3.622   3.457  19.204  0.00  0.00    +0.000 A 
ATOM     22  C   UNL     1       3.448   4.636  18.473  0.00  0.00    +0.000 A 
ATOM     23  C   UNL     1       2.744   5.794  19.056  0.00  0.00    +0.000 A 
ATOM     24  C   UNL     1       2.583   7.075  18.469  0.00  0.00    +0.000 A 
ATOM     25  C   UNL     1       3.202   7.537  17.172  0.00  0.00    +0.000 C 
ENDROOT
BRANCH  22  26
ATOM     26  N   UNL     1       3.931   4.572  17.137  0.00  0.00    +0.000 N 
ATOM     27  H   UNL     1       3.250   4.854  16.434  0.00  0.00    +0.000 HD
ATOM     28  H   UNL     1       4.300   3.662  16.883  0.00  0.00    +0.000 HD
ENDBRANCH  22  26
BRANCH   1  30
ATOM     29  C   UNL     1      -4.605  12.896  21.313  0.00  0.00    +0.000 C 
ATOM     30  C   UNL     1      -3.467  12.653  22.316  0.00  0.00    +0.000 C 
ENDBRANCH   1  30
BRANCH   1  31
ATOM     31  O   UNL     1      -1.317  13.283  23.123  0.00  0.00    +0.000 OA
ATOM     32  H   UNL     1      -0.354  13.122  23.156  0.00  0.00    +0.000 HD
ENDBRANCH   1  31
TORSDOF 3
ENDMDL
MODEL 8
REMARK VINA RESULT:      -6.9      7.675     11.196
REMARK  Name = 
REMARK  5 active torsions:
REMARK  status: ('A' for Active; 'I' for Inactive)
REMARK    1  A    between atoms: C_1  and  C_2
REMARK    2  A    between atoms: C_2  and  C_3
REMARK    3  A    between atoms: C_3  and  O_4
REMARK    4  A    between atoms: C_25  and  N_26
REMARK    5  A    between atoms: C_28  and  C_29
REMARK                            x       y       z     vdW  Elec       q    Type
REMARK                         _______ _______ _______ _____ _____    ______ ____
ROOT
ATOM      1  C   UNL     1       1.496  15.756  19.436  0.00  0.00    +0.000 C 
ATOM      2  C   UNL     1       1.329  17.314  19.097  0.00  0.00    +0.000 C 
ATOM      3  C   UNL     1       1.181  18.198  20.296  0.00  0.00    +0.000 C 
ATOM      4  O   UNL     1       0.099  18.608  20.696  0.00  0.00    +0.000 OA
ATOM      5  O   UNL     1       2.355  18.553  20.850  0.00  0.00    +0.000 OA
ATOM      6  C   UNL     1       3.122  17.438  21.293  0.00  0.00    +0.000 C 
ATOM      7  C   UNL     1       3.747  16.635  20.175  0.00  0.00    +0.000 A 
ATOM      8  C   UNL     1       3.181  15.621  19.434  0.00  0.00    +0.000 A 
ATOM      9  C   UNL     1       4.282  14.680  18.807  0.00  0.00    +0.000 A 
ATOM     10  C   UNL     1       5.618  15.065  18.698  0.00  0.00    +0.000 A 
ATOM     11  N   UNL     1       5.859  16.384  19.043  0.00  0.00    +0.000 N 
ATOM     12  C   UNL     1       5.048  17.190  19.778  0.00  0.00    +0.000 A 
ATOM     13  O   UNL     1       5.360  18.349  20.037  0.00  0.00    +0.000 OA
ATOM     14  C   UNL     1       7.118  16.924  18.633  0.00  0.00    +0.000 C 
ATOM     15  C   UNL     1       7.872  15.745  18.155  0.00  0.00    +0.000 A 
ATOM     16  C   UNL     1       7.093  14.595  18.275  0.00  0.00    +0.000 A 
ATOM     17  N   UNL     1       7.750  13.414  18.204  0.00  0.00    +0.000 NA
ATOM     18  C   UNL     1       9.147  13.414  17.905  0.00  0.00    +0.000 A 
ATOM     19  C   UNL     1       9.873  12.206  17.915  0.00  0.00    +0.000 A 
ATOM     20  C   UNL     1      11.233  12.064  17.565  0.00  0.00    +0.000 A 
ATOM     21  C   UNL     1      11.957  13.162  17.151  0.00  0.00    +0.000 A 
ATOM     22  C   UNL     1      11.350  14.420  17.174  0.00  0.00    +0.000 A 
ATOM     23  C   UNL     1       9.944  14.577  17.593  0.00  0.00    +0.000 A 
ATOM     24  C   UNL     1       9.236  15.796  17.756  0.00  0.00    +0.000 A 
ATOM     25  C   UNL     1       9.823  17.181  17.638  0.00  0.00    +0.000 C 
ENDROOT
BRANCH  22  26
ATOM     26  N   UNL     1      12.173  15.476  16.693  0.00  0.00    +0.000 N 
ATOM     27  H   UNL     1      12.869  15.183  16.009  0.00  0.00    +0.000 HD
ATOM     28  H   UNL     1      12.641  15.991  17.431  0.00  0.00    +0.000 HD
ENDBRANCH  22  26
BRANCH   1  30
ATOM     29  C   UNL     1      -0.336  13.814  18.533  0.00  0.00    +0.000 C 
ATOM     30  C   UNL     1       0.209  15.248  18.607  0.00  0.00    +0.000 C 
ENDBRANCH   1  30
BRANCH   1  31
ATOM     31  O   UNL     1       1.110  15.468  20.801  0.00  0.00    +0.000 OA
ATOM     32  H   UNL     1       1.258  14.520  20.990  0.00  0.00    +0.000 HD
ENDBRANCH   1  31
TORSDOF 3
ENDMDL
MODEL 9
REMARK VINA RESULT:      -6.6      5.487     10.593
REMARK  Name = 
REMARK  5 active torsions:
REMARK  status: ('A' for Active; 'I' for Inactive)
REMARK    1  A    between atoms: C_1  and  C_2
REMARK    2  A    between atoms: C_2  and  C_3
REMARK    3  A    between atoms: C_3  and  O_4
REMARK    4  A    between atoms: C_25  and  N_26
REMARK    5  A    between atoms: C_28  and  C_29
REMARK                            x       y       z     vdW  Elec       q    Type
REMARK                         _______ _______ _______ _____ _____    ______ ____
ROOT
ATOM      1  C   UNL     1      -3.678  16.594  21.950  0.00  0.00    +0.000 C 
ATOM      2  C   UNL     1      -3.861  16.466  23.538  0.00  0.00    +0.000 C 
ATOM      3  C   UNL     1      -5.250  16.122  23.977  0.00  0.00    +0.000 C 
ATOM      4  O   UNL     1      -6.050  16.955  24.383  0.00  0.00    +0.000 OA
ATOM      5  O   UNL     1      -5.511  14.802  23.947  0.00  0.00    +0.000 OA
ATOM      6  C   UNL     1      -5.373  14.235  22.649  0.00  0.00    +0.000 C 
ATOM      7  C   UNL     1      -3.940  14.091  22.187  0.00  0.00    +0.000 A 
ATOM      8  C   UNL     1      -3.142  15.034  21.578  0.00  0.00    +0.000 A 
ATOM      9  C   UNL     1      -1.979  14.359  20.752  0.00  0.00    +0.000 A 
ATOM     10  C   UNL     1      -1.596  13.033  20.950  0.00  0.00    +0.000 A 
ATOM     11  N   UNL     1      -2.216  12.418  22.025  0.00  0.00    +0.000 N 
ATOM     12  C   UNL     1      -3.353  12.826  22.646  0.00  0.00    +0.000 A 
ATOM     13  O   UNL     1      -3.828  12.200  23.590  0.00  0.00    +0.000 OA
ATOM     14  C   UNL     1      -1.625  11.198  22.480  0.00  0.00    +0.000 C 
ATOM     15  C   UNL     1      -0.631  10.872  21.434  0.00  0.00    +0.000 A 
ATOM     16  C   UNL     1      -0.642  11.847  20.439  0.00  0.00    +0.000 A 
ATOM     17  N   UNL     1      -0.049  11.519  19.268  0.00  0.00    +0.000 NA
ATOM     18  C   UNL     1       0.635  10.270  19.163  0.00  0.00    +0.000 A 
ATOM     19  C   UNL     1       1.183   9.864  17.929  0.00  0.00    +0.000 A 
ATOM     20  C   UNL     1       1.942   8.694  17.716  0.00  0.00    +0.000 A 
ATOM     21  C   UNL     1       2.221   7.850  18.769  0.00  0.00    +0.000 A 
ATOM     22  C   UNL     1       1.664   8.124  20.021  0.00  0.00    +0.000 A 
ATOM     23  C   UNL     1       0.823   9.318  20.232  0.00  0.00    +0.000 A 
ATOM     24  C   UNL     1       0.120   9.664  21.415  0.00  0.00    +0.000 A 
ATOM     25  C   UNL     1       0.006   8.813  22.656  0.00  0.00    +0.000 C 
ENDROOT
BRANCH  22  26
ATOM     26  N   UNL     1       2.044   7.211  21.043  0.00  0.00    +0.000 N 
ATOM     27  H   UNL     1       3.050   7.137  21.182  0.00  0.00    +0.000 HD
ATOM     28  H   UNL     1       1.665   6.280  20.915  0.00  0.00    +0.000 HD
ENDBRANCH  22  26
BRANCH   1  30
ATOM     29  C   UNL     1      -1.696  18.597  21.973  0.00  0.00    +0.000 C 
ATOM     30  C   UNL     1      -3.156  18.119  21.947  0.00  0.00    +0.000 C 
ENDBRANCH   1  30
BRANCH   1  31
ATOM     31  O   UNL     1      -4.955  16.709  21.279  0.00  0.00    +0.000 OA
ATOM     32  H   UNL     1      -5.539  15.977  21.557  0.00  0.00    +0.000 HD
ENDBRANCH   1  31
TORSDOF 3
ENDMDL
