MODEL 1
REMARK VINA RESULT:      -6.5      0.000      0.000
REMARK  Name = 
REMARK  8 active torsions:
REMARK  status: ('A' for Active; 'I' for Inactive)
REMARK    1  A    between atoms: C_1  and  C_2
REMARK    2  A    between atoms: C_2  and  C_3
REMARK    3  A    between atoms: C_3  and  C_4
REMARK    4  A    between atoms: C_3  and  N_5
REMARK    5  A    between atoms: N_8  and  C_9
REMARK    6  A    between atoms: C_9  and  C_10
REMARK    7  A    between atoms: C_9  and  C_11
REMARK    8  A    between atoms: C_12  and  C_13
REMARK                            x       y       z     vdW  Elec       q    Type
REMARK                         _______ _______ _______ _____ _____    ______ ____
ROOT
ATOM      1  N   UNL     1       3.455   4.269  18.817  0.00  0.00    +0.000 N 
ATOM      2  C   UNL     1       2.814   5.482  19.121  0.00  0.00    +0.000 A 
ATOM      3  C   UNL     1       3.302   6.424  18.252  0.00  0.00    +0.000 A 
ATOM      4  N   UNL     1       4.221   5.746  17.396  0.00  0.00    +0.000 N 
ATOM      5  C   UNL     1       4.275   4.432  17.750  0.00  0.00    +0.000 A 
ATOM      6  C   UNL     1       5.081   3.338  17.124  0.00  0.00    +0.000 C 
ATOM      7  C   UNL     1       2.880   7.806  18.281  0.00  0.00    +0.000 C 
ATOM      8  O   UNL     1       3.218   8.712  17.525  0.00  0.00    +0.000 OA
ATOM      9  C   UNL     1       1.908   8.132  19.383  0.00  0.00    +0.000 A 
ATOM     10  C   UNL     1       1.468   9.456  19.552  0.00  0.00    +0.000 A 
ATOM     11  C   UNL     1       0.571   9.788  20.580  0.00  0.00    +0.000 A 
ATOM     12  C   UNL     1       0.106   8.806  21.448  0.00  0.00    +0.000 A 
ATOM     13  C   UNL     1       0.528   7.489  21.290  0.00  0.00    +0.000 A 
ATOM     14  C   UNL     1       1.421   7.148  20.258  0.00  0.00    +0.000 A 
ATOM     15  C   UNL     1       1.819   5.728  20.126  0.00  0.00    +0.000 C 
ATOM     16  O   UNL     1       1.273   4.905  20.864  0.00  0.00    +0.000 OA
ENDROOT
BRANCH   4  17
ATOM     17  C   UNL     1       4.997   6.420  16.293  0.00  0.00    +0.000 C 
ATOM     18  C   UNL     1       6.312   7.028  16.775  0.00  0.00    +0.000 C 
ATOM     19  C   UNL     1       5.229   5.531  15.070  0.00  0.00    +0.000 C 
ENDBRANCH   4  17
BRANCH   1  20
ATOM     20  C   UNL     1       3.167   3.005  19.583  0.00  0.00    +0.000 C 
ATOM     21  C   UNL     1       4.395   2.387  20.243  0.00  0.00    +0.000 C 
BRANCH  20  23
ATOM     22  C   UNL     1       0.856   2.289  18.763  0.00  0.00    +0.000 C 
ATOM     23  C   UNL     1       2.356   2.031  18.714  0.00  0.00    +0.000 C 
ENDBRANCH  20  23
ENDBRANCH   1  20
TORSDOF 3
ENDMDL
MODEL 2
REMARK VINA RESULT:      -6.3      1.760      5.265
REMARK  Name = 
REMARK  8 active torsions:
REMARK  status: ('A' for Active; 'I' for Inactive)
REMARK    1  A    between atoms: C_1  and  C_2
REMARK    2  A    between atoms: C_2  and  C_3
REMARK    3  A    between atoms: C_3  and  C_4
REMARK    4  A    between atoms: C_3  and  N_5
REMARK    5  A    between atoms: N_8  and  C_9
REMARK    6  A    between atoms: C_9  and  C_10
REMARK    7  A    between atoms: C_9  and  C_11
REMARK    8  A    between atoms: C_12  and  C_13
REMARK                            x       y       z     vdW  Elec       q    Type
REMARK                         _______ _______ _______ _____ _____    ______ ____
ROOT
ATOM      1  N   UNL     1       2.432   4.306  19.119  0.00  0.00    +0.000 N 
ATOM      2  C   UNL     1       3.383   4.556  18.116  0.00  0.00    +0.000 A 
ATOM      3  C   UNL     1       3.464   5.917  17.968  0.00  0.00    +0.000 A 
ATOM      4  N   UNL     1       2.569   6.482  18.926  0.00  0.00    +0.000 N 
ATOM      5  C   UNL     1       1.974   5.477  19.626  0.00  0.00    +0.000 A 
ATOM      6  C   UNL     1       0.983   5.589  20.743  0.00  0.00    +0.000 C 
ATOM      7  C   UNL     1       4.337   6.547  17.003  0.00  0.00    +0.000 C 
ATOM      8  O   UNL     1       4.516   7.747  16.822  0.00  0.00    +0.000 OA
ATOM      9  C   UNL     1       5.100   5.579  16.137  0.00  0.00    +0.000 A 
ATOM     10  C   UNL     1       5.937   6.070  15.121  0.00  0.00    +0.000 A 
ATOM     11  C   UNL     1       6.650   5.189  14.293  0.00  0.00    +0.000 A 
ATOM     12  C   UNL     1       6.535   3.815  14.467  0.00  0.00    +0.000 A 
ATOM     13  C   UNL     1       5.714   3.314  15.473  0.00  0.00    +0.000 A 
ATOM     14  C   UNL     1       5.001   4.191  16.312  0.00  0.00    +0.000 A 
ATOM     15  C   UNL     1       4.160   3.600  17.378  0.00  0.00    +0.000 C 
ATOM     16  O   UNL     1       4.202   2.379  17.536  0.00  0.00    +0.000 OA
ENDROOT
BRANCH   4  17
ATOM     17  C   UNL     1       2.344   7.963  19.095  0.00  0.00    +0.000 C 
ATOM     18  C   UNL     1       1.567   8.583  17.935  0.00  0.00    +0.000 C 
ATOM     19  C   UNL     1       1.708   8.341  20.433  0.00  0.00    +0.000 C 
ENDBRANCH   4  17
BRANCH   1  20
ATOM     20  C   UNL     1       2.076   2.907  19.546  0.00  0.00    +0.000 C 
ATOM     21  C   UNL     1       0.614   2.541  19.312  0.00  0.00    +0.000 C 
BRANCH  20  23
ATOM     22  C   UNL     1       1.448   2.414  21.973  0.00  0.00    +0.000 C 
ATOM     23  C   UNL     1       2.575   2.644  20.975  0.00  0.00    +0.000 C 
ENDBRANCH  20  23
ENDBRANCH   1  20
TORSDOF 3
ENDMDL
MODEL 3
REMARK VINA RESULT:      -6.1      1.356      4.158
REMARK  Name = 
REMARK  8 active torsions:
REMARK  status: ('A' for Active; 'I' for Inactive)
REMARK    1  A    between atoms: C_1  and  C_2
REMARK    2  A    between atoms: C_2  and  C_3
REMARK    3  A    between atoms: C_3  and  C_4
REMARK    4  A    between atoms: C_3  and  N_5
REMARK    5  A    between atoms: N_8  and  C_9
REMARK    6  A    between atoms: C_9  and  C_10
REMARK    7  A    between atoms: C_9  and  C_11
REMARK    8  A    between atoms: C_12  and  C_13
REMARK                            x       y       z     vdW  Elec       q    Type
REMARK                         _______ _______ _______ _____ _____    ______ ____
ROOT
ATOM      1  N   UNL     1       3.891   5.258  17.923  0.00  0.00    +0.000 N 
ATOM      2  C   UNL     1       3.192   6.385  18.384  0.00  0.00    +0.000 A 
ATOM      3  C   UNL     1       2.497   5.999  19.502  0.00  0.00    +0.000 A 
ATOM      4  N   UNL     1       2.820   4.627  19.725  0.00  0.00    +0.000 N 
ATOM      5  C   UNL     1       3.688   4.211  18.762  0.00  0.00    +0.000 A 
ATOM      6  C   UNL     1       4.317   2.862  18.603  0.00  0.00    +0.000 C 
ATOM      7  C   UNL     1       1.643   6.902  20.241  0.00  0.00    +0.000 C 
ATOM      8  O   UNL     1       1.017   6.670  21.271  0.00  0.00    +0.000 OA
ATOM      9  C   UNL     1       1.536   8.279  19.643  0.00  0.00    +0.000 A 
ATOM     10  C   UNL     1       0.688   9.229  20.237  0.00  0.00    +0.000 A 
ATOM     11  C   UNL     1       0.562  10.517  19.693  0.00  0.00    +0.000 A 
ATOM     12  C   UNL     1       1.276  10.869  18.552  0.00  0.00    +0.000 A 
ATOM     13  C   UNL     1       2.123   9.940  17.955  0.00  0.00    +0.000 A 
ATOM     14  C   UNL     1       2.261   8.650  18.500  0.00  0.00    +0.000 A 
ATOM     15  C   UNL     1       3.192   7.711  17.834  0.00  0.00    +0.000 C 
ATOM     16  O   UNL     1       3.870   8.139  16.897  0.00  0.00    +0.000 OA
ENDROOT
BRANCH   4  17
ATOM     17  C   UNL     1       2.259   3.803  20.856  0.00  0.00    +0.000 C 
ATOM     18  C   UNL     1       0.863   3.258  20.559  0.00  0.00    +0.000 C 
ATOM     19  C   UNL     1       3.188   2.683  21.324  0.00  0.00    +0.000 C 
ENDBRANCH   4  17
BRANCH   1  20
ATOM     20  C   UNL     1       4.764   5.310  16.698  0.00  0.00    +0.000 C 
ATOM     21  C   UNL     1       4.662   4.073  15.811  0.00  0.00    +0.000 C 
BRANCH  20  23
ATOM     22  C   UNL     1       7.196   4.559  16.912  0.00  0.00    +0.000 C 
ATOM     23  C   UNL     1       6.199   5.697  17.084  0.00  0.00    +0.000 C 
ENDBRANCH  20  23
ENDBRANCH   1  20
TORSDOF 3
ENDMDL
MODEL 4
REMARK VINA RESULT:      -5.9      1.783      6.233
REMARK  Name = 
REMARK  8 active torsions:
REMARK  status: ('A' for Active; 'I' for Inactive)
REMARK    1  A    between atoms: C_1  and  C_2
REMARK    2  A    between atoms: C_2  and  C_3
REMARK    3  A    between atoms: C_3  and  C_4
REMARK    4  A    between atoms: C_3  and  N_5
REMARK    5  A    between atoms: N_8  and  C_9
REMARK    6  A    between atoms: C_9  and  C_10
REMARK    7  A    between atoms: C_9  and  C_11
REMARK    8  A    between atoms: C_12  and  C_13
REMARK                            x       y       z     vdW  Elec       q    Type
REMARK                         _______ _______ _______ _____ _____    ______ ____
ROOT
ATOM      1  N   UNL     1       2.474   6.236  19.061  0.00  0.00    +0.000 N 
ATOM      2  C   UNL     1       3.331   5.687  18.094  0.00  0.00    +0.000 A 
ATOM      3  C   UNL     1       3.245   4.322  18.207  0.00  0.00    +0.000 A 
ATOM      4  N   UNL     1       2.292   4.062  19.237  0.00  0.00    +0.000 N 
ATOM      5  C   UNL     1       1.824   5.246  19.721  0.00  0.00    +0.000 A 
ATOM      6  C   UNL     1       0.799   5.468  20.789  0.00  0.00    +0.000 C 
ATOM      7  C   UNL     1       4.009   3.420  17.376  0.00  0.00    +0.000 C 
ATOM      8  O   UNL     1       3.972   2.193  17.366  0.00  0.00    +0.000 OA
ATOM      9  C   UNL     1       4.950   4.107  16.422  0.00  0.00    +0.000 A 
ATOM     10  C   UNL     1       5.791   3.336  15.601  0.00  0.00    +0.000 A 
ATOM     11  C   UNL     1       6.685   3.952  14.711  0.00  0.00    +0.000 A 
ATOM     12  C   UNL     1       6.751   5.338  14.632  0.00  0.00    +0.000 A 
ATOM     13  C   UNL     1       5.920   6.116  15.434  0.00  0.00    +0.000 A 
ATOM     14  C   UNL     1       5.016   5.505  16.323  0.00  0.00    +0.000 A 
ATOM     15  C   UNL     1       4.143   6.382  17.136  0.00  0.00    +0.000 C 
ATOM     16  O   UNL     1       4.185   7.596  16.923  0.00  0.00    +0.000 OA
ENDROOT
BRANCH   4  17
ATOM     17  C   UNL     1       1.902   2.679  19.692  0.00  0.00    +0.000 C 
ATOM     18  C   UNL     1       1.787   2.562  21.211  0.00  0.00    +0.000 C 
ATOM     19  C   UNL     1       0.643   2.138  19.012  0.00  0.00    +0.000 C 
ENDBRANCH   4  17
BRANCH   1  20
ATOM     20  C   UNL     1       2.318   7.724  19.232  0.00  0.00    +0.000 C 
ATOM     21  C   UNL     1       1.845   8.142  20.621  0.00  0.00    +0.000 C 
BRANCH  20  23
ATOM     22  C   UNL     1       1.646   9.814  17.927  0.00  0.00    +0.000 C 
ATOM     23  C   UNL     1       1.489   8.307  18.078  0.00  0.00    +0.000 C 
ENDBRANCH  20  23
ENDBRANCH   1  20
TORSDOF 3
ENDMDL
MODEL 5
REMARK VINA RESULT:      -5.9      0.422      4.116
REMARK  Name = 
REMARK  8 active torsions:
REMARK  status: ('A' for Active; 'I' for Inactive)
REMARK    1  A    between atoms: C_1  and  C_2
REMARK    2  A    between atoms: C_2  and  C_3
REMARK    3  A    between atoms: C_3  and  C_4
REMARK    4  A    between atoms: C_3  and  N_5
REMARK    5  A    between atoms: N_8  and  C_9
REMARK    6  A    between atoms: C_9  and  C_10
REMARK    7  A    between atoms: C_9  and  C_11
REMARK    8  A    between atoms: C_12  and  C_13
REMARK                            x       y       z     vdW  Elec       q    Type
REMARK                         _______ _______ _______ _____ _____    ______ ____
ROOT
ATOM      1  N   UNL     1       4.187   5.666  17.504  0.00  0.00    +0.000 N 
ATOM      2  C   UNL     1       3.307   6.300  18.396  0.00  0.00    +0.000 A 
ATOM      3  C   UNL     1       2.850   5.340  19.263  0.00  0.00    +0.000 A 
ATOM      4  N   UNL     1       3.500   4.124  18.896  0.00  0.00    +0.000 N 
ATOM      5  C   UNL     1       4.324   4.359  17.838  0.00  0.00    +0.000 A 
ATOM      6  C   UNL     1       5.221   3.392  17.131  0.00  0.00    +0.000 C 
ATOM      7  C   UNL     1       1.903   5.626  20.317  0.00  0.00    +0.000 C 
ATOM      8  O   UNL     1       1.468   4.854  21.166  0.00  0.00    +0.000 OA
ATOM      9  C   UNL     1       1.418   7.051  20.341  0.00  0.00    +0.000 A 
ATOM     10  C   UNL     1       0.450   7.439  21.284  0.00  0.00    +0.000 A 
ATOM     11  C   UNL     1      -0.027   8.758  21.320  0.00  0.00    +0.000 A 
ATOM     12  C   UNL     1       0.453   9.702  20.418  0.00  0.00    +0.000 A 
ATOM     13  C   UNL     1       1.416   9.335  19.483  0.00  0.00    +0.000 A 
ATOM     14  C   UNL     1       1.904   8.015  19.445  0.00  0.00    +0.000 A 
ATOM     15  C   UNL     1       2.943   7.688  18.442  0.00  0.00    +0.000 C 
ATOM     16  O   UNL     1       3.395   8.609  17.758  0.00  0.00    +0.000 OA
ENDROOT
BRANCH   4  17
ATOM     17  C   UNL     1       3.273   2.806  19.593  0.00  0.00    +0.000 C 
ATOM     18  C   UNL     1       2.544   1.788  18.718  0.00  0.00    +0.000 C 
ATOM     19  C   UNL     1       4.543   2.196  20.187  0.00  0.00    +0.000 C 
ENDBRANCH   4  17
BRANCH   1  20
ATOM     20  C   UNL     1       4.879   6.420  16.400  0.00  0.00    +0.000 C 
ATOM     21  C   UNL     1       5.170   5.578  15.163  0.00  0.00    +0.000 C 
BRANCH  20  23
ATOM     22  C   UNL     1       7.334   6.299  17.096  0.00  0.00    +0.000 C 
ATOM     23  C   UNL     1       6.096   7.175  16.955  0.00  0.00    +0.000 C 
ENDBRANCH  20  23
ENDBRANCH   1  20
TORSDOF 3
ENDMDL
MODEL 6
REMARK VINA RESULT:      -5.8      6.651     10.522
REMARK  Name = 
REMARK  8 active torsions:
REMARK  status: ('A' for Active; 'I' for Inactive)
REMARK    1  A    between atoms: C_1  and  C_2
REMARK    2  A    between atoms: C_2  and  C_3
REMARK    3  A    between atoms: C_3  and  C_4
REMARK    4  A    between atoms: C_3  and  N_5
REMARK    5  A    between atoms: N_8  and  C_9
REMARK    6  A    between atoms: C_9  and  C_10
REMARK    7  A    between atoms: C_9  and  C_11
REMARK    8  A    between atoms: C_12  and  C_13
REMARK                            x       y       z     vdW  Elec       q    Type
REMARK                         _______ _______ _______ _____ _____    ______ ____
ROOT
ATOM      1  N   UNL     1      -5.050  12.598  19.089  0.00  0.00    +0.000 N 
ATOM      2  C   UNL     1      -3.747  12.081  19.174  0.00  0.00    +0.000 A 
ATOM      3  C   UNL     1      -3.159  12.646  20.276  0.00  0.00    +0.000 A 
ATOM      4  N   UNL     1      -4.146  13.487  20.873  0.00  0.00    +0.000 N 
ATOM      5  C   UNL     1      -5.293  13.418  20.142  0.00  0.00    +0.000 A 
ATOM      6  C   UNL     1      -6.596  14.108  20.397  0.00  0.00    +0.000 C 
ATOM      7  C   UNL     1      -1.798  12.360  20.670  0.00  0.00    +0.000 C 
ATOM      8  O   UNL     1      -1.197  12.775  21.655  0.00  0.00    +0.000 OA
ATOM      9  C   UNL     1      -1.066  11.436  19.732  0.00  0.00    +0.000 A 
ATOM     10  C   UNL     1       0.283  11.129  19.975  0.00  0.00    +0.000 A 
ATOM     11  C   UNL     1       0.991  10.280  19.110  0.00  0.00    +0.000 A 
ATOM     12  C   UNL     1       0.364   9.732  17.996  0.00  0.00    +0.000 A 
ATOM     13  C   UNL     1      -0.974  10.024  17.745  0.00  0.00    +0.000 A 
ATOM     14  C   UNL     1      -1.692  10.868  18.612  0.00  0.00    +0.000 A 
ATOM     15  C   UNL     1      -3.118  11.125  18.306  0.00  0.00    +0.000 C 
ATOM     16  O   UNL     1      -3.626  10.511  17.365  0.00  0.00    +0.000 OA
ENDROOT
BRANCH   4  17
ATOM     17  C   UNL     1      -3.911  14.311  22.114  0.00  0.00    +0.000 C 
ATOM     18  C   UNL     1      -4.071  15.810  21.872  0.00  0.00    +0.000 C 
ATOM     19  C   UNL     1      -4.743  13.865  23.317  0.00  0.00    +0.000 C 
ENDBRANCH   4  17
BRANCH   1  20
ATOM     20  C   UNL     1      -5.994  12.199  17.986  0.00  0.00    +0.000 C 
ATOM     21  C   UNL     1      -6.408  13.351  17.077  0.00  0.00    +0.000 C 
BRANCH  20  23
ATOM     22  C   UNL     1      -6.762  10.003  19.042  0.00  0.00    +0.000 C 
ATOM     23  C   UNL     1      -7.167  11.389  18.558  0.00  0.00    +0.000 C 
ENDBRANCH  20  23
ENDBRANCH   1  20
TORSDOF 3
ENDMDL
MODEL 7
REMARK VINA RESULT:      -5.7      7.653     10.476
REMARK  Name = 
REMARK  8 active torsions:
REMARK  status: ('A' for Active; 'I' for Inactive)
REMARK    1  A    between atoms: C_1  and  C_2
REMARK    2  A    between atoms: C_2  and  C_3
REMARK    3  A    between atoms: C_3  and  C_4
REMARK    4  A    between atoms: C_3  and  N_5
REMARK    5  A    between atoms: N_8  and  C_9
REMARK    6  A    between atoms: C_9  and  C_10
REMARK    7  A    between atoms: C_9  and  C_11
REMARK    8  A    between atoms: C_12  and  C_13
REMARK                            x       y       z     vdW  Elec       q    Type
REMARK                         _______ _______ _______ _____ _____    ______ ____
ROOT
ATOM      1  N   UNL     1      -2.475  12.406  21.270  0.00  0.00    +0.000 N 
ATOM      2  C   UNL     1      -2.814  12.064  19.950  0.00  0.00    +0.000 A 
ATOM      3  C   UNL     1      -4.103  12.484  19.742  0.00  0.00    +0.000 A 
ATOM      4  N   UNL     1      -4.520  13.118  20.951  0.00  0.00    +0.000 N 
ATOM      5  C   UNL     1      -3.501  13.075  21.853  0.00  0.00    +0.000 A 
ATOM      6  C   UNL     1      -3.470  13.630  23.242  0.00  0.00    +0.000 C 
ATOM      7  C   UNL     1      -4.798  12.283  18.491  0.00  0.00    +0.000 C 
ATOM      8  O   UNL     1      -5.927  12.657  18.190  0.00  0.00    +0.000 OA
ATOM      9  C   UNL     1      -4.007  11.521  17.461  0.00  0.00    +0.000 A 
ATOM     10  C   UNL     1      -4.597  11.210  16.224  0.00  0.00    +0.000 A 
ATOM     11  C   UNL     1      -3.885  10.491  15.252  0.00  0.00    +0.000 A 
ATOM     12  C   UNL     1      -2.583  10.072  15.502  0.00  0.00    +0.000 A 
ATOM     13  C   UNL     1      -1.983  10.377  16.721  0.00  0.00    +0.000 A 
ATOM     14  C   UNL     1      -2.688  11.105  17.698  0.00  0.00    +0.000 A 
ATOM     15  C   UNL     1      -1.991  11.417  18.967  0.00  0.00    +0.000 C 
ATOM     16  O   UNL     1      -0.802  11.109  19.063  0.00  0.00    +0.000 OA
ENDROOT
BRANCH   4  17
ATOM     17  C   UNL     1      -5.888  13.719  21.157  0.00  0.00    +0.000 C 
ATOM     18  C   UNL     1      -6.693  13.008  22.243  0.00  0.00    +0.000 C 
ATOM     19  C   UNL     1      -5.868  15.228  21.400  0.00  0.00    +0.000 C 
ENDBRANCH   4  17
BRANCH   1  20
ATOM     20  C   UNL     1      -1.124  12.088  21.852  0.00  0.00    +0.000 C 
ATOM     21  C   UNL     1      -1.175  11.185  23.080  0.00  0.00    +0.000 C 
BRANCH  20  23
ATOM     22  C   UNL     1       0.437  13.811  20.793  0.00  0.00    +0.000 C 
ATOM     23  C   UNL     1      -0.312  13.378  22.046  0.00  0.00    +0.000 C 
ENDBRANCH  20  23
ENDBRANCH   1  20
TORSDOF 3
ENDMDL
MODEL 8
REMARK VINA RESULT:      -5.7      1.183      1.437
REMARK  Name = 
REMARK  8 active torsions:
REMARK  status: ('A' for Active; 'I' for Inactive)
REMARK    1  A    between atoms: C_1  and  C_2
REMARK    2  A    between atoms: C_2  and  C_3
REMARK    3  A    between atoms: C_3  and  C_4
REMARK    4  A    between atoms: C_3  and  N_5
REMARK    5  A    between atoms: N_8  and  C_9
REMARK    6  A    between atoms: C_9  and  C_10
REMARK    7  A    between atoms: C_9  and  C_11
REMARK    8  A    between atoms: C_12  and  C_13
REMARK                            x       y       z     vdW  Elec       q    Type
REMARK                         _______ _______ _______ _____ _____    ______ ____
ROOT
ATOM      1  N   UNL     1       2.919   4.641  19.616  0.00  0.00    +0.000 N 
ATOM      2  C   UNL     1       2.551   5.976  19.383  0.00  0.00    +0.000 A 
ATOM      3  C   UNL     1       3.220   6.388  18.259  0.00  0.00    +0.000 A 
ATOM      4  N   UNL     1       3.969   5.264  17.800  0.00  0.00    +0.000 N 
ATOM      5  C   UNL     1       3.747   4.209  18.633  0.00  0.00    +0.000 A 
ATOM      6  C   UNL     1       4.299   2.821  18.536  0.00  0.00    +0.000 C 
ATOM      7  C   UNL     1       3.099   7.726  17.725  0.00  0.00    +0.000 C 
ATOM      8  O   UNL     1       3.615   8.179  16.708  0.00  0.00    +0.000 OA
ATOM      9  C   UNL     1       2.226   8.640  18.542  0.00  0.00    +0.000 A 
ATOM     10  C   UNL     1       2.077   9.984  18.158  0.00  0.00    +0.000 A 
ATOM     11  C   UNL     1       1.278  10.860  18.909  0.00  0.00    +0.000 A 
ATOM     12  C   UNL     1       0.624  10.408  20.049  0.00  0.00    +0.000 A 
ATOM     13  C   UNL     1       0.757   9.079  20.440  0.00  0.00    +0.000 A 
ATOM     14  C   UNL     1       1.550   8.192  19.687  0.00  0.00    +0.000 A 
ATOM     15  C   UNL     1       1.638   6.785  20.140  0.00  0.00    +0.000 C 
ATOM     16  O   UNL     1       0.936   6.441  21.093  0.00  0.00    +0.000 OA
ENDROOT
BRANCH   4  17
ATOM     17  C   UNL     1       4.860   5.286  16.584  0.00  0.00    +0.000 C 
ATOM     18  C   UNL     1       6.281   5.752  16.896  0.00  0.00    +0.000 C 
ATOM     19  C   UNL     1       4.882   3.968  15.810  0.00  0.00    +0.000 C 
ENDBRANCH   4  17
BRANCH   1  20
ATOM     20  C   UNL     1       2.377   3.859  20.783  0.00  0.00    +0.000 C 
ATOM     21  C   UNL     1       3.289   2.729  21.249  0.00  0.00    +0.000 C 
BRANCH  20  23
ATOM     22  C   UNL     1       0.776   2.593  19.247  0.00  0.00    +0.000 C 
ATOM     23  C   UNL     1       0.927   3.432  20.509  0.00  0.00    +0.000 C 
ENDBRANCH  20  23
ENDBRANCH   1  20
TORSDOF 3
ENDMDL
MODEL 9
REMARK VINA RESULT:      -5.7      7.985     11.149
REMARK  Name = 
REMARK  8 active torsions:
REMARK  status: ('A' for Active; 'I' for Inactive)
REMARK    1  A    between atoms: C_1  and  C_2
REMARK    2  A    between atoms: C_2  and  C_3
REMARK    3  A    between atoms: C_3  and  C_4
REMARK    4  A    between atoms: C_3  and  N_5
REMARK    5  A    between atoms: N_8  and  C_9
REMARK    6  A    between atoms: C_9  and  C_10
REMARK    7  A    between atoms: C_9  and  C_11
REMARK    8  A    between atoms: C_12  and  C_13
REMARK                            x       y       z     vdW  Elec       q    Type
REMARK                         _______ _______ _______ _____ _____    ______ ____
ROOT
ATOM      1  N   UNL     1      -5.521  13.344  20.478  0.00  0.00    +0.000 N 
ATOM      2  C   UNL     1      -4.802  12.610  19.522  0.00  0.00    +0.000 A 
ATOM      3  C   UNL     1      -3.534  12.436  20.015  0.00  0.00    +0.000 A 
ATOM      4  N   UNL     1      -3.516  13.050  21.303  0.00  0.00    +0.000 N 
ATOM      5  C   UNL     1      -4.745  13.574  21.566  0.00  0.00    +0.000 A 
ATOM      6  C   UNL     1      -5.202  14.290  22.799  0.00  0.00    +0.000 C 
ATOM      7  C   UNL     1      -2.501  11.734  19.288  0.00  0.00    +0.000 C 
ATOM      8  O   UNL     1      -1.357  11.487  19.656  0.00  0.00    +0.000 OA
ATOM      9  C   UNL     1      -2.920  11.265  17.919  0.00  0.00    +0.000 A 
ATOM     10  C   UNL     1      -1.986  10.622  17.090  0.00  0.00    +0.000 A 
ATOM     11  C   UNL     1      -2.348  10.185  15.806  0.00  0.00    +0.000 A 
ATOM     12  C   UNL     1      -3.640  10.388  15.336  0.00  0.00    +0.000 A 
ATOM     13  C   UNL     1      -4.579  11.019  16.147  0.00  0.00    +0.000 A 
ATOM     14  C   UNL     1      -4.225  11.452  17.439  0.00  0.00    +0.000 A 
ATOM     15  C   UNL     1      -5.271  12.099  18.264  0.00  0.00    +0.000 C 
ATOM     16  O   UNL     1      -6.419  12.137  17.815  0.00  0.00    +0.000 OA
ENDROOT
BRANCH   4  17
ATOM     17  C   UNL     1      -2.301  13.097  22.196  0.00  0.00    +0.000 C 
ATOM     18  C   UNL     1      -1.950  14.513  22.649  0.00  0.00    +0.000 C 
ATOM     19  C   UNL     1      -2.379  12.150  23.394  0.00  0.00    +0.000 C 
ENDBRANCH   4  17
BRANCH   1  20
ATOM     20  C   UNL     1      -6.961  13.729  20.266  0.00  0.00    +0.000 C 
ATOM     21  C   UNL     1      -7.196  15.235  20.191  0.00  0.00    +0.000 C 
BRANCH  20  23
ATOM     22  C   UNL     1      -7.762  11.481  21.175  0.00  0.00    +0.000 C 
ATOM     23  C   UNL     1      -7.860  12.997  21.274  0.00  0.00    +0.000 C 
ENDBRANCH  20  23
ENDBRANCH   1  20
TORSDOF 3
ENDMDL
