MODEL 1
REMARK VINA RESULT:      -8.6      0.000      0.000
REMARK  Name = 
REMARK  11 active torsions:
REMARK  status: ('A' for Active; 'I' for Inactive)
REMARK    1  A    between atoms: C_1  and  C_2
REMARK    2  A    between atoms: C_2  and  C_3
REMARK    3  A    between atoms: C_3  and  C_4
REMARK    4  A    between atoms: C_4  and  C_5
REMARK    5  A    between atoms: N_11  and  C_12
REMARK    6  A    between atoms: C_12  and  C_13
REMARK    7  A    between atoms: C_19  and  O_20
REMARK    8  A    between atoms: O_20  and  C_21
REMARK    9  A    between atoms: C_26  and  C_27
REMARK   10  A    between atoms: C_27  and  C_28
REMARK   11  A    between atoms: C_28  and  O_30
REMARK                            x       y       z     vdW  Elec       q    Type
REMARK                         _______ _______ _______ _____ _____    ______ ____
ROOT
ATOM      1  C   UNL     1       2.061   4.101  20.032  0.00  0.00    +0.000 C 
ATOM      2  C   UNL     1       3.348   3.579  19.275  0.00  0.00    +0.000 C 
ATOM      3  O   UNL     1       3.890   2.511  19.098  0.00  0.00    +0.000 OA
ATOM      4  N   UNL     1       3.724   4.833  18.903  0.00  0.00    +0.000 N 
ATOM      5  C   UNL     1       4.796   5.265  18.155  0.00  0.00    +0.000 C 
ATOM      6  O   UNL     1       4.922   6.418  17.755  0.00  0.00    +0.000 OA
ATOM      7  N   UNL     1       5.750   4.311  17.913  0.00  0.00    +0.000 N 
ATOM      8  C   UNL     1       2.481   5.515  19.295  0.00  0.00    +0.000 C 
ATOM      9  H   UNL     1       5.460   3.339  17.987  0.00  0.00    +0.000 HD
ENDROOT
BRANCH   1  11
ATOM     10  C   UNL     1       1.050   2.306  18.499  0.00  0.00    +0.000 C 
ATOM     11  C   UNL     1       0.778   3.490  19.413  0.00  0.00    +0.000 C 
ENDBRANCH   1  11
BRANCH   1  12
ATOM     12  C   UNL     1       2.191   3.780  21.551  0.00  0.00    +0.000 C 
ATOM     13  C   UNL     1       1.539   2.438  21.954  0.00  0.00    +0.000 C 
ENDBRANCH   1  12
BRANCH   7  14
ATOM     14  C   UNL     1       6.956   4.600  17.169  0.00  0.00    +0.000 C 
BRANCH  14  15
ATOM     15  C   UNL     1       6.762   4.493  15.674  0.00  0.00    +0.000 A 
ATOM     16  C   UNL     1       7.633   5.181  14.810  0.00  0.00    +0.000 A 
ATOM     17  C   UNL     1       7.514   5.047  13.425  0.00  0.00    +0.000 A 
ATOM     18  C   UNL     1       6.527   4.232  12.874  0.00  0.00    +0.000 A 
ATOM     19  C   UNL     1       5.659   3.530  13.719  0.00  0.00    +0.000 A 
ATOM     20  C   UNL     1       5.787   3.655  15.107  0.00  0.00    +0.000 A 
ENDBRANCH  14  15
ENDBRANCH   7  14
BRANCH   8  21
ATOM     21  O   UNL     1       2.664   6.740  20.062  0.00  0.00    +0.000 OA
BRANCH  21  22
ATOM     22  C   UNL     1       2.069   7.904  19.588  0.00  0.00    +0.000 A 
ATOM     23  C   UNL     1       2.156   8.205  18.229  0.00  0.00    +0.000 A 
ATOM     24  C   UNL     1       1.399   9.243  17.668  0.00  0.00    +0.000 A 
ATOM     25  C   UNL     1       0.484   9.949  18.440  0.00  0.00    +0.000 A 
ATOM     26  C   UNL     1       0.406   9.684  19.802  0.00  0.00    +0.000 A 
ATOM     27  C   UNL     1       1.243   8.713  20.397  0.00  0.00    +0.000 A 
BRANCH  27  28
ATOM     28  C   UNL     1       1.410   8.828  21.897  0.00  0.00    +0.000 C 
BRANCH  28  29
ATOM     29  C   UNL     1       0.068   9.170  22.548  0.00  0.00    +0.000 C 
ATOM     30  O   UNL     1      -0.937   8.471  22.538  0.00  0.00    +0.000 OA
BRANCH  29  31
ATOM     31  O   UNL     1       0.087  10.331  23.247  0.00  0.00    +0.000 OA
ATOM     32  H   UNL     1       0.960  10.762  23.200  0.00  0.00    +0.000 HD
ENDBRANCH  29  31
ENDBRANCH  28  29
ENDBRANCH  27  28
ENDBRANCH  21  22
ENDBRANCH   8  21
TORSDOF 9
ENDMDL
MODEL 2
REMARK VINA RESULT:      -8.5      1.024      1.234
REMARK  Name = 
REMARK  11 active torsions:
REMARK  status: ('A' for Active; 'I' for Inactive)
REMARK    1  A    between atoms: C_1  and  C_2
REMARK    2  A    between atoms: C_2  and  C_3
REMARK    3  A    between atoms: C_3  and  C_4
REMARK    4  A    between atoms: C_4  and  C_5
REMARK    5  A    between atoms: N_11  and  C_12
REMARK    6  A    between atoms: C_12  and  C_13
REMARK    7  A    between atoms: C_19  and  O_20
REMARK    8  A    between atoms: O_20  and  C_21
REMARK    9  A    between atoms: C_26  and  C_27
REMARK   10  A    between atoms: C_27  and  C_28
REMARK   11  A    between atoms: C_28  and  O_30
REMARK                            x       y       z     vdW  Elec       q    Type
REMARK                         _______ _______ _______ _____ _____    ______ ____
ROOT
ATOM      1  C   UNL     1       2.319   4.097  18.989  0.00  0.00    +0.000 C 
ATOM      2  C   UNL     1       3.524   3.789  18.011  0.00  0.00    +0.000 C 
ATOM      3  O   UNL     1       4.061   2.800  17.564  0.00  0.00    +0.000 OA
ATOM      4  N   UNL     1       3.837   5.106  17.868  0.00  0.00    +0.000 N 
ATOM      5  C   UNL     1       4.813   5.721  17.117  0.00  0.00    +0.000 C 
ATOM      6  O   UNL     1       4.875   6.934  16.951  0.00  0.00    +0.000 OA
ATOM      7  N   UNL     1       5.750   4.873  16.586  0.00  0.00    +0.000 N 
ATOM      8  C   UNL     1       2.634   5.646  18.518  0.00  0.00    +0.000 C 
ATOM      9  H   UNL     1       5.486   3.896  16.489  0.00  0.00    +0.000 HD
ENDROOT
BRANCH   1  11
ATOM     10  C   UNL     1       0.687   2.128  18.757  0.00  0.00    +0.000 C 
ATOM     11  C   UNL     1       0.987   3.575  18.396  0.00  0.00    +0.000 C 
ENDBRANCH   1  11
BRANCH   1  12
ATOM     12  C   UNL     1       2.621   3.481  20.388  0.00  0.00    +0.000 C 
ATOM     13  C   UNL     1       1.907   4.209  21.549  0.00  0.00    +0.000 C 
ENDBRANCH   1  12
BRANCH   7  14
ATOM     14  C   UNL     1       6.862   5.352  15.795  0.00  0.00    +0.000 C 
BRANCH  14  15
ATOM     15  C   UNL     1       6.817   4.866  14.365  0.00  0.00    +0.000 A 
ATOM     16  C   UNL     1       7.722   5.391  13.425  0.00  0.00    +0.000 A 
ATOM     17  C   UNL     1       7.743   4.911  12.113  0.00  0.00    +0.000 A 
ATOM     18  C   UNL     1       6.865   3.907  11.712  0.00  0.00    +0.000 A 
ATOM     19  C   UNL     1       5.966   3.364  12.638  0.00  0.00    +0.000 A 
ATOM     20  C   UNL     1       5.954   3.836  13.956  0.00  0.00    +0.000 A 
ENDBRANCH  14  15
ENDBRANCH   7  14
BRANCH   8  21
ATOM     21  O   UNL     1       2.879   6.696  19.497  0.00  0.00    +0.000 OA
BRANCH  21  22
ATOM     22  C   UNL     1       2.242   7.920  19.318  0.00  0.00    +0.000 A 
ATOM     23  C   UNL     1       2.535   8.678  18.184  0.00  0.00    +0.000 A 
ATOM     24  C   UNL     1       1.772   9.804  17.849  0.00  0.00    +0.000 A 
ATOM     25  C   UNL     1       0.654  10.149  18.600  0.00  0.00    +0.000 A 
ATOM     26  C   UNL     1       0.365   9.425  19.750  0.00  0.00    +0.000 A 
ATOM     27  C   UNL     1       1.192   8.354  20.155  0.00  0.00    +0.000 A 
BRANCH  27  28
ATOM     28  C   UNL     1       1.071   7.950  21.609  0.00  0.00    +0.000 C 
BRANCH  28  29
ATOM     29  C   UNL     1       1.306   9.165  22.510  0.00  0.00    +0.000 C 
ATOM     30  O   UNL     1       0.445   9.795  23.110  0.00  0.00    +0.000 OA
BRANCH  29  31
ATOM     31  O   UNL     1       2.616   9.470  22.673  0.00  0.00    +0.000 OA
ATOM     32  H   UNL     1       2.794   9.821  23.564  0.00  0.00    +0.000 HD
ENDBRANCH  29  31
ENDBRANCH  28  29
ENDBRANCH  27  28
ENDBRANCH  21  22
ENDBRANCH   8  21
TORSDOF 9
ENDMDL
MODEL 3
REMARK VINA RESULT:      -8.4      0.831      1.343
REMARK  Name = 
REMARK  11 active torsions:
REMARK  status: ('A' for Active; 'I' for Inactive)
REMARK    1  A    between atoms: C_1  and  C_2
REMARK    2  A    between atoms: C_2  and  C_3
REMARK    3  A    between atoms: C_3  and  C_4
REMARK    4  A    between atoms: C_4  and  C_5
REMARK    5  A    between atoms: N_11  and  C_12
REMARK    6  A    between atoms: C_12  and  C_13
REMARK    7  A    between atoms: C_19  and  O_20
REMARK    8  A    between atoms: O_20  and  C_21
REMARK    9  A    between atoms: C_26  and  C_27
REMARK   10  A    between atoms: C_27  and  C_28
REMARK   11  A    between atoms: C_28  and  O_30
REMARK                            x       y       z     vdW  Elec       q    Type
REMARK                         _______ _______ _______ _____ _____    ______ ____
ROOT
ATOM      1  C   UNL     1       2.331   4.286  19.276  0.00  0.00    +0.000 C 
ATOM      2  C   UNL     1       3.550   3.953  18.324  0.00  0.00    +0.000 C 
ATOM      3  O   UNL     1       4.131   2.957  17.957  0.00  0.00    +0.000 OA
ATOM      4  N   UNL     1       3.805   5.267  18.075  0.00  0.00    +0.000 N 
ATOM      5  C   UNL     1       4.755   5.862  17.276  0.00  0.00    +0.000 C 
ATOM      6  O   UNL     1       4.764   7.060  17.013  0.00  0.00    +0.000 OA
ATOM      7  N   UNL     1       5.729   5.016  16.813  0.00  0.00    +0.000 N 
ATOM      8  C   UNL     1       2.578   5.804  18.682  0.00  0.00    +0.000 C 
ATOM      9  H   UNL     1       5.509   4.024  16.795  0.00  0.00    +0.000 HD
ENDROOT
BRANCH   1  11
ATOM     10  C   UNL     1       1.097   2.149  18.563  0.00  0.00    +0.000 C 
ATOM     11  C   UNL     1       1.024   3.660  18.728  0.00  0.00    +0.000 C 
ENDBRANCH   1  11
BRANCH   1  12
ATOM     12  C   UNL     1       2.656   3.797  20.719  0.00  0.00    +0.000 C 
ATOM     13  C   UNL     1       1.410   3.337  21.509  0.00  0.00    +0.000 C 
ENDBRANCH   1  12
BRANCH   7  14
ATOM     14  C   UNL     1       6.821   5.479  15.985  0.00  0.00    +0.000 C 
BRANCH  14  15
ATOM     15  C   UNL     1       6.799   4.880  14.598  0.00  0.00    +0.000 A 
ATOM     16  C   UNL     1       5.833   3.910  14.277  0.00  0.00    +0.000 A 
ATOM     17  C   UNL     1       5.751   3.388  12.984  0.00  0.00    +0.000 A 
ATOM     18  C   UNL     1       6.628   3.816  11.990  0.00  0.00    +0.000 A 
ATOM     19  C   UNL     1       7.589   4.790  12.289  0.00  0.00    +0.000 A 
ATOM     20  C   UNL     1       7.662   5.322  13.582  0.00  0.00    +0.000 A 
ENDBRANCH  14  15
ENDBRANCH   7  14
BRANCH   8  21
ATOM     21  O   UNL     1       2.775   6.939  19.573  0.00  0.00    +0.000 OA
BRANCH  21  22
ATOM     22  C   UNL     1       2.037   8.094  19.335  0.00  0.00    +0.000 A 
ATOM     23  C   UNL     1       2.117   8.705  18.084  0.00  0.00    +0.000 A 
ATOM     24  C   UNL     1       1.239   9.736  17.725  0.00  0.00    +0.000 A 
ATOM     25  C   UNL     1       0.215  10.123  18.582  0.00  0.00    +0.000 A 
ATOM     26  C   UNL     1       0.140   9.549  19.844  0.00  0.00    +0.000 A 
ATOM     27  C   UNL     1       1.086   8.584  20.256  0.00  0.00    +0.000 A 
BRANCH  27  28
ATOM     28  C   UNL     1       1.197   8.376  21.751  0.00  0.00    +0.000 C 
BRANCH  28  29
ATOM     29  C   UNL     1       0.409   9.461  22.490  0.00  0.00    +0.000 C 
ATOM     30  O   UNL     1       0.654  10.660  22.485  0.00  0.00    +0.000 OA
BRANCH  29  31
ATOM     31  O   UNL     1      -0.691   8.990  23.125  0.00  0.00    +0.000 OA
ATOM     32  H   UNL     1      -0.487   8.710  24.035  0.00  0.00    +0.000 HD
ENDBRANCH  29  31
ENDBRANCH  28  29
ENDBRANCH  27  28
ENDBRANCH  21  22
ENDBRANCH   8  21
TORSDOF 9
ENDMDL
MODEL 4
REMARK VINA RESULT:      -8.0      2.045      7.655
REMARK  Name = 
REMARK  11 active torsions:
REMARK  status: ('A' for Active; 'I' for Inactive)
REMARK    1  A    between atoms: C_1  and  C_2
REMARK    2  A    between atoms: C_2  and  C_3
REMARK    3  A    between atoms: C_3  and  C_4
REMARK    4  A    between atoms: C_4  and  C_5
REMARK    5  A    between atoms: N_11  and  C_12
REMARK    6  A    between atoms: C_12  and  C_13
REMARK    7  A    between atoms: C_19  and  O_20
REMARK    8  A    between atoms: O_20  and  C_21
REMARK    9  A    between atoms: C_26  and  C_27
REMARK   10  A    between atoms: C_27  and  C_28
REMARK   11  A    between atoms: C_28  and  O_30
REMARK                            x       y       z     vdW  Elec       q    Type
REMARK                         _______ _______ _______ _____ _____    ______ ____
ROOT
ATOM      1  C   UNL     1       2.966   4.102  19.134  0.00  0.00    +0.000 C 
ATOM      2  C   UNL     1       2.185   5.311  19.791  0.00  0.00    +0.000 C 
ATOM      3  O   UNL     1       1.381   5.455  20.685  0.00  0.00    +0.000 OA
ATOM      4  N   UNL     1       2.699   6.213  18.912  0.00  0.00    +0.000 N 
ATOM      5  C   UNL     1       2.518   7.575  18.813  0.00  0.00    +0.000 C 
ATOM      6  O   UNL     1       3.178   8.293  18.069  0.00  0.00    +0.000 OA
ATOM      7  N   UNL     1       1.508   8.078  19.589  0.00  0.00    +0.000 N 
ATOM      8  C   UNL     1       3.711   5.327  18.319  0.00  0.00    +0.000 C 
ATOM      9  H   UNL     1       1.217   7.521  20.388  0.00  0.00    +0.000 HD
ENDROOT
BRANCH   1  11
ATOM     10  C   UNL     1       4.453   2.091  19.715  0.00  0.00    +0.000 C 
ATOM     11  C   UNL     1       3.913   3.439  20.166  0.00  0.00    +0.000 C 
ENDBRANCH   1  11
BRANCH   1  12
ATOM     12  C   UNL     1       1.942   3.089  18.540  0.00  0.00    +0.000 C 
ATOM     13  C   UNL     1       0.812   2.708  19.524  0.00  0.00    +0.000 C 
ENDBRANCH   1  12
BRANCH   7  14
ATOM     14  C   UNL     1       1.161   9.483  19.585  0.00  0.00    +0.000 C 
BRANCH  14  15
ATOM     15  C   UNL     1       0.364   9.893  20.802  0.00  0.00    +0.000 A 
ATOM     16  C   UNL     1       0.466   9.138  21.985  0.00  0.00    +0.000 A 
ATOM     17  C   UNL     1      -0.211   9.533  23.141  0.00  0.00    +0.000 A 
ATOM     18  C   UNL     1      -1.003  10.679  23.143  0.00  0.00    +0.000 A 
ATOM     19  C   UNL     1      -1.106  11.448  21.977  0.00  0.00    +0.000 A 
ATOM     20  C   UNL     1      -0.418  11.060  20.823  0.00  0.00    +0.000 A 
ENDBRANCH  14  15
ENDBRANCH   7  14
BRANCH   8  21
ATOM     21  O   UNL     1       3.767   5.339  16.864  0.00  0.00    +0.000 OA
BRANCH  21  22
ATOM     22  C   UNL     1       4.982   5.045  16.253  0.00  0.00    +0.000 A 
ATOM     23  C   UNL     1       5.037   4.014  15.315  0.00  0.00    +0.000 A 
ATOM     24  C   UNL     1       6.175   3.820  14.519  0.00  0.00    +0.000 A 
ATOM     25  C   UNL     1       7.248   4.701  14.594  0.00  0.00    +0.000 A 
ATOM     26  C   UNL     1       7.223   5.714  15.543  0.00  0.00    +0.000 A 
ATOM     27  C   UNL     1       6.127   5.852  16.423  0.00  0.00    +0.000 A 
BRANCH  27  28
ATOM     28  C   UNL     1       6.395   6.654  17.679  0.00  0.00    +0.000 C 
BRANCH  28  29
ATOM     29  C   UNL     1       7.386   5.908  18.574  0.00  0.00    +0.000 C 
ATOM     30  O   UNL     1       7.411   4.700  18.773  0.00  0.00    +0.000 OA
BRANCH  29  31
ATOM     31  O   UNL     1       8.343   6.708  19.104  0.00  0.00    +0.000 OA
ATOM     32  H   UNL     1       8.103   7.009  19.999  0.00  0.00    +0.000 HD
ENDBRANCH  29  31
ENDBRANCH  28  29
ENDBRANCH  27  28
ENDBRANCH  21  22
ENDBRANCH   8  21
TORSDOF 9
ENDMDL
MODEL 5
REMARK VINA RESULT:      -7.9      1.989      7.651
REMARK  Name = 
REMARK  11 active torsions:
REMARK  status: ('A' for Active; 'I' for Inactive)
REMARK    1  A    between atoms: C_1  and  C_2
REMARK    2  A    between atoms: C_2  and  C_3
REMARK    3  A    between atoms: C_3  and  C_4
REMARK    4  A    between atoms: C_4  and  C_5
REMARK    5  A    between atoms: N_11  and  C_12
REMARK    6  A    between atoms: C_12  and  C_13
REMARK    7  A    between atoms: C_19  and  O_20
REMARK    8  A    between atoms: O_20  and  C_21
REMARK    9  A    between atoms: C_26  and  C_27
REMARK   10  A    between atoms: C_27  and  C_28
REMARK   11  A    between atoms: C_28  and  O_30
REMARK                            x       y       z     vdW  Elec       q    Type
REMARK                         _______ _______ _______ _____ _____    ______ ____
ROOT
ATOM      1  C   UNL     1       2.656   4.139  19.326  0.00  0.00    +0.000 C 
ATOM      2  C   UNL     1       1.894   5.384  19.936  0.00  0.00    +0.000 C 
ATOM      3  O   UNL     1       1.058   5.568  20.793  0.00  0.00    +0.000 OA
ATOM      4  N   UNL     1       2.479   6.256  19.071  0.00  0.00    +0.000 N 
ATOM      5  C   UNL     1       2.355   7.622  18.951  0.00  0.00    +0.000 C 
ATOM      6  O   UNL     1       3.074   8.305  18.229  0.00  0.00    +0.000 OA
ATOM      7  N   UNL     1       1.332   8.172  19.677  0.00  0.00    +0.000 N 
ATOM      8  C   UNL     1       3.482   5.325  18.532  0.00  0.00    +0.000 C 
ATOM      9  H   UNL     1       0.986   7.636  20.468  0.00  0.00    +0.000 HD
ENDROOT
BRANCH   1  11
ATOM     10  C   UNL     1       2.727   2.672  21.433  0.00  0.00    +0.000 C 
ATOM     11  C   UNL     1       3.532   3.453  20.405  0.00  0.00    +0.000 C 
ENDBRANCH   1  11
BRANCH   1  12
ATOM     12  C   UNL     1       1.621   3.158  18.699  0.00  0.00    +0.000 C 
ATOM     13  C   UNL     1       2.261   2.093  17.780  0.00  0.00    +0.000 C 
ENDBRANCH   1  12
BRANCH   7  14
ATOM     14  C   UNL     1       1.039   9.589  19.643  0.00  0.00    +0.000 C 
BRANCH  14  15
ATOM     15  C   UNL     1       0.317  10.067  20.882  0.00  0.00    +0.000 A 
ATOM     16  C   UNL     1      -0.295  11.333  20.883  0.00  0.00    +0.000 A 
ATOM     17  C   UNL     1      -1.022  11.771  21.992  0.00  0.00    +0.000 A 
ATOM     18  C   UNL     1      -1.152  10.962  23.119  0.00  0.00    +0.000 A 
ATOM     19  C   UNL     1      -0.559   9.693  23.130  0.00  0.00    +0.000 A 
ATOM     20  C   UNL     1       0.159   9.250  22.014  0.00  0.00    +0.000 A 
ENDBRANCH  14  15
ENDBRANCH   7  14
BRANCH   8  21
ATOM     21  O   UNL     1       3.601   5.318  17.081  0.00  0.00    +0.000 OA
BRANCH  21  22
ATOM     22  C   UNL     1       4.841   5.018  16.527  0.00  0.00    +0.000 A 
ATOM     23  C   UNL     1       4.946   3.952  15.633  0.00  0.00    +0.000 A 
ATOM     24  C   UNL     1       6.115   3.743  14.889  0.00  0.00    +0.000 A 
ATOM     25  C   UNL     1       7.172   4.641  14.967  0.00  0.00    +0.000 A 
ATOM     26  C   UNL     1       7.099   5.691  15.874  0.00  0.00    +0.000 A 
ATOM     27  C   UNL     1       5.969   5.847  16.707  0.00  0.00    +0.000 A 
BRANCH  27  28
ATOM     28  C   UNL     1       6.179   6.702  17.938  0.00  0.00    +0.000 C 
BRANCH  28  29
ATOM     29  C   UNL     1       7.194   6.035  18.871  0.00  0.00    +0.000 C 
ATOM     30  O   UNL     1       8.360   6.372  19.026  0.00  0.00    +0.000 OA
BRANCH  29  31
ATOM     31  O   UNL     1       6.664   5.036  19.617  0.00  0.00    +0.000 OA
ATOM     32  H   UNL     1       6.050   5.379  20.291  0.00  0.00    +0.000 HD
ENDBRANCH  29  31
ENDBRANCH  28  29
ENDBRANCH  27  28
ENDBRANCH  21  22
ENDBRANCH   8  21
TORSDOF 9
ENDMDL
MODEL 6
REMARK VINA RESULT:      -7.9      4.467      7.631
REMARK  Name = 
REMARK  11 active torsions:
REMARK  status: ('A' for Active; 'I' for Inactive)
REMARK    1  A    between atoms: C_1  and  C_2
REMARK    2  A    between atoms: C_2  and  C_3
REMARK    3  A    between atoms: C_3  and  C_4
REMARK    4  A    between atoms: C_4  and  C_5
REMARK    5  A    between atoms: N_11  and  C_12
REMARK    6  A    between atoms: C_12  and  C_13
REMARK    7  A    between atoms: C_19  and  O_20
REMARK    8  A    between atoms: O_20  and  C_21
REMARK    9  A    between atoms: C_26  and  C_27
REMARK   10  A    between atoms: C_27  and  C_28
REMARK   11  A    between atoms: C_28  and  O_30
REMARK                            x       y       z     vdW  Elec       q    Type
REMARK                         _______ _______ _______ _____ _____    ______ ____
ROOT
ATOM      1  C   UNL     1      -0.727  11.942  21.735  0.00  0.00    +0.000 C 
ATOM      2  C   UNL     1       0.478  11.100  21.153  0.00  0.00    +0.000 C 
ATOM      3  O   UNL     1       1.592  10.793  21.516  0.00  0.00    +0.000 OA
ATOM      4  N   UNL     1      -0.165  10.859  19.978  0.00  0.00    +0.000 N 
ATOM      5  C   UNL     1       0.223  10.135  18.873  0.00  0.00    +0.000 C 
ATOM      6  O   UNL     1      -0.530   9.861  17.944  0.00  0.00    +0.000 OA
ATOM      7  N   UNL     1       1.542   9.766  18.862  0.00  0.00    +0.000 N 
ATOM      8  C   UNL     1      -1.485  11.354  20.394  0.00  0.00    +0.000 C 
ATOM      9  H   UNL     1       2.023   9.740  19.758  0.00  0.00    +0.000 HD
ENDROOT
BRANCH   1  11
ATOM     10  C   UNL     1      -0.708   9.905  23.298  0.00  0.00    +0.000 C 
ATOM     11  C   UNL     1      -1.270  11.293  23.033  0.00  0.00    +0.000 C 
ENDBRANCH   1  11
BRANCH   1  12
ATOM     12  C   UNL     1      -0.265  13.413  21.962  0.00  0.00    +0.000 C 
ATOM     13  C   UNL     1      -1.178  14.203  22.927  0.00  0.00    +0.000 C 
ENDBRANCH   1  12
BRANCH   7  14
ATOM     14  C   UNL     1       2.126   9.027  17.763  0.00  0.00    +0.000 C 
BRANCH  14  15
ATOM     15  C   UNL     1       2.729   7.711  18.197  0.00  0.00    +0.000 A 
ATOM     16  C   UNL     1       3.786   7.154  17.455  0.00  0.00    +0.000 A 
ATOM     17  C   UNL     1       4.403   5.972  17.873  0.00  0.00    +0.000 A 
ATOM     18  C   UNL     1       3.978   5.321  19.028  0.00  0.00    +0.000 A 
ATOM     19  C   UNL     1       2.934   5.868  19.785  0.00  0.00    +0.000 A 
ATOM     20  C   UNL     1       2.326   7.059  19.375  0.00  0.00    +0.000 A 
ENDBRANCH  14  15
ENDBRANCH   7  14
BRANCH   8  21
ATOM     21  O   UNL     1      -2.138  12.246  19.445  0.00  0.00    +0.000 OA
BRANCH  21  22
ATOM     22  C   UNL     1      -3.528  12.252  19.401  0.00  0.00    +0.000 A 
ATOM     23  C   UNL     1      -4.234  12.992  20.349  0.00  0.00    +0.000 A 
ATOM     24  C   UNL     1      -5.614  13.204  20.221  0.00  0.00    +0.000 A 
ATOM     25  C   UNL     1      -6.298  12.745  19.102  0.00  0.00    +0.000 A 
ATOM     26  C   UNL     1      -5.619  11.980  18.163  0.00  0.00    +0.000 A 
ATOM     27  C   UNL     1      -4.251  11.670  18.338  0.00  0.00    +0.000 A 
BRANCH  27  28
ATOM     28  C   UNL     1      -3.744  10.488  17.540  0.00  0.00    +0.000 C 
BRANCH  28  29
ATOM     29  C   UNL     1      -3.197  10.963  16.192  0.00  0.00    +0.000 C 
ATOM     30  O   UNL     1      -3.715  10.782  15.098  0.00  0.00    +0.000 OA
BRANCH  29  31
ATOM     31  O   UNL     1      -2.072  11.712  16.300  0.00  0.00    +0.000 OA
ATOM     32  H   UNL     1      -1.442  11.518  15.583  0.00  0.00    +0.000 HD
ENDBRANCH  29  31
ENDBRANCH  28  29
ENDBRANCH  27  28
ENDBRANCH  21  22
ENDBRANCH   8  21
TORSDOF 9
ENDMDL
MODEL 7
REMARK VINA RESULT:      -7.7      4.644      8.108
REMARK  Name = 
REMARK  11 active torsions:
REMARK  status: ('A' for Active; 'I' for Inactive)
REMARK    1  A    between atoms: C_1  and  C_2
REMARK    2  A    between atoms: C_2  and  C_3
REMARK    3  A    between atoms: C_3  and  C_4
REMARK    4  A    between atoms: C_4  and  C_5
REMARK    5  A    between atoms: N_11  and  C_12
REMARK    6  A    between atoms: C_12  and  C_13
REMARK    7  A    between atoms: C_19  and  O_20
REMARK    8  A    between atoms: O_20  and  C_21
REMARK    9  A    between atoms: C_26  and  C_27
REMARK   10  A    between atoms: C_27  and  C_28
REMARK   11  A    between atoms: C_28  and  O_30
REMARK                            x       y       z     vdW  Elec       q    Type
REMARK                         _______ _______ _______ _____ _____    ______ ____
ROOT
ATOM      1  C   UNL     1      -0.839  12.654  21.396  0.00  0.00    +0.000 C 
ATOM      2  C   UNL     1       0.411  11.831  20.882  0.00  0.00    +0.000 C 
ATOM      3  O   UNL     1       1.575  11.718  21.192  0.00  0.00    +0.000 OA
ATOM      4  N   UNL     1      -0.284  11.289  19.845  0.00  0.00    +0.000 N 
ATOM      5  C   UNL     1       0.103  10.393  18.875  0.00  0.00    +0.000 C 
ATOM      6  O   UNL     1      -0.679   9.860  18.095  0.00  0.00    +0.000 OA
ATOM      7  N   UNL     1       1.452  10.160  18.813  0.00  0.00    +0.000 N 
ATOM      8  C   UNL     1      -1.619  11.729  20.277  0.00  0.00    +0.000 C 
ATOM      9  H   UNL     1       1.996  10.369  19.647  0.00  0.00    +0.000 HD
ENDROOT
BRANCH   1  11
ATOM     10  C   UNL     1      -2.704  12.252  23.115  0.00  0.00    +0.000 C 
ATOM     11  C   UNL     1      -1.208  12.240  22.843  0.00  0.00    +0.000 C 
ENDBRANCH   1  11
BRANCH   1  12
ATOM     12  C   UNL     1      -0.534  14.178  21.282  0.00  0.00    +0.000 C 
ATOM     13  C   UNL     1      -0.631  14.718  19.837  0.00  0.00    +0.000 C 
ENDBRANCH   1  12
BRANCH   7  14
ATOM     14  C   UNL     1       2.036   9.270  17.833  0.00  0.00    +0.000 C 
BRANCH  14  15
ATOM     15  C   UNL     1       2.491   7.959  18.431  0.00  0.00    +0.000 A 
ATOM     16  C   UNL     1       1.927   7.515  19.641  0.00  0.00    +0.000 A 
ATOM     17  C   UNL     1       2.284   6.277  20.181  0.00  0.00    +0.000 A 
ATOM     18  C   UNL     1       3.208   5.461  19.532  0.00  0.00    +0.000 A 
ATOM     19  C   UNL     1       3.770   5.882  18.320  0.00  0.00    +0.000 A 
ATOM     20  C   UNL     1       3.402   7.116  17.773  0.00  0.00    +0.000 A 
ENDBRANCH  14  15
ENDBRANCH   7  14
BRANCH   8  21
ATOM     21  O   UNL     1      -2.437  12.336  19.235  0.00  0.00    +0.000 OA
BRANCH  21  22
ATOM     22  C   UNL     1      -3.787  12.005  19.186  0.00  0.00    +0.000 A 
ATOM     23  C   UNL     1      -4.644  12.506  20.166  0.00  0.00    +0.000 A 
ATOM     24  C   UNL     1      -6.035  12.381  20.042  0.00  0.00    +0.000 A 
ATOM     25  C   UNL     1      -6.596  11.822  18.901  0.00  0.00    +0.000 A 
ATOM     26  C   UNL     1      -5.758  11.290  17.929  0.00  0.00    +0.000 A 
ATOM     27  C   UNL     1      -4.355  11.314  18.095  0.00  0.00    +0.000 A 
BRANCH  27  28
ATOM     28  C   UNL     1      -3.581  10.330  17.244  0.00  0.00    +0.000 C 
BRANCH  28  29
ATOM     29  C   UNL     1      -3.000  11.041  16.020  0.00  0.00    +0.000 C 
ATOM     30  O   UNL     1      -3.410  10.949  14.870  0.00  0.00    +0.000 OA
BRANCH  29  31
ATOM     31  O   UNL     1      -1.988  11.891  16.320  0.00  0.00    +0.000 OA
ATOM     32  H   UNL     1      -1.330  11.473  16.904  0.00  0.00    +0.000 HD
ENDBRANCH  29  31
ENDBRANCH  28  29
ENDBRANCH  27  28
ENDBRANCH  21  22
ENDBRANCH   8  21
TORSDOF 9
ENDMDL
MODEL 8
REMARK VINA RESULT:      -7.6      1.708      2.477
REMARK  Name = 
REMARK  11 active torsions:
REMARK  status: ('A' for Active; 'I' for Inactive)
REMARK    1  A    between atoms: C_1  and  C_2
REMARK    2  A    between atoms: C_2  and  C_3
REMARK    3  A    between atoms: C_3  and  C_4
REMARK    4  A    between atoms: C_4  and  C_5
REMARK    5  A    between atoms: N_11  and  C_12
REMARK    6  A    between atoms: C_12  and  C_13
REMARK    7  A    between atoms: C_19  and  O_20
REMARK    8  A    between atoms: O_20  and  C_21
REMARK    9  A    between atoms: C_26  and  C_27
REMARK   10  A    between atoms: C_27  and  C_28
REMARK   11  A    between atoms: C_28  and  O_30
REMARK                            x       y       z     vdW  Elec       q    Type
REMARK                         _______ _______ _______ _____ _____    ______ ____
ROOT
ATOM      1  C   UNL     1       2.389   3.873  19.126  0.00  0.00    +0.000 C 
ATOM      2  C   UNL     1       3.546   3.636  18.074  0.00  0.00    +0.000 C 
ATOM      3  O   UNL     1       4.065   2.681  17.540  0.00  0.00    +0.000 OA
ATOM      4  N   UNL     1       3.845   4.961  17.997  0.00  0.00    +0.000 N 
ATOM      5  C   UNL     1       4.780   5.629  17.239  0.00  0.00    +0.000 C 
ATOM      6  O   UNL     1       4.828   6.851  17.146  0.00  0.00    +0.000 OA
ATOM      7  N   UNL     1       5.694   4.823  16.612  0.00  0.00    +0.000 N 
ATOM      8  C   UNL     1       2.672   5.451  18.737  0.00  0.00    +0.000 C 
ATOM      9  H   UNL     1       5.431   3.851  16.468  0.00  0.00    +0.000 HD
ENDROOT
BRANCH   1  11
ATOM     10  C   UNL     1       0.837   1.875  18.687  0.00  0.00    +0.000 C 
ATOM     11  C   UNL     1       1.032   3.378  18.567  0.00  0.00    +0.000 C 
ENDBRANCH   1  11
BRANCH   1  12
ATOM     12  C   UNL     1       2.762   3.174  20.467  0.00  0.00    +0.000 C 
ATOM     13  C   UNL     1       1.758   3.455  21.608  0.00  0.00    +0.000 C 
ENDBRANCH   1  12
BRANCH   7  14
ATOM     14  C   UNL     1       6.764   5.359  15.800  0.00  0.00    +0.000 C 
BRANCH  14  15
ATOM     15  C   UNL     1       6.731   4.850  14.377  0.00  0.00    +0.000 A 
ATOM     16  C   UNL     1       7.698   5.296  13.458  0.00  0.00    +0.000 A 
ATOM     17  C   UNL     1       7.727   4.792  12.156  0.00  0.00    +0.000 A 
ATOM     18  C   UNL     1       6.797   3.841  11.743  0.00  0.00    +0.000 A 
ATOM     19  C   UNL     1       5.835   3.377  12.649  0.00  0.00    +0.000 A 
ATOM     20  C   UNL     1       5.814   3.873  13.957  0.00  0.00    +0.000 A 
ENDBRANCH  14  15
ENDBRANCH   7  14
BRANCH   8  21
ATOM     21  O   UNL     1       2.960   6.440  19.767  0.00  0.00    +0.000 OA
BRANCH  21  22
ATOM     22  C   UNL     1       1.935   7.295  20.158  0.00  0.00    +0.000 A 
ATOM     23  C   UNL     1       1.112   6.925  21.222  0.00  0.00    +0.000 A 
ATOM     24  C   UNL     1       0.211   7.836  21.791  0.00  0.00    +0.000 A 
ATOM     25  C   UNL     1       0.171   9.155  21.356  0.00  0.00    +0.000 A 
ATOM     26  C   UNL     1       0.960   9.534  20.278  0.00  0.00    +0.000 A 
ATOM     27  C   UNL     1       1.793   8.595  19.628  0.00  0.00    +0.000 A 
BRANCH  27  28
ATOM     28  C   UNL     1       2.234   8.973  18.230  0.00  0.00    +0.000 C 
BRANCH  28  29
ATOM     29  C   UNL     1       1.767  10.392  17.900  0.00  0.00    +0.000 C 
ATOM     30  O   UNL     1       2.476  11.387  17.834  0.00  0.00    +0.000 OA
BRANCH  29  31
ATOM     31  O   UNL     1       0.450  10.468  17.590  0.00  0.00    +0.000 OA
ATOM     32  H   UNL     1      -0.086  10.723  18.362  0.00  0.00    +0.000 HD
ENDBRANCH  29  31
ENDBRANCH  28  29
ENDBRANCH  27  28
ENDBRANCH  21  22
ENDBRANCH   8  21
TORSDOF 9
ENDMDL
MODEL 9
REMARK VINA RESULT:      -7.6      2.065      7.284
REMARK  Name = 
REMARK  11 active torsions:
REMARK  status: ('A' for Active; 'I' for Inactive)
REMARK    1  A    between atoms: C_1  and  C_2
REMARK    2  A    between atoms: C_2  and  C_3
REMARK    3  A    between atoms: C_3  and  C_4
REMARK    4  A    between atoms: C_4  and  C_5
REMARK    5  A    between atoms: N_11  and  C_12
REMARK    6  A    between atoms: C_12  and  C_13
REMARK    7  A    between atoms: C_19  and  O_20
REMARK    8  A    between atoms: O_20  and  C_21
REMARK    9  A    between atoms: C_26  and  C_27
REMARK   10  A    between atoms: C_27  and  C_28
REMARK   11  A    between atoms: C_28  and  O_30
REMARK                            x       y       z     vdW  Elec       q    Type
REMARK                         _______ _______ _______ _____ _____    ______ ____
ROOT
ATOM      1  C   UNL     1       2.514   4.333  19.501  0.00  0.00    +0.000 C 
ATOM      2  C   UNL     1       1.893   5.725  19.923  0.00  0.00    +0.000 C 
ATOM      3  O   UNL     1       1.094   6.118  20.743  0.00  0.00    +0.000 OA
ATOM      4  N   UNL     1       2.552   6.397  18.939  0.00  0.00    +0.000 N 
ATOM      5  C   UNL     1       2.567   7.736  18.621  0.00  0.00    +0.000 C 
ATOM      6  O   UNL     1       3.341   8.229  17.807  0.00  0.00    +0.000 OA
ATOM      7  N   UNL     1       1.617   8.490  19.259  0.00  0.00    +0.000 N 
ATOM      8  C   UNL     1       3.445   5.299  18.542  0.00  0.00    +0.000 C 
ATOM      9  H   UNL     1       1.230   8.113  20.120  0.00  0.00    +0.000 HD
ENDROOT
BRANCH   1  11
ATOM     10  C   UNL     1       2.484   2.931  21.652  0.00  0.00    +0.000 C 
ATOM     11  C   UNL     1       3.331   3.723  20.668  0.00  0.00    +0.000 C 
ENDBRANCH   1  11
BRANCH   1  12
ATOM     12  C   UNL     1       1.374   3.385  19.023  0.00  0.00    +0.000 C 
ATOM     13  C   UNL     1       1.869   2.233  18.119  0.00  0.00    +0.000 C 
ENDBRANCH   1  12
BRANCH   7  14
ATOM     14  C   UNL     1       1.472   9.909  19.019  0.00  0.00    +0.000 C 
BRANCH  14  15
ATOM     15  C   UNL     1       0.046  10.308  18.714  0.00  0.00    +0.000 A 
ATOM     16  C   UNL     1      -0.634   9.689  17.650  0.00  0.00    +0.000 A 
ATOM     17  C   UNL     1      -1.972   9.994  17.388  0.00  0.00    +0.000 A 
ATOM     18  C   UNL     1      -2.655  10.920  18.173  0.00  0.00    +0.000 A 
ATOM     19  C   UNL     1      -1.996  11.537  19.244  0.00  0.00    +0.000 A 
ATOM     20  C   UNL     1      -0.659  11.222  19.514  0.00  0.00    +0.000 A 
ENDBRANCH  14  15
ENDBRANCH   7  14
BRANCH   8  21
ATOM     21  O   UNL     1       3.540   5.068  17.107  0.00  0.00    +0.000 OA
BRANCH  21  22
ATOM     22  C   UNL     1       4.802   4.861  16.559  0.00  0.00    +0.000 A 
ATOM     23  C   UNL     1       4.938   3.992  15.477  0.00  0.00    +0.000 A 
ATOM     24  C   UNL     1       6.138   3.914  14.757  0.00  0.00    +0.000 A 
ATOM     25  C   UNL     1       7.199   4.759  15.059  0.00  0.00    +0.000 A 
ATOM     26  C   UNL     1       7.094   5.609  16.152  0.00  0.00    +0.000 A 
ATOM     27  C   UNL     1       5.927   5.618  16.949  0.00  0.00    +0.000 A 
BRANCH  27  28
ATOM     28  C   UNL     1       6.089   6.209  18.334  0.00  0.00    +0.000 C 
BRANCH  28  29
ATOM     29  C   UNL     1       7.504   5.945  18.853  0.00  0.00    +0.000 C 
ATOM     30  O   UNL     1       7.960   4.859  19.184  0.00  0.00    +0.000 OA
BRANCH  29  31
ATOM     31  O   UNL     1       8.294   7.047  18.848  0.00  0.00    +0.000 OA
ATOM     32  H   UNL     1       8.386   7.425  19.741  0.00  0.00    +0.000 HD
ENDBRANCH  29  31
ENDBRANCH  28  29
ENDBRANCH  27  28
ENDBRANCH  21  22
ENDBRANCH   8  21
TORSDOF 9
ENDMDL
