MODEL 1
REMARK VINA RESULT:      -8.2      0.000      0.000
REMARK  Name = 
REMARK  6 active torsions:
REMARK  status: ('A' for Active; 'I' for Inactive)
REMARK    1  A    between atoms: C_2  and  C_3
REMARK    2  A    between atoms: C_2  and  C_11
REMARK    3  A    between atoms: C_3  and  C_4
REMARK    4  A    between atoms: C_9  and  O_10
REMARK    5  A    between atoms: C_11  and  N_12
REMARK    6  A    between atoms: C_18  and  C_19
REMARK                            x       y       z     vdW  Elec       q    Type
REMARK                         _______ _______ _______ _____ _____    ______ ____
ROOT
ATOM      1  N   UNL     1       5.795   5.672  16.976  0.00  0.00    +0.000 N 
ATOM      2  C   UNL     1       7.060   6.086  16.628  0.00  0.00    +0.000 A 
ATOM      3  N   UNL     1       7.644   5.809  15.512  0.00  0.00    +0.000 NA
ATOM      4  C   UNL     1       6.927   5.070  14.562  0.00  0.00    +0.000 A 
ATOM      5  C   UNL     1       7.521   4.780  13.331  0.00  0.00    +0.000 A 
ATOM      6  C   UNL     1       6.806   4.099  12.335  0.00  0.00    +0.000 A 
ATOM      7  C   UNL     1       5.480   3.697  12.556  0.00  0.00    +0.000 A 
ATOM      8  C   UNL     1       4.895   3.957  13.805  0.00  0.00    +0.000 A 
ATOM      9  C   UNL     1       5.624   4.636  14.791  0.00  0.00    +0.000 A 
ATOM     10  C   UNL     1       5.020   4.927  16.104  0.00  0.00    +0.000 A 
ATOM     11  O   UNL     1       3.894   4.519  16.375  0.00  0.00    +0.000 OA
ENDROOT
BRANCH   7  12
ATOM     12  C   UNL     1       4.664   3.020  11.480  0.00  0.00    +0.000 C 
ATOM     13  F   UNL     1       3.389   2.734  11.859  0.00  0.00    +0.000 F 
ATOM     14  F   UNL     1       4.561   3.775  10.352  0.00  0.00    +0.000 F 
ATOM     15  F   UNL     1       5.213   1.836  11.090  0.00  0.00    +0.000 F 
ENDBRANCH   7  12
BRANCH   1  16
ATOM     16  C   UNL     1       5.241   5.996  18.284  0.00  0.00    +0.000 C 
BRANCH  16  18
ATOM     17  O   UNL     1       6.766   4.912  19.787  0.00  0.00    +0.000 OA
ATOM     18  C   UNL     1       5.636   4.921  19.292  0.00  0.00    +0.000 C 
BRANCH  18  19
ATOM     19  C   UNL     1       4.559   3.918  19.682  0.00  0.00    +0.000 C 
BRANCH  19  20
ATOM     20  C   UNL     1       3.123   4.464  19.554  0.00  0.00    +0.000 C 
ATOM     21  N   UNL     1       2.209   3.633  18.736  0.00  0.00    +0.000 NA
ATOM     22  C   UNL     1       1.959   2.318  19.327  0.00  0.00    +0.000 C 
ATOM     23  C   UNL     1       1.322   2.441  20.710  0.00  0.00    +0.000 C 
ATOM     24  C   UNL     1       2.102   3.380  21.634  0.00  0.00    +0.000 C 
ATOM     25  C   UNL     1       2.455   4.696  20.934  0.00  0.00    +0.000 C 
ATOM     26  H   UNL     1       2.628   3.519  17.805  0.00  0.00    +0.000 HD
BRANCH  25  27
ATOM     27  O   UNL     1       1.243   5.435  20.734  0.00  0.00    +0.000 OA
ATOM     28  H   UNL     1       1.389   5.940  19.908  0.00  0.00    +0.000 HD
ENDBRANCH  25  27
ENDBRANCH  19  20
ENDBRANCH  18  19
ENDBRANCH  16  18
ENDBRANCH   1  16
TORSDOF 6
ENDMDL
MODEL 2
REMARK VINA RESULT:      -8.1      1.358      1.754
REMARK  Name = 
REMARK  6 active torsions:
REMARK  status: ('A' for Active; 'I' for Inactive)
REMARK    1  A    between atoms: C_2  and  C_3
REMARK    2  A    between atoms: C_2  and  C_11
REMARK    3  A    between atoms: C_3  and  C_4
REMARK    4  A    between atoms: C_9  and  O_10
REMARK    5  A    between atoms: C_11  and  N_12
REMARK    6  A    between atoms: C_18  and  C_19
REMARK                            x       y       z     vdW  Elec       q    Type
REMARK                         _______ _______ _______ _____ _____    ______ ____
ROOT
ATOM      1  N   UNL     1       6.118   4.819  17.168  0.00  0.00    +0.000 N 
ATOM      2  C   UNL     1       7.236   5.517  16.772  0.00  0.00    +0.000 A 
ATOM      3  N   UNL     1       7.684   5.563  15.563  0.00  0.00    +0.000 NA
ATOM      4  C   UNL     1       6.960   4.893  14.568  0.00  0.00    +0.000 A 
ATOM      5  C   UNL     1       7.404   4.950  13.245  0.00  0.00    +0.000 A 
ATOM      6  C   UNL     1       6.666   4.345  12.217  0.00  0.00    +0.000 A 
ATOM      7  C   UNL     1       5.468   3.671  12.499  0.00  0.00    +0.000 A 
ATOM      8  C   UNL     1       5.042   3.583  13.834  0.00  0.00    +0.000 A 
ATOM      9  C   UNL     1       5.791   4.190  14.849  0.00  0.00    +0.000 A 
ATOM     10  C   UNL     1       5.350   4.118  16.254  0.00  0.00    +0.000 A 
ATOM     11  O   UNL     1       4.356   3.466  16.561  0.00  0.00    +0.000 OA
ENDROOT
BRANCH   7  12
ATOM     12  C   UNL     1       4.620   3.064  11.406  0.00  0.00    +0.000 C 
ATOM     13  F   UNL     1       4.498   3.856  10.306  0.00  0.00    +0.000 F 
ATOM     14  F   UNL     1       5.114   1.877  10.962  0.00  0.00    +0.000 F 
ATOM     15  F   UNL     1       3.350   2.808  11.826  0.00  0.00    +0.000 F 
ENDBRANCH   7  12
BRANCH   1  16
ATOM     16  C   UNL     1       5.720   4.788  18.569  0.00  0.00    +0.000 C 
BRANCH  16  18
ATOM     17  O   UNL     1       4.296   6.678  18.177  0.00  0.00    +0.000 OA
ATOM     18  C   UNL     1       4.446   5.604  18.762  0.00  0.00    +0.000 C 
BRANCH  18  19
ATOM     19  C   UNL     1       3.373   4.997  19.657  0.00  0.00    +0.000 C 
BRANCH  19  20
ATOM     20  C   UNL     1       3.157   3.487  19.437  0.00  0.00    +0.000 C 
ATOM     21  N   UNL     1       3.465   2.635  20.609  0.00  0.00    +0.000 NA
ATOM     22  C   UNL     1       2.570   2.885  21.740  0.00  0.00    +0.000 C 
ATOM     23  C   UNL     1       1.113   2.613  21.368  0.00  0.00    +0.000 C 
ATOM     24  C   UNL     1       0.688   3.341  20.090  0.00  0.00    +0.000 C 
ATOM     25  C   UNL     1       1.716   3.159  18.968  0.00  0.00    +0.000 C 
ATOM     26  H   UNL     1       4.436   2.816  20.890  0.00  0.00    +0.000 HD
BRANCH  25  27
ATOM     27  O   UNL     1       1.677   1.790  18.544  0.00  0.00    +0.000 OA
ATOM     28  H   UNL     1       1.646   1.830  17.566  0.00  0.00    +0.000 HD
ENDBRANCH  25  27
ENDBRANCH  19  20
ENDBRANCH  18  19
ENDBRANCH  16  18
ENDBRANCH   1  16
TORSDOF 6
ENDMDL
MODEL 3
REMARK VINA RESULT:      -8.0      1.203      1.276
REMARK  Name = 
REMARK  6 active torsions:
REMARK  status: ('A' for Active; 'I' for Inactive)
REMARK    1  A    between atoms: C_2  and  C_3
REMARK    2  A    between atoms: C_2  and  C_11
REMARK    3  A    between atoms: C_3  and  C_4
REMARK    4  A    between atoms: C_9  and  O_10
REMARK    5  A    between atoms: C_11  and  N_12
REMARK    6  A    between atoms: C_18  and  C_19
REMARK                            x       y       z     vdW  Elec       q    Type
REMARK                         _______ _______ _______ _____ _____    ______ ____
ROOT
ATOM      1  N   UNL     1       5.970   5.127  17.213  0.00  0.00    +0.000 N 
ATOM      2  C   UNL     1       7.090   5.826  16.827  0.00  0.00    +0.000 A 
ATOM      3  N   UNL     1       7.597   5.805  15.641  0.00  0.00    +0.000 NA
ATOM      4  C   UNL     1       6.939   5.053  14.658  0.00  0.00    +0.000 A 
ATOM      5  C   UNL     1       7.446   5.035  13.357  0.00  0.00    +0.000 A 
ATOM      6  C   UNL     1       6.775   4.346  12.337  0.00  0.00    +0.000 A 
ATOM      7  C   UNL     1       5.580   3.661  12.605  0.00  0.00    +0.000 A 
ATOM      8  C   UNL     1       5.089   3.650  13.920  0.00  0.00    +0.000 A 
ATOM      9  C   UNL     1       5.773   4.341  14.928  0.00  0.00    +0.000 A 
ATOM     10  C   UNL     1       5.264   4.349  16.312  0.00  0.00    +0.000 A 
ATOM     11  O   UNL     1       4.271   3.693  16.613  0.00  0.00    +0.000 OA
ENDROOT
BRANCH   7  12
ATOM     12  C   UNL     1       4.801   2.964  11.515  0.00  0.00    +0.000 C 
ATOM     13  F   UNL     1       3.494   2.748  11.829  0.00  0.00    +0.000 F 
ATOM     14  F   UNL     1       4.797   3.665  10.348  0.00  0.00    +0.000 F 
ATOM     15  F   UNL     1       5.321   1.741  11.216  0.00  0.00    +0.000 F 
ENDBRANCH   7  12
BRANCH   1  16
ATOM     16  C   UNL     1       5.503   5.177  18.593  0.00  0.00    +0.000 C 
BRANCH  16  18
ATOM     17  O   UNL     1       3.931   6.816  17.818  0.00  0.00    +0.000 OA
ATOM     18  C   UNL     1       4.198   5.963  18.668  0.00  0.00    +0.000 C 
BRANCH  18  19
ATOM     19  C   UNL     1       3.243   5.599  19.797  0.00  0.00    +0.000 C 
BRANCH  19  20
ATOM     20  C   UNL     1       2.259   4.466  19.443  0.00  0.00    +0.000 C 
ATOM     21  N   UNL     1       2.895   3.188  19.047  0.00  0.00    +0.000 NA
ATOM     22  C   UNL     1       3.653   2.572  20.137  0.00  0.00    +0.000 C 
ATOM     23  C   UNL     1       2.755   2.265  21.335  0.00  0.00    +0.000 C 
ATOM     24  C   UNL     1       1.935   3.478  21.780  0.00  0.00    +0.000 C 
ATOM     25  C   UNL     1       1.261   4.171  20.591  0.00  0.00    +0.000 C 
ATOM     26  H   UNL     1       3.521   3.374  18.253  0.00  0.00    +0.000 HD
BRANCH  25  27
ATOM     27  O   UNL     1       0.236   3.303  20.090  0.00  0.00    +0.000 OA
ATOM     28  H   UNL     1      -0.567   3.541  20.596  0.00  0.00    +0.000 HD
ENDBRANCH  25  27
ENDBRANCH  19  20
ENDBRANCH  18  19
ENDBRANCH  16  18
ENDBRANCH   1  16
TORSDOF 6
ENDMDL
MODEL 4
REMARK VINA RESULT:      -8.0      1.249      1.542
REMARK  Name = 
REMARK  6 active torsions:
REMARK  status: ('A' for Active; 'I' for Inactive)
REMARK    1  A    between atoms: C_2  and  C_3
REMARK    2  A    between atoms: C_2  and  C_11
REMARK    3  A    between atoms: C_3  and  C_4
REMARK    4  A    between atoms: C_9  and  O_10
REMARK    5  A    between atoms: C_11  and  N_12
REMARK    6  A    between atoms: C_18  and  C_19
REMARK                            x       y       z     vdW  Elec       q    Type
REMARK                         _______ _______ _______ _____ _____    ______ ____
ROOT
ATOM      1  N   UNL     1       5.791   5.772  16.935  0.00  0.00    +0.000 N 
ATOM      2  C   UNL     1       7.070   6.147  16.591  0.00  0.00    +0.000 A 
ATOM      3  N   UNL     1       7.659   5.831  15.488  0.00  0.00    +0.000 NA
ATOM      4  C   UNL     1       6.933   5.089  14.546  0.00  0.00    +0.000 A 
ATOM      5  C   UNL     1       7.533   4.757  13.329  0.00  0.00    +0.000 A 
ATOM      6  C   UNL     1       6.812   4.072  12.340  0.00  0.00    +0.000 A 
ATOM      7  C   UNL     1       5.474   3.707  12.556  0.00  0.00    +0.000 A 
ATOM      8  C   UNL     1       4.884   4.009  13.793  0.00  0.00    +0.000 A 
ATOM      9  C   UNL     1       5.618   4.691  14.771  0.00  0.00    +0.000 A 
ATOM     10  C   UNL     1       5.008   5.026  16.071  0.00  0.00    +0.000 A 
ATOM     11  O   UNL     1       3.870   4.652  16.338  0.00  0.00    +0.000 OA
ENDROOT
BRANCH   7  12
ATOM     12  C   UNL     1       4.654   3.025  11.486  0.00  0.00    +0.000 C 
ATOM     13  F   UNL     1       3.374   2.758  11.866  0.00  0.00    +0.000 F 
ATOM     14  F   UNL     1       4.562   3.767  10.349  0.00  0.00    +0.000 F 
ATOM     15  F   UNL     1       5.190   1.831  11.113  0.00  0.00    +0.000 F 
ENDBRANCH   7  12
BRANCH   1  16
ATOM     16  C   UNL     1       5.232   6.138  18.229  0.00  0.00    +0.000 C 
BRANCH  16  18
ATOM     17  O   UNL     1       6.248   4.266  19.333  0.00  0.00    +0.000 OA
ATOM     18  C   UNL     1       5.220   4.921  19.149  0.00  0.00    +0.000 C 
BRANCH  18  19
ATOM     19  C   UNL     1       3.906   4.605  19.850  0.00  0.00    +0.000 C 
BRANCH  19  20
ATOM     20  C   UNL     1       3.556   3.104  19.875  0.00  0.00    +0.000 C 
ATOM     21  N   UNL     1       2.726   2.674  21.024  0.00  0.00    +0.000 NA
ATOM     22  C   UNL     1       1.391   3.274  21.011  0.00  0.00    +0.000 C 
ATOM     23  C   UNL     1       0.622   2.895  19.746  0.00  0.00    +0.000 C 
ATOM     24  C   UNL     1       1.420   3.172  18.469  0.00  0.00    +0.000 C 
ATOM     25  C   UNL     1       2.854   2.640  18.573  0.00  0.00    +0.000 C 
ATOM     26  H   UNL     1       3.214   2.938  21.888  0.00  0.00    +0.000 HD
BRANCH  25  27
ATOM     27  O   UNL     1       2.800   1.207  18.570  0.00  0.00    +0.000 OA
ATOM     28  H   UNL     1       2.669   0.958  19.508  0.00  0.00    +0.000 HD
ENDBRANCH  25  27
ENDBRANCH  19  20
ENDBRANCH  18  19
ENDBRANCH  16  18
ENDBRANCH   1  16
TORSDOF 6
ENDMDL
MODEL 5
REMARK VINA RESULT:      -7.9      0.947      1.367
REMARK  Name = 
REMARK  6 active torsions:
REMARK  status: ('A' for Active; 'I' for Inactive)
REMARK    1  A    between atoms: C_2  and  C_3
REMARK    2  A    between atoms: C_2  and  C_11
REMARK    3  A    between atoms: C_3  and  C_4
REMARK    4  A    between atoms: C_9  and  O_10
REMARK    5  A    between atoms: C_11  and  N_12
REMARK    6  A    between atoms: C_18  and  C_19
REMARK                            x       y       z     vdW  Elec       q    Type
REMARK                         _______ _______ _______ _____ _____    ______ ____
ROOT
ATOM      1  N   UNL     1       5.758   5.590  16.981  0.00  0.00    +0.000 N 
ATOM      2  C   UNL     1       7.016   6.028  16.634  0.00  0.00    +0.000 A 
ATOM      3  N   UNL     1       7.599   5.778  15.511  0.00  0.00    +0.000 NA
ATOM      4  C   UNL     1       6.888   5.044  14.552  0.00  0.00    +0.000 A 
ATOM      5  C   UNL     1       7.481   4.784  13.314  0.00  0.00    +0.000 A 
ATOM      6  C   UNL     1       6.771   4.109  12.310  0.00  0.00    +0.000 A 
ATOM      7  C   UNL     1       5.452   3.684  12.530  0.00  0.00    +0.000 A 
ATOM      8  C   UNL     1       4.870   3.915  13.786  0.00  0.00    +0.000 A 
ATOM      9  C   UNL     1       5.592   4.587  14.779  0.00  0.00    +0.000 A 
ATOM     10  C   UNL     1       4.990   4.848  16.099  0.00  0.00    +0.000 A 
ATOM     11  O   UNL     1       3.872   4.419  16.368  0.00  0.00    +0.000 OA
ENDROOT
BRANCH   7  12
ATOM     12  C   UNL     1       4.642   3.013  11.446  0.00  0.00    +0.000 C 
ATOM     13  F   UNL     1       5.169   1.833  11.020  0.00  0.00    +0.000 F 
ATOM     14  F   UNL     1       3.370   2.734  11.844  0.00  0.00    +0.000 F 
ATOM     15  F   UNL     1       4.524   3.793  10.336  0.00  0.00    +0.000 F 
ENDBRANCH   7  12
BRANCH   1  16
ATOM     16  C   UNL     1       5.206   5.883  18.296  0.00  0.00    +0.000 C 
BRANCH  16  18
ATOM     17  O   UNL     1       6.679   4.856  19.887  0.00  0.00    +0.000 OA
ATOM     18  C   UNL     1       5.608   4.790  19.281  0.00  0.00    +0.000 C 
BRANCH  18  19
ATOM     19  C   UNL     1       4.604   3.666  19.504  0.00  0.00    +0.000 C 
BRANCH  19  20
ATOM     20  C   UNL     1       3.628   3.923  20.669  0.00  0.00    +0.000 C 
ATOM     21  N   UNL     1       2.712   5.071  20.474  0.00  0.00    +0.000 NA
ATOM     22  C   UNL     1       1.780   4.868  19.365  0.00  0.00    +0.000 C 
ATOM     23  C   UNL     1       0.902   3.639  19.593  0.00  0.00    +0.000 C 
ATOM     24  C   UNL     1       1.719   2.389  19.931  0.00  0.00    +0.000 C 
ATOM     25  C   UNL     1       2.771   2.676  21.007  0.00  0.00    +0.000 C 
ATOM     26  H   UNL     1       3.281   5.909  20.299  0.00  0.00    +0.000 HD
BRANCH  25  27
ATOM     27  O   UNL     1       2.090   2.915  22.246  0.00  0.00    +0.000 OA
ATOM     28  H   UNL     1       2.132   2.062  22.725  0.00  0.00    +0.000 HD
ENDBRANCH  25  27
ENDBRANCH  19  20
ENDBRANCH  18  19
ENDBRANCH  16  18
ENDBRANCH   1  16
TORSDOF 6
ENDMDL
MODEL 6
REMARK VINA RESULT:      -7.9      1.078      1.425
REMARK  Name = 
REMARK  6 active torsions:
REMARK  status: ('A' for Active; 'I' for Inactive)
REMARK    1  A    between atoms: C_2  and  C_3
REMARK    2  A    between atoms: C_2  and  C_11
REMARK    3  A    between atoms: C_3  and  C_4
REMARK    4  A    between atoms: C_9  and  O_10
REMARK    5  A    between atoms: C_11  and  N_12
REMARK    6  A    between atoms: C_18  and  C_19
REMARK                            x       y       z     vdW  Elec       q    Type
REMARK                         _______ _______ _______ _____ _____    ______ ____
ROOT
ATOM      1  N   UNL     1       5.950   5.763  16.891  0.00  0.00    +0.000 N 
ATOM      2  C   UNL     1       7.243   6.046  16.514  0.00  0.00    +0.000 A 
ATOM      3  N   UNL     1       7.779   5.689  15.396  0.00  0.00    +0.000 NA
ATOM      4  C   UNL     1       6.978   5.002  14.474  0.00  0.00    +0.000 A 
ATOM      5  C   UNL     1       7.520   4.630  13.242  0.00  0.00    +0.000 A 
ATOM      6  C   UNL     1       6.726   3.999  12.273  0.00  0.00    +0.000 A 
ATOM      7  C   UNL     1       5.372   3.731  12.523  0.00  0.00    +0.000 A 
ATOM      8  C   UNL     1       4.836   4.073  13.775  0.00  0.00    +0.000 A 
ATOM      9  C   UNL     1       5.643   4.700  14.733  0.00  0.00    +0.000 A 
ATOM     10  C   UNL     1       5.093   5.077  16.048  0.00  0.00    +0.000 A 
ATOM     11  O   UNL     1       3.938   4.785  16.345  0.00  0.00    +0.000 OA
ENDROOT
BRANCH   7  12
ATOM     12  C   UNL     1       4.476   3.112  11.476  0.00  0.00    +0.000 C 
ATOM     13  F   UNL     1       4.967   1.955  10.952  0.00  0.00    +0.000 F 
ATOM     14  F   UNL     1       3.240   2.811  11.960  0.00  0.00    +0.000 F 
ATOM     15  F   UNL     1       4.272   3.945  10.419  0.00  0.00    +0.000 F 
ENDBRANCH   7  12
BRANCH   1  16
ATOM     16  C   UNL     1       5.453   6.166  18.199  0.00  0.00    +0.000 C 
BRANCH  16  18
ATOM     17  O   UNL     1       6.079   4.121  19.285  0.00  0.00    +0.000 OA
ATOM     18  C   UNL     1       5.180   4.931  19.051  0.00  0.00    +0.000 C 
BRANCH  18  19
ATOM     19  C   UNL     1       3.776   4.792  19.626  0.00  0.00    +0.000 C 
BRANCH  19  20
ATOM     20  C   UNL     1       3.060   3.489  19.217  0.00  0.00    +0.000 C 
ATOM     21  N   UNL     1       3.284   2.341  20.126  0.00  0.00    +0.000 NA
ATOM     22  C   UNL     1       2.727   2.561  21.461  0.00  0.00    +0.000 C 
ATOM     23  C   UNL     1       1.217   2.790  21.404  0.00  0.00    +0.000 C 
ATOM     24  C   UNL     1       0.826   3.877  20.400  0.00  0.00    +0.000 C 
ATOM     25  C   UNL     1       1.531   3.683  19.054  0.00  0.00    +0.000 C 
ATOM     26  H   UNL     1       4.296   2.181  20.196  0.00  0.00    +0.000 HD
BRANCH  25  27
ATOM     27  O   UNL     1       0.988   2.512  18.430  0.00  0.00    +0.000 OA
ATOM     28  H   UNL     1       0.160   2.326  18.917  0.00  0.00    +0.000 HD
ENDBRANCH  25  27
ENDBRANCH  19  20
ENDBRANCH  18  19
ENDBRANCH  16  18
ENDBRANCH   1  16
TORSDOF 6
ENDMDL
MODEL 7
REMARK VINA RESULT:      -7.7      6.848      8.629
REMARK  Name = 
REMARK  6 active torsions:
REMARK  status: ('A' for Active; 'I' for Inactive)
REMARK    1  A    between atoms: C_2  and  C_3
REMARK    2  A    between atoms: C_2  and  C_11
REMARK    3  A    between atoms: C_3  and  C_4
REMARK    4  A    between atoms: C_9  and  O_10
REMARK    5  A    between atoms: C_11  and  N_12
REMARK    6  A    between atoms: C_18  and  C_19
REMARK                            x       y       z     vdW  Elec       q    Type
REMARK                         _______ _______ _______ _____ _____    ______ ____
ROOT
ATOM      1  N   UNL     1       1.385   9.523  19.665  0.00  0.00    +0.000 N 
ATOM      2  C   UNL     1       1.840   9.420  18.371  0.00  0.00    +0.000 A 
ATOM      3  N   UNL     1       2.297   8.339  17.835  0.00  0.00    +0.000 NA
ATOM      4  C   UNL     1       2.290   7.170  18.608  0.00  0.00    +0.000 A 
ATOM      5  C   UNL     1       2.750   5.976  18.046  0.00  0.00    +0.000 A 
ATOM      6  C   UNL     1       2.695   4.777  18.771  0.00  0.00    +0.000 A 
ATOM      7  C   UNL     1       2.178   4.754  20.075  0.00  0.00    +0.000 A 
ATOM      8  C   UNL     1       1.749   5.960  20.652  0.00  0.00    +0.000 A 
ATOM      9  C   UNL     1       1.813   7.149  19.916  0.00  0.00    +0.000 A 
ATOM     10  C   UNL     1       1.355   8.422  20.504  0.00  0.00    +0.000 A 
ATOM     11  O   UNL     1       0.976   8.467  21.670  0.00  0.00    +0.000 OA
ENDROOT
BRANCH   7  12
ATOM     12  C   UNL     1       2.048   3.468  20.857  0.00  0.00    +0.000 C 
ATOM     13  F   UNL     1       2.350   3.598  22.177  0.00  0.00    +0.000 F 
ATOM     14  F   UNL     1       0.788   2.954  20.808  0.00  0.00    +0.000 F 
ATOM     15  F   UNL     1       2.869   2.493  20.379  0.00  0.00    +0.000 F 
ENDBRANCH   7  12
BRANCH   1  16
ATOM     16  C   UNL     1       0.934  10.803  20.194  0.00  0.00    +0.000 C 
BRANCH  16  18
ATOM     17  O   UNL     1       0.438  12.428  18.500  0.00  0.00    +0.000 OA
ATOM     18  C   UNL     1       0.022  11.488  19.180  0.00  0.00    +0.000 C 
BRANCH  18  19
ATOM     19  C   UNL     1      -1.381  10.917  19.026  0.00  0.00    +0.000 C 
BRANCH  19  20
ATOM     20  C   UNL     1      -2.360  11.856  18.293  0.00  0.00    +0.000 C 
ATOM     21  N   UNL     1      -2.119  11.996  16.838  0.00  0.00    +0.000 NA
ATOM     22  C   UNL     1      -2.328  10.745  16.108  0.00  0.00    +0.000 C 
ATOM     23  C   UNL     1      -3.760  10.238  16.270  0.00  0.00    +0.000 C 
ATOM     24  C   UNL     1      -4.192  10.161  17.737  0.00  0.00    +0.000 C 
ATOM     25  C   UNL     1      -3.839  11.443  18.498  0.00  0.00    +0.000 C 
ATOM     26  H   UNL     1      -1.152  12.317  16.702  0.00  0.00    +0.000 HD
BRANCH  25  27
ATOM     27  O   UNL     1      -4.678  12.498  18.009  0.00  0.00    +0.000 OA
ATOM     28  H   UNL     1      -4.406  13.291  18.515  0.00  0.00    +0.000 HD
ENDBRANCH  25  27
ENDBRANCH  19  20
ENDBRANCH  18  19
ENDBRANCH  16  18
ENDBRANCH   1  16
TORSDOF 6
ENDMDL
MODEL 8
REMARK VINA RESULT:      -7.6      0.657      1.078
REMARK  Name = 
REMARK  6 active torsions:
REMARK  status: ('A' for Active; 'I' for Inactive)
REMARK    1  A    between atoms: C_2  and  C_3
REMARK    2  A    between atoms: C_2  and  C_11
REMARK    3  A    between atoms: C_3  and  C_4
REMARK    4  A    between atoms: C_9  and  O_10
REMARK    5  A    between atoms: C_11  and  N_12
REMARK    6  A    between atoms: C_18  and  C_19
REMARK                            x       y       z     vdW  Elec       q    Type
REMARK                         _______ _______ _______ _____ _____    ______ ____
ROOT
ATOM      1  N   UNL     1       5.700   5.577  16.928  0.00  0.00    +0.000 N 
ATOM      2  C   UNL     1       6.869   6.241  16.638  0.00  0.00    +0.000 A 
ATOM      3  N   UNL     1       7.577   6.055  15.576  0.00  0.00    +0.000 NA
ATOM      4  C   UNL     1       7.103   5.144  14.622  0.00  0.00    +0.000 A 
ATOM      5  C   UNL     1       7.831   4.943  13.447  0.00  0.00    +0.000 A 
ATOM      6  C   UNL     1       7.350   4.088  12.445  0.00  0.00    +0.000 A 
ATOM      7  C   UNL     1       6.128   3.417  12.605  0.00  0.00    +0.000 A 
ATOM      8  C   UNL     1       5.414   3.591  13.801  0.00  0.00    +0.000 A 
ATOM      9  C   UNL     1       5.909   4.447  14.793  0.00  0.00    +0.000 A 
ATOM     10  C   UNL     1       5.165   4.650  16.050  0.00  0.00    +0.000 A 
ATOM     11  O   UNL     1       4.136   4.019  16.272  0.00  0.00    +0.000 OA
ENDROOT
BRANCH   7  12
ATOM     12  C   UNL     1       5.554   2.539  11.518  0.00  0.00    +0.000 C 
ATOM     13  F   UNL     1       6.312   2.502  10.388  0.00  0.00    +0.000 F 
ATOM     14  F   UNL     1       5.408   1.246  11.916  0.00  0.00    +0.000 F 
ATOM     15  F   UNL     1       4.317   2.953  11.125  0.00  0.00    +0.000 F 
ENDBRANCH   7  12
BRANCH   1  16
ATOM     16  C   UNL     1       4.998   5.822  18.181  0.00  0.00    +0.000 C 
BRANCH  16  18
ATOM     17  O   UNL     1       6.555   4.781  19.682  0.00  0.00    +0.000 OA
ATOM     18  C   UNL     1       5.413   4.781  19.217  0.00  0.00    +0.000 C 
BRANCH  18  19
ATOM     19  C   UNL     1       4.340   3.800  19.670  0.00  0.00    +0.000 C 
BRANCH  19  20
ATOM     20  C   UNL     1       2.901   4.331  19.511  0.00  0.00    +0.000 C 
ATOM     21  N   UNL     1       2.158   3.784  18.352  0.00  0.00    +0.000 NA
ATOM     22  C   UNL     1       1.916   2.345  18.465  0.00  0.00    +0.000 C 
ATOM     23  C   UNL     1       1.095   2.014  19.711  0.00  0.00    +0.000 C 
ATOM     24  C   UNL     1       1.686   2.629  20.982  0.00  0.00    +0.000 C 
ATOM     25  C   UNL     1       2.045   4.105  20.783  0.00  0.00    +0.000 C 
ATOM     26  H   UNL     1       2.702   3.977  17.502  0.00  0.00    +0.000 HD
BRANCH  25  27
ATOM     27  O   UNL     1       0.825   4.847  20.647  0.00  0.00    +0.000 OA
ATOM     28  H   UNL     1       0.843   5.198  19.734  0.00  0.00    +0.000 HD
ENDBRANCH  25  27
ENDBRANCH  19  20
ENDBRANCH  18  19
ENDBRANCH  16  18
ENDBRANCH   1  16
TORSDOF 6
ENDMDL
MODEL 9
REMARK VINA RESULT:      -7.6      5.610      7.539
REMARK  Name = 
REMARK  6 active torsions:
REMARK  status: ('A' for Active; 'I' for Inactive)
REMARK    1  A    between atoms: C_2  and  C_3
REMARK    2  A    between atoms: C_2  and  C_11
REMARK    3  A    between atoms: C_3  and  C_4
REMARK    4  A    between atoms: C_9  and  O_10
REMARK    5  A    between atoms: C_11  and  N_12
REMARK    6  A    between atoms: C_18  and  C_19
REMARK                            x       y       z     vdW  Elec       q    Type
REMARK                         _______ _______ _______ _____ _____    ______ ____
ROOT
ATOM      1  N   UNL     1       3.775   6.507  18.272  0.00  0.00    +0.000 N 
ATOM      2  C   UNL     1       3.586   7.425  17.264  0.00  0.00    +0.000 A 
ATOM      3  N   UNL     1       2.749   8.405  17.309  0.00  0.00    +0.000 NA
ATOM      4  C   UNL     1       2.006   8.581  18.484  0.00  0.00    +0.000 A 
ATOM      5  C   UNL     1       1.114   9.652  18.575  0.00  0.00    +0.000 A 
ATOM      6  C   UNL     1       0.405   9.893  19.761  0.00  0.00    +0.000 A 
ATOM      7  C   UNL     1       0.578   9.062  20.878  0.00  0.00    +0.000 A 
ATOM      8  C   UNL     1       1.448   7.965  20.774  0.00  0.00    +0.000 A 
ATOM      9  C   UNL     1       2.147   7.736  19.583  0.00  0.00    +0.000 A 
ATOM     10  C   UNL     1       3.073   6.596  19.462  0.00  0.00    +0.000 A 
ATOM     11  O   UNL     1       3.193   5.792  20.382  0.00  0.00    +0.000 OA
ENDROOT
BRANCH   7  12
ATOM     12  C   UNL     1      -0.123   9.334  22.188  0.00  0.00    +0.000 C 
ATOM     13  F   UNL     1       0.720   9.415  23.253  0.00  0.00    +0.000 F 
ATOM     14  F   UNL     1      -0.822  10.502  22.172  0.00  0.00    +0.000 F 
ATOM     15  F   UNL     1      -1.025   8.362  22.497  0.00  0.00    +0.000 F 
ENDBRANCH   7  12
BRANCH   1  16
ATOM     16  C   UNL     1       4.710   5.403  18.105  0.00  0.00    +0.000 C 
BRANCH  16  18
ATOM     17  O   UNL     1       4.722   3.565  16.563  0.00  0.00    +0.000 OA
ATOM     18  C   UNL     1       4.050   4.283  17.307  0.00  0.00    +0.000 C 
BRANCH  18  19
ATOM     19  C   UNL     1       2.556   4.077  17.522  0.00  0.00    +0.000 C 
BRANCH  19  20
ATOM     20  C   UNL     1       2.176   2.636  17.918  0.00  0.00    +0.000 C 
ATOM     21  N   UNL     1       3.178   1.933  18.751  0.00  0.00    +0.000 NA
ATOM     22  C   UNL     1       3.353   2.550  20.066  0.00  0.00    +0.000 C 
ATOM     23  C   UNL     1       2.047   2.553  20.859  0.00  0.00    +0.000 C 
ATOM     24  C   UNL     1       0.881   3.146  20.064  0.00  0.00    +0.000 C 
ATOM     25  C   UNL     1       0.810   2.567  18.647  0.00  0.00    +0.000 C 
ATOM     26  H   UNL     1       4.073   1.935  18.246  0.00  0.00    +0.000 HD
BRANCH  25  27
ATOM     27  O   UNL     1       0.417   1.192  18.746  0.00  0.00    +0.000 OA
ATOM     28  H   UNL     1       1.251   0.700  18.891  0.00  0.00    +0.000 HD
ENDBRANCH  25  27
ENDBRANCH  19  20
ENDBRANCH  18  19
ENDBRANCH  16  18
ENDBRANCH   1  16
TORSDOF 6
ENDMDL
