MODEL 1
REMARK VINA RESULT:      -8.4      0.000      0.000
REMARK  Name = 
REMARK  6 active torsions:
REMARK  status: ('A' for Active; 'I' for Inactive)
REMARK    1  A    between atoms: C_1  and  C_2
REMARK    2  A    between atoms: C_2  and  N_3
REMARK    3  A    between atoms: C_2  and  C_22
REMARK    4  A    between atoms: C_4  and  C_6
REMARK    5  A    between atoms: C_6  and  N_7
REMARK    6  A    between atoms: N_10  and  C_11
REMARK                            x       y       z     vdW  Elec       q    Type
REMARK                         _______ _______ _______ _____ _____    ______ ____
ROOT
ATOM      1  C   UNL     1       6.776   6.533  17.385  0.00  0.00    +0.000 C 
ATOM      2  C   UNL     1       6.839   5.964  18.816  0.00  0.00    +0.000 C 
ATOM      3  C   UNL     1       5.768   4.888  19.016  0.00  0.00    +0.000 C 
ATOM      4  N   UNL     1       4.479   5.540  18.797  0.00  0.00    +0.000 N 
ATOM      5  C   UNL     1       4.265   5.964  17.411  0.00  0.00    +0.000 C 
ATOM      6  C   UNL     1       5.341   7.000  17.049  0.00  0.00    +0.000 C 
ENDROOT
BRANCH   4   7
ATOM      7  C   UNL     1       3.413   4.845  19.377  0.00  0.00    +0.000 A 
ATOM      8  N   UNL     1       2.562   5.462  20.241  0.00  0.00    +0.000 NA
ATOM      9  C   UNL     1       1.452   4.810  20.641  0.00  0.00    +0.000 A 
ATOM     10  N   UNL     1       1.030   3.585  20.287  0.00  0.00    +0.000 NA
ATOM     11  C   UNL     1       1.888   3.014  19.429  0.00  0.00    +0.000 A 
ATOM     12  N   UNL     1       1.704   1.790  18.844  0.00  0.00    +0.000 N 
ATOM     13  C   UNL     1       2.739   1.528  17.983  0.00  0.00    +0.000 A 
ATOM     14  C   UNL     1       3.606   2.599  18.030  0.00  0.00    +0.000 A 
ATOM     15  C   UNL     1       3.072   3.549  18.948  0.00  0.00    +0.000 A 
ATOM     16  H   UNL     1       0.894   1.209  19.005  0.00  0.00    +0.000 HD
ENDBRANCH   4   7
BRANCH   1  18
ATOM     17  N   UNL     1       7.112   5.724  15.050  0.00  0.00    +0.000 N 
ATOM     18  C   UNL     1       7.323   5.460  16.383  0.00  0.00    +0.000 C 
ATOM     19  O   UNL     1       7.938   4.461  16.754  0.00  0.00    +0.000 OA
ATOM     20  H   UNL     1       6.906   6.692  14.824  0.00  0.00    +0.000 HD
BRANCH  17  22
ATOM     21  C   UNL     1       8.669   5.567  13.122  0.00  0.00    +0.000 C 
ATOM     22  C   UNL     1       7.670   4.845  14.033  0.00  0.00    +0.000 C 
BRANCH  22  23
ATOM     23  C   UNL     1       6.576   4.168  13.230  0.00  0.00    +0.000 A 
ATOM     24  C   UNL     1       6.914   3.483  12.048  0.00  0.00    +0.000 A 
ATOM     25  C   UNL     1       5.924   2.896  11.259  0.00  0.00    +0.000 A 
ATOM     26  C   UNL     1       4.596   2.985  11.651  0.00  0.00    +0.000 A 
ATOM     27  F   UNL     1       3.644   2.432  10.888  0.00  0.00    +0.000 F 
ATOM     28  C   UNL     1       4.238   3.646  12.820  0.00  0.00    +0.000 A 
ATOM     29  C   UNL     1       5.226   4.235  13.611  0.00  0.00    +0.000 A 
ENDBRANCH  22  23
ENDBRANCH  17  22
ENDBRANCH   1  18
BRANCH   1  30
ATOM     30  N   UNL     1       7.679   7.721  17.274  0.00  0.00    +0.000 NA
ATOM     31  H   UNL     1       8.642   7.380  17.213  0.00  0.00    +0.000 HD
ATOM     32  H   UNL     1       7.641   8.235  18.157  0.00  0.00    +0.000 HD
ENDBRANCH   1  30
TORSDOF 5
ENDMDL
MODEL 2
REMARK VINA RESULT:      -7.9      0.988      1.643
REMARK  Name = 
REMARK  6 active torsions:
REMARK  status: ('A' for Active; 'I' for Inactive)
REMARK    1  A    between atoms: C_1  and  C_2
REMARK    2  A    between atoms: C_2  and  N_3
REMARK    3  A    between atoms: C_2  and  C_22
REMARK    4  A    between atoms: C_4  and  C_6
REMARK    5  A    between atoms: C_6  and  N_7
REMARK    6  A    between atoms: N_10  and  C_11
REMARK                            x       y       z     vdW  Elec       q    Type
REMARK                         _______ _______ _______ _____ _____    ______ ____
ROOT
ATOM      1  C   UNL     1       6.616   6.009  17.589  0.00  0.00    +0.000 C 
ATOM      2  C   UNL     1       6.378   5.119  18.823  0.00  0.00    +0.000 C 
ATOM      3  C   UNL     1       5.237   4.131  18.564  0.00  0.00    +0.000 C 
ATOM      4  N   UNL     1       4.047   4.934  18.295  0.00  0.00    +0.000 N 
ATOM      5  C   UNL     1       4.120   5.688  17.041  0.00  0.00    +0.000 C 
ATOM      6  C   UNL     1       5.295   6.675  17.137  0.00  0.00    +0.000 C 
ENDROOT
BRANCH   4   7
ATOM      7  C   UNL     1       2.856   4.226  18.492  0.00  0.00    +0.000 A 
ATOM      8  N   UNL     1       2.185   3.678  17.444  0.00  0.00    +0.000 NA
ATOM      9  C   UNL     1       1.142   2.861  17.691  0.00  0.00    +0.000 A 
ATOM     10  N   UNL     1       0.648   2.476  18.879  0.00  0.00    +0.000 NA
ATOM     11  C   UNL     1       1.340   3.027  19.887  0.00  0.00    +0.000 A 
ATOM     12  N   UNL     1       1.113   2.780  21.214  0.00  0.00    +0.000 N 
ATOM     13  C   UNL     1       2.028   3.462  21.975  0.00  0.00    +0.000 A 
ATOM     14  C   UNL     1       2.845   4.168  21.118  0.00  0.00    +0.000 A 
ATOM     15  C   UNL     1       2.414   3.897  19.787  0.00  0.00    +0.000 A 
ATOM     16  H   UNL     1       0.401   2.149  21.552  0.00  0.00    +0.000 HD
ENDBRANCH   4   7
BRANCH   1  18
ATOM     17  N   UNL     1       7.025   5.549  15.172  0.00  0.00    +0.000 N 
ATOM     18  C   UNL     1       7.289   5.154  16.462  0.00  0.00    +0.000 C 
ATOM     19  O   UNL     1       8.040   4.210  16.707  0.00  0.00    +0.000 OA
ATOM     20  H   UNL     1       6.685   6.500  15.068  0.00  0.00    +0.000 HD
BRANCH  17  22
ATOM     21  C   UNL     1       8.514   5.860  13.210  0.00  0.00    +0.000 C 
ATOM     22  C   UNL     1       7.683   4.888  14.055  0.00  0.00    +0.000 C 
BRANCH  22  23
ATOM     23  C   UNL     1       6.687   4.125  13.204  0.00  0.00    +0.000 A 
ATOM     24  C   UNL     1       7.158   3.313  12.155  0.00  0.00    +0.000 A 
ATOM     25  C   UNL     1       6.265   2.640  11.320  0.00  0.00    +0.000 A 
ATOM     26  C   UNL     1       4.900   2.770  11.535  0.00  0.00    +0.000 A 
ATOM     27  F   UNL     1       4.041   2.134  10.726  0.00  0.00    +0.000 F 
ATOM     28  C   UNL     1       4.410   3.556  12.570  0.00  0.00    +0.000 A 
ATOM     29  C   UNL     1       5.301   4.231  13.407  0.00  0.00    +0.000 A 
ENDBRANCH  22  23
ENDBRANCH  17  22
ENDBRANCH   1  18
BRANCH   1  30
ATOM     30  N   UNL     1       7.581   7.100  17.932  0.00  0.00    +0.000 NA
ATOM     31  H   UNL     1       7.577   7.215  18.948  0.00  0.00    +0.000 HD
ATOM     32  H   UNL     1       7.211   7.980  17.569  0.00  0.00    +0.000 HD
ENDBRANCH   1  30
TORSDOF 5
ENDMDL
MODEL 3
REMARK VINA RESULT:      -7.7      3.084      5.125
REMARK  Name = 
REMARK  6 active torsions:
REMARK  status: ('A' for Active; 'I' for Inactive)
REMARK    1  A    between atoms: C_1  and  C_2
REMARK    2  A    between atoms: C_2  and  N_3
REMARK    3  A    between atoms: C_2  and  C_22
REMARK    4  A    between atoms: C_4  and  C_6
REMARK    5  A    between atoms: C_6  and  N_7
REMARK    6  A    between atoms: N_10  and  C_11
REMARK                            x       y       z     vdW  Elec       q    Type
REMARK                         _______ _______ _______ _____ _____    ______ ____
ROOT
ATOM      1  C   UNL     1       2.901   4.009  19.012  0.00  0.00    +0.000 C 
ATOM      2  C   UNL     1       2.201   4.747  17.854  0.00  0.00    +0.000 C 
ATOM      3  C   UNL     1       2.546   6.238  17.878  0.00  0.00    +0.000 C 
ATOM      4  N   UNL     1       2.066   6.755  19.157  0.00  0.00    +0.000 N 
ATOM      5  C   UNL     1       2.798   6.229  20.313  0.00  0.00    +0.000 C 
ATOM      6  C   UNL     1       2.600   4.705  20.360  0.00  0.00    +0.000 C 
ENDROOT
BRANCH   4   7
ATOM      7  C   UNL     1       1.884   8.142  19.150  0.00  0.00    +0.000 A 
ATOM      8  N   UNL     1       2.242   8.889  18.071  0.00  0.00    +0.000 NA
ATOM      9  C   UNL     1       1.894  10.191  18.035  0.00  0.00    +0.000 A 
ATOM     10  N   UNL     1       1.199  10.894  18.944  0.00  0.00    +0.000 NA
ATOM     11  C   UNL     1       0.856  10.123  19.986  0.00  0.00    +0.000 A 
ATOM     12  N   UNL     1       0.095  10.539  21.045  0.00  0.00    +0.000 N 
ATOM     13  C   UNL     1      -0.111   9.491  21.906  0.00  0.00    +0.000 A 
ATOM     14  C   UNL     1       0.542   8.391  21.394  0.00  0.00    +0.000 A 
ATOM     15  C   UNL     1       1.160   8.784  20.172  0.00  0.00    +0.000 A 
ATOM     16  H   UNL     1      -0.283  11.471  21.131  0.00  0.00    +0.000 HD
ENDBRANCH   4   7
BRANCH   1  18
ATOM     17  N   UNL     1       4.845   4.481  17.523  0.00  0.00    +0.000 N 
ATOM     18  C   UNL     1       4.433   3.907  18.703  0.00  0.00    +0.000 C 
ATOM     19  O   UNL     1       5.231   3.381  19.478  0.00  0.00    +0.000 OA
ATOM     20  H   UNL     1       4.206   5.160  17.122  0.00  0.00    +0.000 HD
BRANCH  17  22
ATOM     21  C   UNL     1       6.953   5.770  17.776  0.00  0.00    +0.000 C 
ATOM     22  C   UNL     1       6.261   4.533  17.191  0.00  0.00    +0.000 C 
BRANCH  22  23
ATOM     23  C   UNL     1       6.478   4.433  15.693  0.00  0.00    +0.000 A 
ATOM     24  C   UNL     1       7.509   5.183  15.096  0.00  0.00    +0.000 A 
ATOM     25  C   UNL     1       7.700   5.153  13.714  0.00  0.00    +0.000 A 
ATOM     26  C   UNL     1       6.868   4.370  12.926  0.00  0.00    +0.000 A 
ATOM     27  F   UNL     1       7.043   4.351  11.598  0.00  0.00    +0.000 F 
ATOM     28  C   UNL     1       5.851   3.612  13.493  0.00  0.00    +0.000 A 
ATOM     29  C   UNL     1       5.657   3.640  14.876  0.00  0.00    +0.000 A 
ENDBRANCH  22  23
ENDBRANCH  17  22
ENDBRANCH   1  18
BRANCH   1  30
ATOM     30  N   UNL     1       2.388   2.606  19.100  0.00  0.00    +0.000 NA
ATOM     31  H   UNL     1       3.133   2.022  19.485  0.00  0.00    +0.000 HD
ATOM     32  H   UNL     1       2.248   2.257  18.149  0.00  0.00    +0.000 HD
ENDBRANCH   1  30
TORSDOF 5
ENDMDL
MODEL 4
REMARK VINA RESULT:      -7.3      1.263      1.798
REMARK  Name = 
REMARK  6 active torsions:
REMARK  status: ('A' for Active; 'I' for Inactive)
REMARK    1  A    between atoms: C_1  and  C_2
REMARK    2  A    between atoms: C_2  and  N_3
REMARK    3  A    between atoms: C_2  and  C_22
REMARK    4  A    between atoms: C_4  and  C_6
REMARK    5  A    between atoms: C_6  and  N_7
REMARK    6  A    between atoms: N_10  and  C_11
REMARK                            x       y       z     vdW  Elec       q    Type
REMARK                         _______ _______ _______ _____ _____    ______ ____
ROOT
ATOM      1  C   UNL     1       6.421   6.261  17.074  0.00  0.00    +0.000 C 
ATOM      2  C   UNL     1       6.886   5.866  18.489  0.00  0.00    +0.000 C 
ATOM      3  C   UNL     1       6.303   4.507  18.889  0.00  0.00    +0.000 C 
ATOM      4  N   UNL     1       4.850   4.657  18.868  0.00  0.00    +0.000 N 
ATOM      5  C   UNL     1       4.302   4.869  17.526  0.00  0.00    +0.000 C 
ATOM      6  C   UNL     1       4.881   6.179  16.967  0.00  0.00    +0.000 C 
ENDROOT
BRANCH   4   7
ATOM      7  C   UNL     1       4.193   3.688  19.632  0.00  0.00    +0.000 A 
ATOM      8  N   UNL     1       4.880   2.665  20.209  0.00  0.00    +0.000 NA
ATOM      9  C   UNL     1       4.240   1.854  21.074  0.00  0.00    +0.000 A 
ATOM     10  N   UNL     1       2.963   1.915  21.486  0.00  0.00    +0.000 NA
ATOM     11  C   UNL     1       2.322   2.939  20.905  0.00  0.00    +0.000 A 
ATOM     12  N   UNL     1       1.026   3.295  21.166  0.00  0.00    +0.000 N 
ATOM     13  C   UNL     1       0.698   4.414  20.444  0.00  0.00    +0.000 A 
ATOM     14  C   UNL     1       1.801   4.770  19.698  0.00  0.00    +0.000 A 
ATOM     15  C   UNL     1       2.839   3.838  19.986  0.00  0.00    +0.000 A 
ATOM     16  H   UNL     1       0.437   2.815  21.831  0.00  0.00    +0.000 HD
ENDBRANCH   4   7
BRANCH   1  18
ATOM     17  N   UNL     1       6.832   5.593  14.707  0.00  0.00    +0.000 N 
ATOM     18  C   UNL     1       7.159   5.364  16.023  0.00  0.00    +0.000 C 
ATOM     19  O   UNL     1       8.007   4.531  16.343  0.00  0.00    +0.000 OA
ATOM     20  H   UNL     1       6.395   6.489  14.516  0.00  0.00    +0.000 HD
BRANCH  17  22
ATOM     21  C   UNL     1       8.314   5.837  12.730  0.00  0.00    +0.000 C 
ATOM     22  C   UNL     1       7.535   4.887  13.646  0.00  0.00    +0.000 C 
BRANCH  22  23
ATOM     23  C   UNL     1       6.590   4.004  12.854  0.00  0.00    +0.000 A 
ATOM     24  C   UNL     1       7.122   3.000  12.023  0.00  0.00    +0.000 A 
ATOM     25  C   UNL     1       6.282   2.206  11.241  0.00  0.00    +0.000 A 
ATOM     26  C   UNL     1       4.909   2.406  11.292  0.00  0.00    +0.000 A 
ATOM     27  F   UNL     1       4.103   1.653  10.532  0.00  0.00    +0.000 F 
ATOM     28  C   UNL     1       4.360   3.383  12.113  0.00  0.00    +0.000 A 
ATOM     29  C   UNL     1       5.198   4.180  12.896  0.00  0.00    +0.000 A 
ENDBRANCH  22  23
ENDBRANCH  17  22
ENDBRANCH   1  18
BRANCH   1  30
ATOM     30  N   UNL     1       6.823   7.674  16.787  0.00  0.00    +0.000 NA
ATOM     31  H   UNL     1       7.845   7.714  16.776  0.00  0.00    +0.000 HD
ATOM     32  H   UNL     1       6.548   8.252  17.584  0.00  0.00    +0.000 HD
ENDBRANCH   1  30
TORSDOF 5
ENDMDL
MODEL 5
REMARK VINA RESULT:      -7.2      3.885      7.926
REMARK  Name = 
REMARK  6 active torsions:
REMARK  status: ('A' for Active; 'I' for Inactive)
REMARK    1  A    between atoms: C_1  and  C_2
REMARK    2  A    between atoms: C_2  and  N_3
REMARK    3  A    between atoms: C_2  and  C_22
REMARK    4  A    between atoms: C_4  and  C_6
REMARK    5  A    between atoms: C_6  and  N_7
REMARK    6  A    between atoms: N_10  and  C_11
REMARK                            x       y       z     vdW  Elec       q    Type
REMARK                         _______ _______ _______ _____ _____    ______ ____
ROOT
ATOM      1  C   UNL     1       1.891   4.038  19.521  0.00  0.00    +0.000 C 
ATOM      2  C   UNL     1       3.180   3.211  19.690  0.00  0.00    +0.000 C 
ATOM      3  C   UNL     1       4.373   3.940  19.066  0.00  0.00    +0.000 C 
ATOM      4  N   UNL     1       4.068   4.097  17.647  0.00  0.00    +0.000 N 
ATOM      5  C   UNL     1       2.952   5.010  17.386  0.00  0.00    +0.000 C 
ATOM      6  C   UNL     1       1.687   4.429  18.039  0.00  0.00    +0.000 C 
ENDROOT
BRANCH   4   7
ATOM      7  C   UNL     1       5.208   4.315  16.866  0.00  0.00    +0.000 A 
ATOM      8  N   UNL     1       5.440   3.577  15.746  0.00  0.00    +0.000 NA
ATOM      9  C   UNL     1       6.453   3.930  14.931  0.00  0.00    +0.000 A 
ATOM     10  N   UNL     1       7.303   4.963  15.055  0.00  0.00    +0.000 NA
ATOM     11  C   UNL     1       7.037   5.671  16.162  0.00  0.00    +0.000 A 
ATOM     12  N   UNL     1       7.693   6.814  16.532  0.00  0.00    +0.000 N 
ATOM     13  C   UNL     1       7.140   7.313  17.684  0.00  0.00    +0.000 A 
ATOM     14  C   UNL     1       6.122   6.465  18.063  0.00  0.00    +0.000 A 
ATOM     15  C   UNL     1       6.049   5.418  17.100  0.00  0.00    +0.000 A 
ATOM     16  H   UNL     1       8.438   7.231  15.993  0.00  0.00    +0.000 HD
ENDBRANCH   4   7
BRANCH   1  18
ATOM     17  N   UNL     1       1.402   6.438  19.989  0.00  0.00    +0.000 N 
ATOM     18  C   UNL     1       1.945   5.274  20.480  0.00  0.00    +0.000 C 
ATOM     19  O   UNL     1       2.408   5.209  21.619  0.00  0.00    +0.000 OA
ATOM     20  H   UNL     1       0.765   6.325  19.206  0.00  0.00    +0.000 HD
BRANCH  17  22
ATOM     21  C   UNL     1       0.035   7.622  21.690  0.00  0.00    +0.000 C 
ATOM     22  C   UNL     1       1.308   7.617  20.836  0.00  0.00    +0.000 C 
BRANCH  22  23
ATOM     23  C   UNL     1       1.435   8.891  20.023  0.00  0.00    +0.000 A 
ATOM     24  C   UNL     1       1.033  10.113  20.592  0.00  0.00    +0.000 A 
ATOM     25  C   UNL     1       1.088  11.295  19.851  0.00  0.00    +0.000 A 
ATOM     26  C   UNL     1       1.551  11.260  18.544  0.00  0.00    +0.000 A 
ATOM     27  F   UNL     1       1.593  12.391  17.828  0.00  0.00    +0.000 F 
ATOM     28  C   UNL     1       1.965  10.067  17.963  0.00  0.00    +0.000 A 
ATOM     29  C   UNL     1       1.911   8.883  18.702  0.00  0.00    +0.000 A 
ENDBRANCH  22  23
ENDBRANCH  17  22
ENDBRANCH   1  18
BRANCH   1  30
ATOM     30  N   UNL     1       0.709   3.222  19.943  0.00  0.00    +0.000 NA
ATOM     31  H   UNL     1       0.716   2.354  19.400  0.00  0.00    +0.000 HD
ATOM     32  H   UNL     1      -0.138   3.708  19.644  0.00  0.00    +0.000 HD
ENDBRANCH   1  30
TORSDOF 5
ENDMDL
MODEL 6
REMARK VINA RESULT:      -7.1      3.626      5.534
REMARK  Name = 
REMARK  6 active torsions:
REMARK  status: ('A' for Active; 'I' for Inactive)
REMARK    1  A    between atoms: C_1  and  C_2
REMARK    2  A    between atoms: C_2  and  N_3
REMARK    3  A    between atoms: C_2  and  C_22
REMARK    4  A    between atoms: C_4  and  C_6
REMARK    5  A    between atoms: C_6  and  N_7
REMARK    6  A    between atoms: N_10  and  C_11
REMARK                            x       y       z     vdW  Elec       q    Type
REMARK                         _______ _______ _______ _____ _____    ______ ____
ROOT
ATOM      1  C   UNL     1       2.560   5.160  18.880  0.00  0.00    +0.000 C 
ATOM      2  C   UNL     1       1.872   6.046  17.823  0.00  0.00    +0.000 C 
ATOM      3  C   UNL     1       2.142   7.527  18.103  0.00  0.00    +0.000 C 
ATOM      4  N   UNL     1       1.585   7.808  19.423  0.00  0.00    +0.000 N 
ATOM      5  C   UNL     1       2.294   7.133  20.514  0.00  0.00    +0.000 C 
ATOM      6  C   UNL     1       2.170   5.614  20.306  0.00  0.00    +0.000 C 
ENDROOT
BRANCH   4   7
ATOM      7  C   UNL     1       1.335   9.168  19.630  0.00  0.00    +0.000 A 
ATOM      8  N   UNL     1       1.580  10.082  18.652  0.00  0.00    +0.000 NA
ATOM      9  C   UNL     1       1.167  11.353  18.828  0.00  0.00    +0.000 A 
ATOM     10  N   UNL     1       0.503  11.877  19.870  0.00  0.00    +0.000 NA
ATOM     11  C   UNL     1       0.271  10.947  20.808  0.00  0.00    +0.000 A 
ATOM     12  N   UNL     1      -0.435  11.162  21.961  0.00  0.00    +0.000 N 
ATOM     13  C   UNL     1      -0.529   9.992  22.671  0.00  0.00    +0.000 A 
ATOM     14  C   UNL     1       0.140   9.016  21.964  0.00  0.00    +0.000 A 
ATOM     15  C   UNL     1       0.652   9.615  20.777  0.00  0.00    +0.000 A 
ATOM     16  H   UNL     1      -0.852  12.048  22.205  0.00  0.00    +0.000 HD
ENDBRANCH   4   7
BRANCH   1  18
ATOM     17  N   UNL     1       4.502   5.295  17.322  0.00  0.00    +0.000 N 
ATOM     18  C   UNL     1       4.106   5.174  18.633  0.00  0.00    +0.000 C 
ATOM     19  O   UNL     1       4.924   5.119  19.551  0.00  0.00    +0.000 OA
ATOM     20  H   UNL     1       3.799   5.660  16.686  0.00  0.00    +0.000 HD
BRANCH  17  22
ATOM     21  C   UNL     1       6.439   6.846  17.215  0.00  0.00    +0.000 C 
ATOM     22  C   UNL     1       5.913   5.423  16.992  0.00  0.00    +0.000 C 
BRANCH  22  23
ATOM     23  C   UNL     1       6.195   4.943  15.581  0.00  0.00    +0.000 A 
ATOM     24  C   UNL     1       7.379   5.350  14.940  0.00  0.00    +0.000 A 
ATOM     25  C   UNL     1       7.642   4.969  13.623  0.00  0.00    +0.000 A 
ATOM     26  C   UNL     1       6.726   4.175  12.946  0.00  0.00    +0.000 A 
ATOM     27  F   UNL     1       6.971   3.819  11.679  0.00  0.00    +0.000 F 
ATOM     28  C   UNL     1       5.554   3.751  13.562  0.00  0.00    +0.000 A 
ATOM     29  C   UNL     1       5.289   4.132  14.879  0.00  0.00    +0.000 A 
ENDBRANCH  22  23
ENDBRANCH  17  22
ENDBRANCH   1  18
BRANCH   1  30
ATOM     30  N   UNL     1       2.113   3.741  18.717  0.00  0.00    +0.000 NA
ATOM     31  H   UNL     1       1.092   3.736  18.666  0.00  0.00    +0.000 HD
ATOM     32  H   UNL     1       2.334   3.235  19.578  0.00  0.00    +0.000 HD
ENDBRANCH   1  30
TORSDOF 5
ENDMDL
MODEL 7
REMARK VINA RESULT:      -7.0      2.815      4.744
REMARK  Name = 
REMARK  6 active torsions:
REMARK  status: ('A' for Active; 'I' for Inactive)
REMARK    1  A    between atoms: C_1  and  C_2
REMARK    2  A    between atoms: C_2  and  N_3
REMARK    3  A    between atoms: C_2  and  C_22
REMARK    4  A    between atoms: C_4  and  C_6
REMARK    5  A    between atoms: C_6  and  N_7
REMARK    6  A    between atoms: N_10  and  C_11
REMARK                            x       y       z     vdW  Elec       q    Type
REMARK                         _______ _______ _______ _____ _____    ______ ____
ROOT
ATOM      1  C   UNL     1       3.210   3.819  18.633  0.00  0.00    +0.000 C 
ATOM      2  C   UNL     1       2.313   4.747  17.791  0.00  0.00    +0.000 C 
ATOM      3  C   UNL     1       2.393   6.187  18.305  0.00  0.00    +0.000 C 
ATOM      4  N   UNL     1       1.920   6.161  19.687  0.00  0.00    +0.000 N 
ATOM      5  C   UNL     1       2.811   5.437  20.597  0.00  0.00    +0.000 C 
ATOM      6  C   UNL     1       2.887   3.971  20.138  0.00  0.00    +0.000 C 
ENDROOT
BRANCH   4   7
ATOM      7  C   UNL     1       1.499   7.415  20.141  0.00  0.00    +0.000 A 
ATOM      8  N   UNL     1       1.204   7.621  21.453  0.00  0.00    +0.000 NA
ATOM      9  C   UNL     1       0.969   8.878  21.880  0.00  0.00    +0.000 A 
ATOM     10  N   UNL     1       0.999  10.018  21.171  0.00  0.00    +0.000 NA
ATOM     11  C   UNL     1       1.302   9.776  19.887  0.00  0.00    +0.000 A 
ATOM     12  N   UNL     1       1.463  10.742  18.930  0.00  0.00    +0.000 N 
ATOM     13  C   UNL     1       1.819  10.159  17.741  0.00  0.00    +0.000 A 
ATOM     14  C   UNL     1       1.872   8.796  17.940  0.00  0.00    +0.000 A 
ATOM     15  C   UNL     1       1.545   8.544  19.303  0.00  0.00    +0.000 A 
ATOM     16  H   UNL     1       1.373  11.731  19.112  0.00  0.00    +0.000 HD
ENDBRANCH   4   7
BRANCH   1  18
ATOM     17  N   UNL     1       4.954   4.618  17.040  0.00  0.00    +0.000 N 
ATOM     18  C   UNL     1       4.711   4.112  18.296  0.00  0.00    +0.000 C 
ATOM     19  O   UNL     1       5.618   3.941  19.109  0.00  0.00    +0.000 OA
ATOM     20  H   UNL     1       4.152   5.030  16.573  0.00  0.00    +0.000 HD
BRANCH  17  22
ATOM     21  C   UNL     1       6.608   6.471  17.060  0.00  0.00    +0.000 C 
ATOM     22  C   UNL     1       6.300   5.022  16.662  0.00  0.00    +0.000 C 
BRANCH  22  23
ATOM     23  C   UNL     1       6.551   4.788  15.185  0.00  0.00    +0.000 A 
ATOM     24  C   UNL     1       5.713   3.906  14.477  0.00  0.00    +0.000 A 
ATOM     25  C   UNL     1       5.951   3.628  13.130  0.00  0.00    +0.000 A 
ATOM     26  C   UNL     1       7.019   4.235  12.485  0.00  0.00    +0.000 A 
ATOM     27  F   UNL     1       7.255   3.960  11.196  0.00  0.00    +0.000 F 
ATOM     28  C   UNL     1       7.853   5.119  13.160  0.00  0.00    +0.000 A 
ATOM     29  C   UNL     1       7.618   5.398  14.507  0.00  0.00    +0.000 A 
ENDBRANCH  22  23
ENDBRANCH  17  22
ENDBRANCH   1  18
BRANCH   1  30
ATOM     30  N   UNL     1       2.957   2.393  18.256  0.00  0.00    +0.000 NA
ATOM     31  H   UNL     1       2.208   2.380  17.559  0.00  0.00    +0.000 HD
ATOM     32  H   UNL     1       2.566   1.912  19.068  0.00  0.00    +0.000 HD
ENDBRANCH   1  30
TORSDOF 5
ENDMDL
MODEL 8
REMARK VINA RESULT:      -6.8     10.282     12.739
REMARK  Name = 
REMARK  6 active torsions:
REMARK  status: ('A' for Active; 'I' for Inactive)
REMARK    1  A    between atoms: C_1  and  C_2
REMARK    2  A    between atoms: C_2  and  N_3
REMARK    3  A    between atoms: C_2  and  C_22
REMARK    4  A    between atoms: C_4  and  C_6
REMARK    5  A    between atoms: C_6  and  N_7
REMARK    6  A    between atoms: N_10  and  C_11
REMARK                            x       y       z     vdW  Elec       q    Type
REMARK                         _______ _______ _______ _____ _____    ______ ____
ROOT
ATOM      1  C   UNL     1       0.176  12.235  19.385  0.00  0.00    +0.000 C 
ATOM      2  C   UNL     1       0.676  11.747  20.758  0.00  0.00    +0.000 C 
ATOM      3  C   UNL     1      -0.337  12.089  21.854  0.00  0.00    +0.000 C 
ATOM      4  N   UNL     1      -0.465  13.544  21.861  0.00  0.00    +0.000 N 
ATOM      5  C   UNL     1      -1.094  14.082  20.652  0.00  0.00    +0.000 C 
ATOM      6  C   UNL     1      -0.206  13.732  19.447  0.00  0.00    +0.000 C 
ENDROOT
BRANCH   4   7
ATOM      7  C   UNL     1      -0.974  14.039  23.066  0.00  0.00    +0.000 A 
ATOM      8  N   UNL     1      -0.336  15.033  23.740  0.00  0.00    +0.000 NA
ATOM      9  C   UNL     1      -0.945  15.599  24.801  0.00  0.00    +0.000 A 
ATOM     10  N   UNL     1      -2.157  15.324  25.311  0.00  0.00    +0.000 NA
ATOM     11  C   UNL     1      -2.759  14.348  24.616  0.00  0.00    +0.000 A 
ATOM     12  N   UNL     1      -4.025  13.887  24.857  0.00  0.00    +0.000 N 
ATOM     13  C   UNL     1      -4.351  12.926  23.934  0.00  0.00    +0.000 A 
ATOM     14  C   UNL     1      -3.268  12.761  23.098  0.00  0.00    +0.000 A 
ATOM     15  C   UNL     1      -2.250  13.662  23.524  0.00  0.00    +0.000 A 
ATOM     16  H   UNL     1      -4.624  14.251  25.583  0.00  0.00    +0.000 HD
ENDBRANCH   4   7
BRANCH   1  18
ATOM     17  N   UNL     1      -2.006  11.948  18.213  0.00  0.00    +0.000 N 
ATOM     18  C   UNL     1      -1.005  11.320  18.915  0.00  0.00    +0.000 C 
ATOM     19  O   UNL     1      -1.025  10.107  19.122  0.00  0.00    +0.000 OA
ATOM     20  H   UNL     1      -1.759  12.846  17.809  0.00  0.00    +0.000 HD
BRANCH  17  22
ATOM     21  C   UNL     1      -3.215  11.361  16.124  0.00  0.00    +0.000 C 
ATOM     22  C   UNL     1      -3.097  11.172  17.641  0.00  0.00    +0.000 C 
BRANCH  22  23
ATOM     23  C   UNL     1      -4.409  11.469  18.340  0.00  0.00    +0.000 A 
ATOM     24  C   UNL     1      -4.410  12.296  19.479  0.00  0.00    +0.000 A 
ATOM     25  C   UNL     1      -5.593  12.545  20.176  0.00  0.00    +0.000 A 
ATOM     26  C   UNL     1      -6.779  11.975  19.734  0.00  0.00    +0.000 A 
ATOM     27  F   UNL     1      -7.913  12.204  20.410  0.00  0.00    +0.000 F 
ATOM     28  C   UNL     1      -6.806  11.165  18.606  0.00  0.00    +0.000 A 
ATOM     29  C   UNL     1      -5.623  10.913  17.907  0.00  0.00    +0.000 A 
ENDBRANCH  22  23
ENDBRANCH  17  22
ENDBRANCH   1  18
BRANCH   1  30
ATOM     30  N   UNL     1       1.264  12.085  18.368  0.00  0.00    +0.000 NA
ATOM     31  H   UNL     1       0.845  12.189  17.441  0.00  0.00    +0.000 HD
ATOM     32  H   UNL     1       1.596  11.119  18.396  0.00  0.00    +0.000 HD
ENDBRANCH   1  30
TORSDOF 5
ENDMDL
MODEL 9
REMARK VINA RESULT:      -6.8      8.287     10.544
REMARK  Name = 
REMARK  6 active torsions:
REMARK  status: ('A' for Active; 'I' for Inactive)
REMARK    1  A    between atoms: C_1  and  C_2
REMARK    2  A    between atoms: C_2  and  N_3
REMARK    3  A    between atoms: C_2  and  C_22
REMARK    4  A    between atoms: C_4  and  C_6
REMARK    5  A    between atoms: C_6  and  N_7
REMARK    6  A    between atoms: N_10  and  C_11
REMARK                            x       y       z     vdW  Elec       q    Type
REMARK                         _______ _______ _______ _____ _____    ______ ____
ROOT
ATOM      1  C   UNL     1       0.641  13.068  20.867  0.00  0.00    +0.000 C 
ATOM      2  C   UNL     1      -0.028  12.126  21.886  0.00  0.00    +0.000 C 
ATOM      3  C   UNL     1      -1.479  11.843  21.488  0.00  0.00    +0.000 C 
ATOM      4  N   UNL     1      -2.166  13.132  21.480  0.00  0.00    +0.000 N 
ATOM      5  C   UNL     1      -1.704  14.035  20.422  0.00  0.00    +0.000 C 
ATOM      6  C   UNL     1      -0.216  14.339  20.659  0.00  0.00    +0.000 C 
ENDROOT
BRANCH   4   7
ATOM      7  C   UNL     1      -3.555  13.010  21.592  0.00  0.00    +0.000 A 
ATOM      8  N   UNL     1      -4.339  12.896  20.486  0.00  0.00    +0.000 NA
ATOM      9  C   UNL     1      -5.647  12.608  20.640  0.00  0.00    +0.000 A 
ATOM     10  N   UNL     1      -6.324  12.391  21.779  0.00  0.00    +0.000 NA
ATOM     11  C   UNL     1      -5.518  12.501  22.844  0.00  0.00    +0.000 A 
ATOM     12  N   UNL     1      -5.903  12.279  24.139  0.00  0.00    +0.000 N 
ATOM     13  C   UNL     1      -4.826  12.427  24.974  0.00  0.00    +0.000 A 
ATOM     14  C   UNL     1      -3.736  12.763  24.200  0.00  0.00    +0.000 A 
ATOM     15  C   UNL     1      -4.168  12.812  22.843  0.00  0.00    +0.000 A 
ATOM     16  H   UNL     1      -6.838  12.004  24.405  0.00  0.00    +0.000 HD
ENDBRANCH   4   7
BRANCH   1  18
ATOM     17  N   UNL     1       0.872  10.911  19.637  0.00  0.00    +0.000 N 
ATOM     18  C   UNL     1       0.904  12.282  19.538  0.00  0.00    +0.000 C 
ATOM     19  O   UNL     1       1.091  12.846  18.460  0.00  0.00    +0.000 OA
ATOM     20  H   UNL     1       0.397  10.544  20.456  0.00  0.00    +0.000 HD
BRANCH  17  22
ATOM     21  C   UNL     1      -0.349   9.830  17.764  0.00  0.00    +0.000 C 
ATOM     22  C   UNL     1       1.000  10.087  18.445  0.00  0.00    +0.000 C 
BRANCH  22  23
ATOM     23  C   UNL     1       1.724   8.790  18.747  0.00  0.00    +0.000 A 
ATOM     24  C   UNL     1       2.552   8.218  17.763  0.00  0.00    +0.000 A 
ATOM     25  C   UNL     1       3.190   6.998  17.991  0.00  0.00    +0.000 A 
ATOM     26  C   UNL     1       3.009   6.349  19.205  0.00  0.00    +0.000 A 
ATOM     27  F   UNL     1       3.611   5.172  19.420  0.00  0.00    +0.000 F 
ATOM     28  C   UNL     1       2.206   6.899  20.197  0.00  0.00    +0.000 A 
ATOM     29  C   UNL     1       1.566   8.119  19.971  0.00  0.00    +0.000 A 
ENDBRANCH  22  23
ENDBRANCH  17  22
ENDBRANCH   1  18
BRANCH   1  30
ATOM     30  N   UNL     1       1.978  13.500  21.380  0.00  0.00    +0.000 NA
ATOM     31  H   UNL     1       1.904  13.614  22.394  0.00  0.00    +0.000 HD
ATOM     32  H   UNL     1       2.168  14.440  21.026  0.00  0.00    +0.000 HD
ENDBRANCH   1  30
TORSDOF 5
ENDMDL
