MODEL 1
REMARK VINA RESULT:      -7.6      0.000      0.000
REMARK  Name = 
REMARK  7 active torsions:
REMARK  status: ('A' for Active; 'I' for Inactive)
REMARK    1  A    between atoms: C_1  and  C_2
REMARK    2  A    between atoms: C_2  and  O_3
REMARK    3  A    between atoms: C_2  and  C_22
REMARK    4  A    between atoms: O_3  and  C_4
REMARK    5  A    between atoms: C_8  and  O_9
REMARK    6  A    between atoms: O_9  and  C_10
REMARK    7  A    between atoms: C_22  and  O_24
REMARK                            x       y       z     vdW  Elec       q    Type
REMARK                         _______ _______ _______ _____ _____    ______ ____
ROOT
ATOM      1  C   UNL     1       4.440   4.269  16.993  0.00  0.00    +0.000 A 
ATOM      2  C   UNL     1       3.372   3.384  16.833  0.00  0.00    +0.000 A 
ATOM      3  C   UNL     1       2.203   3.550  17.567  0.00  0.00    +0.000 A 
ATOM      4  C   UNL     1       2.109   4.599  18.477  0.00  0.00    +0.000 A 
ATOM      5  C   UNL     1       3.183   5.480  18.666  0.00  0.00    +0.000 A 
ATOM      6  C   UNL     1       4.360   5.301  17.934  0.00  0.00    +0.000 A 
ENDROOT
BRANCH   1   7
ATOM      7  O   UNL     1       5.515   3.999  16.193  0.00  0.00    +0.000 OA
BRANCH   7   9
ATOM      8  C   UNL     1       5.555   3.831  13.747  0.00  0.00    +0.000 C 
ATOM      9  C   UNL     1       5.656   4.740  14.969  0.00  0.00    +0.000 C 
BRANCH   9  10
ATOM     10  C   UNL     1       7.053   5.369  14.999  0.00  0.00    +0.000 C 
ATOM     11  O   UNL     1       7.804   5.422  14.035  0.00  0.00    +0.000 OA
BRANCH  10  12
ATOM     12  O   UNL     1       7.395   5.872  16.208  0.00  0.00    +0.000 OA
ATOM     13  H   UNL     1       7.661   5.134  16.804  0.00  0.00    +0.000 HD
ENDBRANCH  10  12
ENDBRANCH   9  10
ENDBRANCH   7   9
ENDBRANCH   1   7
BRANCH   5  14
ATOM     14  O   UNL     1       2.991   6.377  19.685  0.00  0.00    +0.000 OA
BRANCH  14  15
ATOM     15  C   UNL     1       2.207   7.512  19.551  0.00  0.00    +0.000 A 
ATOM     16  C   UNL     1       2.208   8.085  18.290  0.00  0.00    +0.000 A 
ATOM     17  N   UNL     1       1.586   9.251  18.013  0.00  0.00    +0.000 NA
ATOM     18  C   UNL     1       0.928   9.824  19.033  0.00  0.00    +0.000 A 
ATOM     19  C   UNL     1       0.250  11.013  18.808  0.00  0.00    +0.000 A 
ATOM     20  C   UNL     1      -0.522  11.601  19.807  0.00  0.00    +0.000 A 
ATOM     21  C   UNL     1      -0.599  10.990  21.052  0.00  0.00    +0.000 A 
ATOM     22 CL   UNL     1      -1.620  11.657  22.265  0.00  0.00    +0.000 Cl
ATOM     23  C   UNL     1       0.126   9.828  21.314  0.00  0.00    +0.000 A 
ATOM     24  C   UNL     1       0.892   9.225  20.324  0.00  0.00    +0.000 A 
ATOM     25  N   UNL     1       1.561   8.080  20.594  0.00  0.00    +0.000 NA
ENDBRANCH  14  15
ENDBRANCH   5  14
TORSDOF 6
ENDMDL
MODEL 2
REMARK VINA RESULT:      -7.5      1.039      1.347
REMARK  Name = 
REMARK  7 active torsions:
REMARK  status: ('A' for Active; 'I' for Inactive)
REMARK    1  A    between atoms: C_1  and  C_2
REMARK    2  A    between atoms: C_2  and  O_3
REMARK    3  A    between atoms: C_2  and  C_22
REMARK    4  A    between atoms: O_3  and  C_4
REMARK    5  A    between atoms: C_8  and  O_9
REMARK    6  A    between atoms: O_9  and  C_10
REMARK    7  A    between atoms: C_22  and  O_24
REMARK                            x       y       z     vdW  Elec       q    Type
REMARK                         _______ _______ _______ _____ _____    ______ ____
ROOT
ATOM      1  C   UNL     1       4.194   5.085  17.101  0.00  0.00    +0.000 A 
ATOM      2  C   UNL     1       3.458   3.904  16.979  0.00  0.00    +0.000 A 
ATOM      3  C   UNL     1       2.433   3.617  17.874  0.00  0.00    +0.000 A 
ATOM      4  C   UNL     1       2.153   4.510  18.904  0.00  0.00    +0.000 A 
ATOM      5  C   UNL     1       2.900   5.687  19.053  0.00  0.00    +0.000 A 
ATOM      6  C   UNL     1       3.937   5.964  18.158  0.00  0.00    +0.000 A 
ENDROOT
BRANCH   1   7
ATOM      7  O   UNL     1       5.155   5.247  16.142  0.00  0.00    +0.000 OA
BRANCH   7   9
ATOM      8  C   UNL     1       7.305   4.625  17.143  0.00  0.00    +0.000 C 
ATOM      9  C   UNL     1       6.239   4.304  16.099  0.00  0.00    +0.000 C 
BRANCH   9  10
ATOM     10  C   UNL     1       6.864   4.422  14.706  0.00  0.00    +0.000 C 
ATOM     11  O   UNL     1       7.683   5.274  14.389  0.00  0.00    +0.000 OA
BRANCH  10  12
ATOM     12  O   UNL     1       6.425   3.484  13.833  0.00  0.00    +0.000 OA
ATOM     13  H   UNL     1       7.190   2.952  13.515  0.00  0.00    +0.000 HD
ENDBRANCH  10  12
ENDBRANCH   9  10
ENDBRANCH   7   9
ENDBRANCH   1   7
BRANCH   5  14
ATOM     14  O   UNL     1       2.596   6.397  20.186  0.00  0.00    +0.000 OA
BRANCH  14  15
ATOM     15  C   UNL     1       1.862   7.572  20.163  0.00  0.00    +0.000 A 
ATOM     16  C   UNL     1       1.916   8.279  18.972  0.00  0.00    +0.000 A 
ATOM     17  N   UNL     1       1.348   9.494  18.813  0.00  0.00    +0.000 NA
ATOM     18  C   UNL     1       0.691   9.980  19.878  0.00  0.00    +0.000 A 
ATOM     19  C   UNL     1       0.068  11.215  19.772  0.00  0.00    +0.000 A 
ATOM     20  C   UNL     1      -0.703  11.724  20.815  0.00  0.00    +0.000 A 
ATOM     21  C   UNL     1      -0.834  10.984  21.983  0.00  0.00    +0.000 A 
ATOM     22 CL   UNL     1      -1.855  11.558  23.243  0.00  0.00    +0.000 Cl
ATOM     23  C   UNL     1      -0.163   9.770  22.130  0.00  0.00    +0.000 A 
ATOM     24  C   UNL     1       0.601   9.246  21.094  0.00  0.00    +0.000 A 
ATOM     25  N   UNL     1       1.216   8.051  21.249  0.00  0.00    +0.000 NA
ENDBRANCH  14  15
ENDBRANCH   5  14
TORSDOF 6
ENDMDL
MODEL 3
REMARK VINA RESULT:      -7.4      0.883      1.100
REMARK  Name = 
REMARK  7 active torsions:
REMARK  status: ('A' for Active; 'I' for Inactive)
REMARK    1  A    between atoms: C_1  and  C_2
REMARK    2  A    between atoms: C_2  and  O_3
REMARK    3  A    between atoms: C_2  and  C_22
REMARK    4  A    between atoms: O_3  and  C_4
REMARK    5  A    between atoms: C_8  and  O_9
REMARK    6  A    between atoms: O_9  and  C_10
REMARK    7  A    between atoms: C_22  and  O_24
REMARK                            x       y       z     vdW  Elec       q    Type
REMARK                         _______ _______ _______ _____ _____    ______ ____
ROOT
ATOM      1  C   UNL     1       4.084   4.134  17.524  0.00  0.00    +0.000 A 
ATOM      2  C   UNL     1       3.031   3.257  17.253  0.00  0.00    +0.000 A 
ATOM      3  C   UNL     1       1.839   3.347  17.962  0.00  0.00    +0.000 A 
ATOM      4  C   UNL     1       1.706   4.310  18.958  0.00  0.00    +0.000 A 
ATOM      5  C   UNL     1       2.763   5.179  19.259  0.00  0.00    +0.000 A 
ATOM      6  C   UNL     1       3.963   5.077  18.551  0.00  0.00    +0.000 A 
ENDROOT
BRANCH   1   7
ATOM      7  O   UNL     1       5.186   3.945  16.738  0.00  0.00    +0.000 OA
BRANCH   7   9
ATOM      8  C   UNL     1       5.228   5.216  14.641  0.00  0.00    +0.000 C 
ATOM      9  C   UNL     1       5.749   5.088  16.070  0.00  0.00    +0.000 C 
BRANCH   9  10
ATOM     10  C   UNL     1       7.263   4.862  16.022  0.00  0.00    +0.000 C 
ATOM     11  O   UNL     1       7.919   4.396  16.944  0.00  0.00    +0.000 OA
BRANCH  10  12
ATOM     12  O   UNL     1       7.830   5.229  14.848  0.00  0.00    +0.000 OA
ATOM     13  H   UNL     1       7.913   6.210  14.820  0.00  0.00    +0.000 HD
ENDBRANCH  10  12
ENDBRANCH   9  10
ENDBRANCH   7   9
ENDBRANCH   1   7
BRANCH   5  14
ATOM     14  O   UNL     1       2.530   5.980  20.347  0.00  0.00    +0.000 OA
BRANCH  14  15
ATOM     15  C   UNL     1       1.890   7.205  20.256  0.00  0.00    +0.000 A 
ATOM     16  C   UNL     1       2.077   7.883  19.062  0.00  0.00    +0.000 A 
ATOM     17  N   UNL     1       1.614   9.133  18.847  0.00  0.00    +0.000 NA
ATOM     18  C   UNL     1       0.923   9.687  19.857  0.00  0.00    +0.000 A 
ATOM     19  C   UNL     1       0.403  10.962  19.690  0.00  0.00    +0.000 A 
ATOM     20  C   UNL     1      -0.397  11.546  20.670  0.00  0.00    +0.000 A 
ATOM     21  C   UNL     1      -0.662  10.841  21.837  0.00  0.00    +0.000 A 
ATOM     22 CL   UNL     1      -1.721  11.513  23.014  0.00  0.00    +0.000 Cl
ATOM     23  C   UNL     1      -0.095   9.584  22.047  0.00  0.00    +0.000 A 
ATOM     24  C   UNL     1       0.696   8.985  21.074  0.00  0.00    +0.000 A 
ATOM     25  N   UNL     1       1.208   7.751  21.288  0.00  0.00    +0.000 NA
ENDBRANCH  14  15
ENDBRANCH   5  14
TORSDOF 6
ENDMDL
MODEL 4
REMARK VINA RESULT:      -7.3      2.380      3.811
REMARK  Name = 
REMARK  7 active torsions:
REMARK  status: ('A' for Active; 'I' for Inactive)
REMARK    1  A    between atoms: C_1  and  C_2
REMARK    2  A    between atoms: C_2  and  O_3
REMARK    3  A    between atoms: C_2  and  C_22
REMARK    4  A    between atoms: O_3  and  C_4
REMARK    5  A    between atoms: C_8  and  O_9
REMARK    6  A    between atoms: O_9  and  C_10
REMARK    7  A    between atoms: C_22  and  O_24
REMARK                            x       y       z     vdW  Elec       q    Type
REMARK                         _______ _______ _______ _____ _____    ______ ____
ROOT
ATOM      1  C   UNL     1       5.617   4.325  14.997  0.00  0.00    +0.000 A 
ATOM      2  C   UNL     1       6.913   4.685  15.371  0.00  0.00    +0.000 A 
ATOM      3  C   UNL     1       7.276   4.714  16.713  0.00  0.00    +0.000 A 
ATOM      4  C   UNL     1       6.331   4.395  17.685  0.00  0.00    +0.000 A 
ATOM      5  C   UNL     1       5.020   4.057  17.324  0.00  0.00    +0.000 A 
ATOM      6  C   UNL     1       4.658   4.041  15.975  0.00  0.00    +0.000 A 
ENDROOT
BRANCH   1   7
ATOM      7  O   UNL     1       5.407   4.318  13.646  0.00  0.00    +0.000 OA
BRANCH   7   9
ATOM      8  C   UNL     1       7.230   4.455  12.011  0.00  0.00    +0.000 C 
ATOM      9  C   UNL     1       6.303   3.553  12.821  0.00  0.00    +0.000 C 
BRANCH   9  10
ATOM     10  C   UNL     1       5.427   2.753  11.852  0.00  0.00    +0.000 C 
ATOM     11  O   UNL     1       5.703   1.636  11.436  0.00  0.00    +0.000 OA
BRANCH  10  12
ATOM     12  O   UNL     1       4.295   3.399  11.485  0.00  0.00    +0.000 OA
ATOM     13  H   UNL     1       4.139   3.260  10.522  0.00  0.00    +0.000 HD
ENDBRANCH  10  12
ENDBRANCH   9  10
ENDBRANCH   7   9
ENDBRANCH   1   7
BRANCH   5  14
ATOM     14  O   UNL     1       4.175   3.898  18.392  0.00  0.00    +0.000 OA
BRANCH  14  15
ATOM     15  C   UNL     1       3.483   4.952  18.967  0.00  0.00    +0.000 A 
ATOM     16  C   UNL     1       2.971   4.703  20.230  0.00  0.00    +0.000 A 
ATOM     17  N   UNL     1       2.182   5.580  20.888  0.00  0.00    +0.000 NA
ATOM     18  C   UNL     1       1.939   6.740  20.259  0.00  0.00    +0.000 A 
ATOM     19  C   UNL     1       1.152   7.692  20.892  0.00  0.00    +0.000 A 
ATOM     20  C   UNL     1       0.945   8.947  20.324  0.00  0.00    +0.000 A 
ATOM     21  C   UNL     1       1.524   9.238  19.095  0.00  0.00    +0.000 A 
ATOM     22 CL   UNL     1       1.350  10.813  18.425  0.00  0.00    +0.000 Cl
ATOM     23  C   UNL     1       2.266   8.271  18.416  0.00  0.00    +0.000 A 
ATOM     24  C   UNL     1       2.489   7.020  18.976  0.00  0.00    +0.000 A 
ATOM     25  N   UNL     1       3.239   6.109  18.313  0.00  0.00    +0.000 NA
ENDBRANCH  14  15
ENDBRANCH   5  14
TORSDOF 6
ENDMDL
MODEL 5
REMARK VINA RESULT:      -7.3      3.729      8.179
REMARK  Name = 
REMARK  7 active torsions:
REMARK  status: ('A' for Active; 'I' for Inactive)
REMARK    1  A    between atoms: C_1  and  C_2
REMARK    2  A    between atoms: C_2  and  O_3
REMARK    3  A    between atoms: C_2  and  C_22
REMARK    4  A    between atoms: O_3  and  C_4
REMARK    5  A    between atoms: C_8  and  O_9
REMARK    6  A    between atoms: O_9  and  C_10
REMARK    7  A    between atoms: C_22  and  O_24
REMARK                            x       y       z     vdW  Elec       q    Type
REMARK                         _______ _______ _______ _____ _____    ______ ____
ROOT
ATOM      1  C   UNL     1       0.274  10.612  20.050  0.00  0.00    +0.000 A 
ATOM      2  C   UNL     1      -0.862  10.782  19.256  0.00  0.00    +0.000 A 
ATOM      3  C   UNL     1      -0.930  10.205  17.992  0.00  0.00    +0.000 A 
ATOM      4  C   UNL     1       0.150   9.467  17.517  0.00  0.00    +0.000 A 
ATOM      5  C   UNL     1       1.306   9.311  18.294  0.00  0.00    +0.000 A 
ATOM      6  C   UNL     1       1.374   9.903  19.558  0.00  0.00    +0.000 A 
ENDROOT
BRANCH   1   7
ATOM      7  O   UNL     1       0.195  11.215  21.275  0.00  0.00    +0.000 OA
BRANCH   7   9
ATOM      8  C   UNL     1      -1.273  11.992  23.079  0.00  0.00    +0.000 C 
ATOM      9  C   UNL     1      -0.887  10.847  22.147  0.00  0.00    +0.000 C 
BRANCH   9  10
ATOM     10  C   UNL     1      -0.384   9.674  22.993  0.00  0.00    +0.000 C 
ATOM     11  O   UNL     1       0.438   9.777  23.893  0.00  0.00    +0.000 OA
BRANCH  10  12
ATOM     12  O   UNL     1      -0.936   8.485  22.655  0.00  0.00    +0.000 OA
ATOM     13  H   UNL     1      -1.651   8.264  23.295  0.00  0.00    +0.000 HD
ENDBRANCH  10  12
ENDBRANCH   9  10
ENDBRANCH   7   9
ENDBRANCH   1   7
BRANCH   5  14
ATOM     14  O   UNL     1       2.331   8.674  17.641  0.00  0.00    +0.000 OA
BRANCH  14  15
ATOM     15  C   UNL     1       2.846   7.457  18.057  0.00  0.00    +0.000 A 
ATOM     16  C   UNL     1       4.009   7.059  17.419  0.00  0.00    +0.000 A 
ATOM     17  N   UNL     1       4.585   5.854  17.625  0.00  0.00    +0.000 NA
ATOM     18  C   UNL     1       3.978   5.058  18.520  0.00  0.00    +0.000 A 
ATOM     19  C   UNL     1       4.532   3.815  18.792  0.00  0.00    +0.000 A 
ATOM     20  C   UNL     1       3.995   2.988  19.776  0.00  0.00    +0.000 A 
ATOM     21  C   UNL     1       2.877   3.414  20.482  0.00  0.00    +0.000 A 
ATOM     22 CL   UNL     1       2.259   2.443  21.761  0.00  0.00    +0.000 Cl
ATOM     23  C   UNL     1       2.271   4.633  20.178  0.00  0.00    +0.000 A 
ATOM     24  C   UNL     1       2.802   5.472  19.206  0.00  0.00    +0.000 A 
ATOM     25  N   UNL     1       2.214   6.664  18.951  0.00  0.00    +0.000 NA
ENDBRANCH  14  15
ENDBRANCH   5  14
TORSDOF 6
ENDMDL
MODEL 6
REMARK VINA RESULT:      -7.2      4.365      7.749
REMARK  Name = 
REMARK  7 active torsions:
REMARK  status: ('A' for Active; 'I' for Inactive)
REMARK    1  A    between atoms: C_1  and  C_2
REMARK    2  A    between atoms: C_2  and  O_3
REMARK    3  A    between atoms: C_2  and  C_22
REMARK    4  A    between atoms: O_3  and  C_4
REMARK    5  A    between atoms: C_8  and  O_9
REMARK    6  A    between atoms: O_9  and  C_10
REMARK    7  A    between atoms: C_22  and  O_24
REMARK                            x       y       z     vdW  Elec       q    Type
REMARK                         _______ _______ _______ _____ _____    ______ ____
ROOT
ATOM      1  C   UNL     1       2.451   6.275  19.891  0.00  0.00    +0.000 A 
ATOM      2  C   UNL     1       1.526   5.418  20.491  0.00  0.00    +0.000 A 
ATOM      3  C   UNL     1       1.854   4.090  20.739  0.00  0.00    +0.000 A 
ATOM      4  C   UNL     1       3.109   3.614  20.371  0.00  0.00    +0.000 A 
ATOM      5  C   UNL     1       4.038   4.457  19.745  0.00  0.00    +0.000 A 
ATOM      6  C   UNL     1       3.699   5.787  19.487  0.00  0.00    +0.000 A 
ENDROOT
BRANCH   1   7
ATOM      7  O   UNL     1       2.003   7.556  19.727  0.00  0.00    +0.000 OA
BRANCH   7   9
ATOM      8  C   UNL     1       3.183   7.957  17.615  0.00  0.00    +0.000 C 
ATOM      9  C   UNL     1       1.872   8.066  18.389  0.00  0.00    +0.000 C 
BRANCH   9  10
ATOM     10  C   UNL     1       1.500   9.545  18.520  0.00  0.00    +0.000 C 
ATOM     11  O   UNL     1       1.048  10.054  19.537  0.00  0.00    +0.000 OA
BRANCH  10  12
ATOM     12  O   UNL     1       1.717  10.262  17.392  0.00  0.00    +0.000 OA
ATOM     13  H   UNL     1       1.922   9.646  16.651  0.00  0.00    +0.000 HD
ENDBRANCH  10  12
ENDBRANCH   9  10
ENDBRANCH   7   9
ENDBRANCH   1   7
BRANCH   5  14
ATOM     14  O   UNL     1       5.174   3.814  19.325  0.00  0.00    +0.000 OA
BRANCH  14  15
ATOM     15  C   UNL     1       5.736   4.020  18.075  0.00  0.00    +0.000 A 
ATOM     16  C   UNL     1       6.940   4.705  18.074  0.00  0.00    +0.000 A 
ATOM     17  N   UNL     1       7.569   5.083  16.940  0.00  0.00    +0.000 NA
ATOM     18  C   UNL     1       6.973   4.728  15.791  0.00  0.00    +0.000 A 
ATOM     19  C   UNL     1       7.580   5.069  14.590  0.00  0.00    +0.000 A 
ATOM     20  C   UNL     1       7.052   4.647  13.372  0.00  0.00    +0.000 A 
ATOM     21  C   UNL     1       5.890   3.887  13.365  0.00  0.00    +0.000 A 
ATOM     22 CL   UNL     1       5.278   3.284  11.875  0.00  0.00    +0.000 Cl
ATOM     23  C   UNL     1       5.233   3.589  14.559  0.00  0.00    +0.000 A 
ATOM     24  C   UNL     1       5.754   3.994  15.781  0.00  0.00    +0.000 A 
ATOM     25  N   UNL     1       5.115   3.665  16.928  0.00  0.00    +0.000 NA
ENDBRANCH  14  15
ENDBRANCH   5  14
TORSDOF 6
ENDMDL
MODEL 7
REMARK VINA RESULT:      -7.1      3.772      5.259
REMARK  Name = 
REMARK  7 active torsions:
REMARK  status: ('A' for Active; 'I' for Inactive)
REMARK    1  A    between atoms: C_1  and  C_2
REMARK    2  A    between atoms: C_2  and  O_3
REMARK    3  A    between atoms: C_2  and  C_22
REMARK    4  A    between atoms: O_3  and  C_4
REMARK    5  A    between atoms: C_8  and  O_9
REMARK    6  A    between atoms: O_9  and  C_10
REMARK    7  A    between atoms: C_22  and  O_24
REMARK                            x       y       z     vdW  Elec       q    Type
REMARK                         _______ _______ _______ _____ _____    ______ ____
ROOT
ATOM      1  C   UNL     1       1.977   6.035  19.871  0.00  0.00    +0.000 A 
ATOM      2  C   UNL     1       2.577   5.909  18.617  0.00  0.00    +0.000 A 
ATOM      3  C   UNL     1       2.795   7.031  17.825  0.00  0.00    +0.000 A 
ATOM      4  C   UNL     1       2.397   8.283  18.287  0.00  0.00    +0.000 A 
ATOM      5  C   UNL     1       1.770   8.420  19.532  0.00  0.00    +0.000 A 
ATOM      6  C   UNL     1       1.542   7.287  20.319  0.00  0.00    +0.000 A 
ENDROOT
BRANCH   1   7
ATOM      7  O   UNL     1       1.843   4.854  20.548  0.00  0.00    +0.000 OA
BRANCH   7   9
ATOM      8  C   UNL     1       0.845   2.832  19.585  0.00  0.00    +0.000 C 
ATOM      9  C   UNL     1       2.119   3.631  19.844  0.00  0.00    +0.000 C 
BRANCH   9  10
ATOM     10  C   UNL     1       3.040   2.806  20.749  0.00  0.00    +0.000 C 
ATOM     11  O   UNL     1       4.096   2.308  20.385  0.00  0.00    +0.000 OA
BRANCH  10  12
ATOM     12  O   UNL     1       2.577   2.670  22.014  0.00  0.00    +0.000 OA
ATOM     13  H   UNL     1       1.890   1.964  22.035  0.00  0.00    +0.000 HD
ENDBRANCH  10  12
ENDBRANCH   9  10
ENDBRANCH   7   9
ENDBRANCH   1   7
BRANCH   5  14
ATOM     14  O   UNL     1       1.319   9.688  19.790  0.00  0.00    +0.000 OA
BRANCH  14  15
ATOM     15  C   UNL     1       0.146  10.194  19.253  0.00  0.00    +0.000 A 
ATOM     16  C   UNL     1      -0.492  11.153  20.023  0.00  0.00    +0.000 A 
ATOM     17  N   UNL     1      -1.697  11.671  19.701  0.00  0.00    +0.000 NA
ATOM     18  C   UNL     1      -2.243  11.223  18.559  0.00  0.00    +0.000 A 
ATOM     19  C   UNL     1      -3.471  11.732  18.162  0.00  0.00    +0.000 A 
ATOM     20  C   UNL     1      -4.039  11.371  16.942  0.00  0.00    +0.000 A 
ATOM     21  C   UNL     1      -3.368  10.474  16.122  0.00  0.00    +0.000 A 
ATOM     22 CL   UNL     1      -4.013  10.089  14.575  0.00  0.00    +0.000 Cl
ATOM     23  C   UNL     1      -2.162   9.905  16.534  0.00  0.00    +0.000 A 
ATOM     24  C   UNL     1      -1.580  10.264  17.743  0.00  0.00    +0.000 A 
ATOM     25  N   UNL     1      -0.394   9.723  18.107  0.00  0.00    +0.000 NA
ENDBRANCH  14  15
ENDBRANCH   5  14
TORSDOF 6
ENDMDL
MODEL 8
REMARK VINA RESULT:      -7.1      1.849      2.976
REMARK  Name = 
REMARK  7 active torsions:
REMARK  status: ('A' for Active; 'I' for Inactive)
REMARK    1  A    between atoms: C_1  and  C_2
REMARK    2  A    between atoms: C_2  and  O_3
REMARK    3  A    between atoms: C_2  and  C_22
REMARK    4  A    between atoms: O_3  and  C_4
REMARK    5  A    between atoms: C_8  and  O_9
REMARK    6  A    between atoms: O_9  and  C_10
REMARK    7  A    between atoms: C_22  and  O_24
REMARK                            x       y       z     vdW  Elec       q    Type
REMARK                         _______ _______ _______ _____ _____    ______ ____
ROOT
ATOM      1  C   UNL     1       6.599   4.555  16.602  0.00  0.00    +0.000 A 
ATOM      2  C   UNL     1       7.483   5.102  17.535  0.00  0.00    +0.000 A 
ATOM      3  C   UNL     1       7.048   5.415  18.818  0.00  0.00    +0.000 A 
ATOM      4  C   UNL     1       5.718   5.194  19.163  0.00  0.00    +0.000 A 
ATOM      5  C   UNL     1       4.814   4.670  18.229  0.00  0.00    +0.000 A 
ATOM      6  C   UNL     1       5.254   4.368  16.937  0.00  0.00    +0.000 A 
ENDROOT
BRANCH   1   7
ATOM      7  O   UNL     1       7.167   4.277  15.390  0.00  0.00    +0.000 OA
BRANCH   7   9
ATOM      8  C   UNL     1       5.605   3.811  13.557  0.00  0.00    +0.000 C 
ATOM      9  C   UNL     1       6.549   4.818  14.209  0.00  0.00    +0.000 C 
BRANCH   9  10
ATOM     10  C   UNL     1       7.684   5.133  13.230  0.00  0.00    +0.000 C 
ATOM     11  O   UNL     1       8.629   5.867  13.484  0.00  0.00    +0.000 OA
BRANCH  10  12
ATOM     12  O   UNL     1       7.551   4.518  12.030  0.00  0.00    +0.000 OA
ATOM     13  H   UNL     1       6.832   3.848  12.086  0.00  0.00    +0.000 HD
ENDBRANCH  10  12
ENDBRANCH   9  10
ENDBRANCH   7   9
ENDBRANCH   1   7
BRANCH   5  14
ATOM     14  O   UNL     1       3.517   4.633  18.672  0.00  0.00    +0.000 OA
BRANCH  14  15
ATOM     15  C   UNL     1       2.874   5.736  19.210  0.00  0.00    +0.000 A 
ATOM     16  C   UNL     1       2.283   5.530  20.446  0.00  0.00    +0.000 A 
ATOM     17  N   UNL     1       1.527   6.464  21.063  0.00  0.00    +0.000 NA
ATOM     18  C   UNL     1       1.398   7.635  20.420  0.00  0.00    +0.000 A 
ATOM     19  C   UNL     1       0.650   8.644  21.011  0.00  0.00    +0.000 A 
ATOM     20  C   UNL     1       0.559   9.907  20.431  0.00  0.00    +0.000 A 
ATOM     21  C   UNL     1       1.218  10.150  19.232  0.00  0.00    +0.000 A 
ATOM     22 CL   UNL     1       1.189  11.729  18.552  0.00  0.00    +0.000 Cl
ATOM     23  C   UNL     1       1.922   9.129  18.593  0.00  0.00    +0.000 A 
ATOM     24  C   UNL     1       2.029   7.868  19.165  0.00  0.00    +0.000 A 
ATOM     25  N   UNL     1       2.745   6.904  18.542  0.00  0.00    +0.000 NA
ENDBRANCH  14  15
ENDBRANCH   5  14
TORSDOF 6
ENDMDL
MODEL 9
REMARK VINA RESULT:      -7.1      2.561      4.124
REMARK  Name = 
REMARK  7 active torsions:
REMARK  status: ('A' for Active; 'I' for Inactive)
REMARK    1  A    between atoms: C_1  and  C_2
REMARK    2  A    between atoms: C_2  and  O_3
REMARK    3  A    between atoms: C_2  and  C_22
REMARK    4  A    between atoms: O_3  and  C_4
REMARK    5  A    between atoms: C_8  and  O_9
REMARK    6  A    between atoms: O_9  and  C_10
REMARK    7  A    between atoms: C_22  and  O_24
REMARK                            x       y       z     vdW  Elec       q    Type
REMARK                         _______ _______ _______ _____ _____    ______ ____
ROOT
ATOM      1  C   UNL     1       4.039   4.324  18.880  0.00  0.00    +0.000 A 
ATOM      2  C   UNL     1       5.388   4.315  18.515  0.00  0.00    +0.000 A 
ATOM      3  C   UNL     1       5.949   5.411  17.869  0.00  0.00    +0.000 A 
ATOM      4  C   UNL     1       5.153   6.514  17.574  0.00  0.00    +0.000 A 
ATOM      5  C   UNL     1       3.793   6.525  17.911  0.00  0.00    +0.000 A 
ATOM      6  C   UNL     1       3.231   5.417  18.549  0.00  0.00    +0.000 A 
ENDROOT
BRANCH   1   7
ATOM      7  O   UNL     1       3.627   3.192  19.526  0.00  0.00    +0.000 OA
BRANCH   7   9
ATOM      8  C   UNL     1       2.200   2.589  21.427  0.00  0.00    +0.000 C 
ATOM      9  C   UNL     1       2.272   3.136  20.004  0.00  0.00    +0.000 C 
BRANCH   9  10
ATOM     10  C   UNL     1       1.521   2.180  19.072  0.00  0.00    +0.000 C 
ATOM     11  O   UNL     1       0.307   2.179  18.920  0.00  0.00    +0.000 OA
BRANCH  10  12
ATOM     12  O   UNL     1       2.330   1.316  18.415  0.00  0.00    +0.000 OA
ATOM     13  H   UNL     1       2.783   1.789  17.680  0.00  0.00    +0.000 HD
ENDBRANCH  10  12
ENDBRANCH   9  10
ENDBRANCH   7   9
ENDBRANCH   1   7
BRANCH   5  14
ATOM     14  O   UNL     1       3.114   7.619  17.440  0.00  0.00    +0.000 OA
BRANCH  14  15
ATOM     15  C   UNL     1       2.200   8.325  18.206  0.00  0.00    +0.000 A 
ATOM     16  C   UNL     1       1.416   9.228  17.506  0.00  0.00    +0.000 A 
ATOM     17  N   UNL     1       0.551  10.072  18.111  0.00  0.00    +0.000 NA
ATOM     18  C   UNL     1       0.467   9.970  19.447  0.00  0.00    +0.000 A 
ATOM     19  C   UNL     1      -0.418  10.796  20.125  0.00  0.00    +0.000 A 
ATOM     20  C   UNL     1      -0.611  10.669  21.499  0.00  0.00    +0.000 A 
ATOM     21  C   UNL     1       0.109   9.709  22.198  0.00  0.00    +0.000 A 
ATOM     22 CL   UNL     1      -0.185   9.481  23.877  0.00  0.00    +0.000 Cl
ATOM     23  C   UNL     1       1.049   8.913  21.542  0.00  0.00    +0.000 A 
ATOM     24  C   UNL     1       1.244   9.022  20.171  0.00  0.00    +0.000 A 
ATOM     25  N   UNL     1       2.138   8.217  19.552  0.00  0.00    +0.000 NA
ENDBRANCH  14  15
ENDBRANCH   5  14
TORSDOF 6
ENDMDL
