MODEL 1
REMARK VINA RESULT:      -8.3      0.000      0.000
REMARK  Name = 
REMARK  13 active torsions:
REMARK  status: ('A' for Active; 'I' for Inactive)
REMARK    1  A    between atoms: C_1  and  C_2
REMARK    2  A    between atoms: C_2  and  C_3
REMARK    3  A    between atoms: C_3  and  C_4
REMARK    4  A    between atoms: C_3  and  C_5
REMARK    5  A    between atoms: C_5  and  C_6
REMARK    6  A    between atoms: C_5  and  C_13
REMARK    7  A    between atoms: C_10  and  O_11
REMARK    8  A    between atoms: C_13  and  C_14
REMARK    9  A    between atoms: C_13  and  C_21
REMARK   10  A    between atoms: C_18  and  O_19
REMARK   11  A    between atoms: C_21  and  C_22
REMARK   12  A    between atoms: C_21  and  C_23
REMARK   13  A    between atoms: C_23  and  C_24
REMARK                            x       y       z     vdW  Elec       q    Type
REMARK                         _______ _______ _______ _____ _____    ______ ____
ROOT
ATOM      1  C   UNL     1       2.308   5.492  18.948  0.00  0.00    +0.000 C 
ENDROOT
BRANCH   1   2
ATOM      2  C   UNL     1       2.205   7.070  19.077  0.00  0.00    +0.000 A 
ATOM      3  C   UNL     1       2.263   7.851  17.888  0.00  0.00    +0.000 A 
ATOM      4  C   UNL     1       1.882   9.213  17.847  0.00  0.00    +0.000 A 
ATOM      5  C   UNL     1       1.425   9.865  18.983  0.00  0.00    +0.000 A 
ATOM      6  C   UNL     1       1.375   9.145  20.164  0.00  0.00    +0.000 A 
ATOM      7  C   UNL     1       1.748   7.769  20.232  0.00  0.00    +0.000 A 
BRANCH   6   8
ATOM      8  O   UNL     1       0.882   9.744  21.295  0.00  0.00    +0.000 OA
ATOM      9  H   UNL     1       0.163   9.187  21.652  0.00  0.00    +0.000 HD
ENDBRANCH   6   8
ENDBRANCH   1   2
BRANCH   1  10
ATOM     10  C   UNL     1       1.624   4.856  20.222  0.00  0.00    +0.000 C 
ATOM     11  C   UNL     1       0.663   3.656  20.009  0.00  0.00    +0.000 C 
BRANCH  10  13
ATOM     12  C   UNL     1       2.452   2.896  21.633  0.00  0.00    +0.000 C 
ATOM     13  C   UNL     1       2.668   4.341  21.204  0.00  0.00    +0.000 C 
ENDBRANCH  10  13
ENDBRANCH   1  10
BRANCH   1  14
ATOM     14  C   UNL     1       3.715   4.713  18.353  0.00  0.00    +0.000 C 
BRANCH  14  15
ATOM     15  C   UNL     1       5.142   5.468  18.329  0.00  0.00    +0.000 A 
ATOM     16  C   UNL     1       5.497   6.488  17.413  0.00  0.00    +0.000 A 
ATOM     17  C   UNL     1       6.722   7.185  17.420  0.00  0.00    +0.000 A 
ATOM     18  C   UNL     1       7.706   6.839  18.321  0.00  0.00    +0.000 A 
ATOM     19  C   UNL     1       7.427   5.791  19.198  0.00  0.00    +0.000 A 
ATOM     20  C   UNL     1       6.191   5.120  19.216  0.00  0.00    +0.000 A 
BRANCH  19  21
ATOM     21  O   UNL     1       8.414   5.419  20.078  0.00  0.00    +0.000 OA
ATOM     22  H   UNL     1       8.038   4.851  20.777  0.00  0.00    +0.000 HD
ENDBRANCH  19  21
ENDBRANCH  14  15
BRANCH  14  23
ATOM     23  C   UNL     1       3.532   3.809  17.057  0.00  0.00    +0.000 C 
ATOM     24  C   UNL     1       4.792   3.511  16.233  0.00  0.00    +0.000 C 
BRANCH  23  25
ATOM     25  C   UNL     1       2.823   2.469  17.444  0.00  0.00    +0.000 C 
ATOM     26  C   UNL     1       3.598   1.557  18.390  0.00  0.00    +0.000 C 
ENDBRANCH  23  25
ENDBRANCH  14  23
ENDBRANCH   1  14
TORSDOF 9
ENDMDL
MODEL 2
REMARK VINA RESULT:      -7.7      0.929      1.340
REMARK  Name = 
REMARK  13 active torsions:
REMARK  status: ('A' for Active; 'I' for Inactive)
REMARK    1  A    between atoms: C_1  and  C_2
REMARK    2  A    between atoms: C_2  and  C_3
REMARK    3  A    between atoms: C_3  and  C_4
REMARK    4  A    between atoms: C_3  and  C_5
REMARK    5  A    between atoms: C_5  and  C_6
REMARK    6  A    between atoms: C_5  and  C_13
REMARK    7  A    between atoms: C_10  and  O_11
REMARK    8  A    between atoms: C_13  and  C_14
REMARK    9  A    between atoms: C_13  and  C_21
REMARK   10  A    between atoms: C_18  and  O_19
REMARK   11  A    between atoms: C_21  and  C_22
REMARK   12  A    between atoms: C_21  and  C_23
REMARK   13  A    between atoms: C_23  and  C_24
REMARK                            x       y       z     vdW  Elec       q    Type
REMARK                         _______ _______ _______ _____ _____    ______ ____
ROOT
ATOM      1  C   UNL     1       2.465   5.553  18.973  0.00  0.00    +0.000 C 
ENDROOT
BRANCH   1   2
ATOM      2  C   UNL     1       2.332   7.131  19.063  0.00  0.00    +0.000 A 
ATOM      3  C   UNL     1       2.421   7.886  17.860  0.00  0.00    +0.000 A 
ATOM      4  C   UNL     1       2.019   9.241  17.773  0.00  0.00    +0.000 A 
ATOM      5  C   UNL     1       1.511   9.910  18.877  0.00  0.00    +0.000 A 
ATOM      6  C   UNL     1       1.429   9.215  20.071  0.00  0.00    +0.000 A 
ATOM      7  C   UNL     1       1.822   7.847  20.184  0.00  0.00    +0.000 A 
BRANCH   6   8
ATOM      8  O   UNL     1       0.886   9.831  21.170  0.00  0.00    +0.000 OA
ATOM      9  H   UNL     1       0.462  10.663  20.880  0.00  0.00    +0.000 HD
ENDBRANCH   6   8
ENDBRANCH   1   2
BRANCH   1  10
ATOM     10  C   UNL     1       1.839   4.939  20.287  0.00  0.00    +0.000 C 
ATOM     11  C   UNL     1       0.687   3.910  20.132  0.00  0.00    +0.000 C 
BRANCH  10  13
ATOM     12  C   UNL     1       2.458   2.835  21.595  0.00  0.00    +0.000 C 
ATOM     13  C   UNL     1       2.895   4.210  21.108  0.00  0.00    +0.000 C 
ENDBRANCH  10  13
ENDBRANCH   1  10
BRANCH   1  14
ATOM     14  C   UNL     1       3.868   4.787  18.352  0.00  0.00    +0.000 C 
BRANCH  14  15
ATOM     15  C   UNL     1       5.319   5.487  18.458  0.00  0.00    +0.000 A 
ATOM     16  C   UNL     1       6.303   5.156  19.422  0.00  0.00    +0.000 A 
ATOM     17  C   UNL     1       7.589   5.728  19.487  0.00  0.00    +0.000 A 
ATOM     18  C   UNL     1       7.941   6.735  18.614  0.00  0.00    +0.000 A 
ATOM     19  C   UNL     1       6.978   7.143  17.692  0.00  0.00    +0.000 A 
ATOM     20  C   UNL     1       5.707   6.548  17.602  0.00  0.00    +0.000 A 
BRANCH  19  21
ATOM     21  O   UNL     1       7.309   8.168  16.839  0.00  0.00    +0.000 OA
ATOM     22  H   UNL     1       7.014   9.020  17.214  0.00  0.00    +0.000 HD
ENDBRANCH  19  21
ENDBRANCH  14  15
BRANCH  14  23
ATOM     23  C   UNL     1       3.707   4.028  16.964  0.00  0.00    +0.000 C 
ATOM     24  C   UNL     1       4.994   3.702  16.196  0.00  0.00    +0.000 C 
BRANCH  23  25
ATOM     25  C   UNL     1       2.869   2.723  17.170  0.00  0.00    +0.000 C 
ATOM     26  C   UNL     1       3.441   1.716  18.163  0.00  0.00    +0.000 C 
ENDBRANCH  23  25
ENDBRANCH  14  23
ENDBRANCH   1  14
TORSDOF 9
ENDMDL
MODEL 3
REMARK VINA RESULT:      -7.6      1.279      2.156
REMARK  Name = 
REMARK  13 active torsions:
REMARK  status: ('A' for Active; 'I' for Inactive)
REMARK    1  A    between atoms: C_1  and  C_2
REMARK    2  A    between atoms: C_2  and  C_3
REMARK    3  A    between atoms: C_3  and  C_4
REMARK    4  A    between atoms: C_3  and  C_5
REMARK    5  A    between atoms: C_5  and  C_6
REMARK    6  A    between atoms: C_5  and  C_13
REMARK    7  A    between atoms: C_10  and  O_11
REMARK    8  A    between atoms: C_13  and  C_14
REMARK    9  A    between atoms: C_13  and  C_21
REMARK   10  A    between atoms: C_18  and  O_19
REMARK   11  A    between atoms: C_21  and  C_22
REMARK   12  A    between atoms: C_21  and  C_23
REMARK   13  A    between atoms: C_23  and  C_24
REMARK                            x       y       z     vdW  Elec       q    Type
REMARK                         _______ _______ _______ _____ _____    ______ ____
ROOT
ATOM      1  C   UNL     1       3.161   5.313  17.893  0.00  0.00    +0.000 C 
ENDROOT
BRANCH   1   2
ATOM      2  C   UNL     1       2.751   6.719  18.502  0.00  0.00    +0.000 A 
ATOM      3  C   UNL     1       2.522   7.803  17.608  0.00  0.00    +0.000 A 
ATOM      4  C   UNL     1       1.867   8.995  18.000  0.00  0.00    +0.000 A 
ATOM      5  C   UNL     1       1.409   9.168  19.298  0.00  0.00    +0.000 A 
ATOM      6  C   UNL     1       1.632   8.145  20.203  0.00  0.00    +0.000 A 
ATOM      7  C   UNL     1       2.285   6.931  19.833  0.00  0.00    +0.000 A 
BRANCH   6   8
ATOM      8  O   UNL     1       1.150   8.263  21.482  0.00  0.00    +0.000 OA
ATOM      9  H   UNL     1       1.822   7.912  22.099  0.00  0.00    +0.000 HD
ENDBRANCH   6   8
ENDBRANCH   1   2
BRANCH   1  10
ATOM     10  C   UNL     1       2.541   4.188  18.812  0.00  0.00    +0.000 C 
ATOM     11  C   UNL     1       1.228   3.506  18.342  0.00  0.00    +0.000 C 
BRANCH  10  13
ATOM     12  C   UNL     1       3.235   1.828  18.127  0.00  0.00    +0.000 C 
ATOM     13  C   UNL     1       3.521   3.038  19.006  0.00  0.00    +0.000 C 
ENDBRANCH  10  13
ENDBRANCH   1  10
BRANCH   1  14
ATOM     14  C   UNL     1       4.722   5.016  17.249  0.00  0.00    +0.000 C 
BRANCH  14  15
ATOM     15  C   UNL     1       6.035   5.707  17.886  0.00  0.00    +0.000 A 
ATOM     16  C   UNL     1       6.698   6.831  17.337  0.00  0.00    +0.000 A 
ATOM     17  C   UNL     1       7.814   7.469  17.917  0.00  0.00    +0.000 A 
ATOM     18  C   UNL     1       8.380   6.959  19.065  0.00  0.00    +0.000 A 
ATOM     19  C   UNL     1       7.803   5.809  19.603  0.00  0.00    +0.000 A 
ATOM     20  C   UNL     1       6.667   5.194  19.047  0.00  0.00    +0.000 A 
BRANCH  19  21
ATOM     21  O   UNL     1       8.380   5.276  20.729  0.00  0.00    +0.000 OA
ATOM     22  H   UNL     1       9.342   5.177  20.594  0.00  0.00    +0.000 HD
ENDBRANCH  19  21
ENDBRANCH  14  15
BRANCH  14  23
ATOM     23  C   UNL     1       4.835   4.942  15.665  0.00  0.00    +0.000 C 
ATOM     24  C   UNL     1       5.068   6.264  14.921  0.00  0.00    +0.000 C 
BRANCH  23  25
ATOM     25  C   UNL     1       5.936   3.907  15.261  0.00  0.00    +0.000 C 
ATOM     26  C   UNL     1       6.918   4.366  14.188  0.00  0.00    +0.000 C 
ENDBRANCH  23  25
ENDBRANCH  14  23
ENDBRANCH   1  14
TORSDOF 9
ENDMDL
MODEL 4
REMARK VINA RESULT:      -7.5      1.756      5.811
REMARK  Name = 
REMARK  13 active torsions:
REMARK  status: ('A' for Active; 'I' for Inactive)
REMARK    1  A    between atoms: C_1  and  C_2
REMARK    2  A    between atoms: C_2  and  C_3
REMARK    3  A    between atoms: C_3  and  C_4
REMARK    4  A    between atoms: C_3  and  C_5
REMARK    5  A    between atoms: C_5  and  C_6
REMARK    6  A    between atoms: C_5  and  C_13
REMARK    7  A    between atoms: C_10  and  O_11
REMARK    8  A    between atoms: C_13  and  C_14
REMARK    9  A    between atoms: C_13  and  C_21
REMARK   10  A    between atoms: C_18  and  O_19
REMARK   11  A    between atoms: C_21  and  C_22
REMARK   12  A    between atoms: C_21  and  C_23
REMARK   13  A    between atoms: C_23  and  C_24
REMARK                            x       y       z     vdW  Elec       q    Type
REMARK                         _______ _______ _______ _____ _____    ______ ____
ROOT
ATOM      1  C   UNL     1       5.549   4.604  16.417  0.00  0.00    +0.000 C 
ENDROOT
BRANCH   1   2
ATOM      2  C   UNL     1       6.687   5.384  17.198  0.00  0.00    +0.000 A 
ATOM      3  C   UNL     1       6.864   6.770  16.928  0.00  0.00    +0.000 A 
ATOM      4  C   UNL     1       7.622   7.624  17.765  0.00  0.00    +0.000 A 
ATOM      5  C   UNL     1       8.241   7.142  18.909  0.00  0.00    +0.000 A 
ATOM      6  C   UNL     1       8.111   5.794  19.194  0.00  0.00    +0.000 A 
ATOM      7  C   UNL     1       7.348   4.912  18.370  0.00  0.00    +0.000 A 
BRANCH   6   8
ATOM      8  O   UNL     1       8.669   5.293  20.343  0.00  0.00    +0.000 OA
ATOM      9  H   UNL     1       7.949   5.070  20.964  0.00  0.00    +0.000 HD
ENDBRANCH   6   8
ENDBRANCH   1   2
BRANCH   1  10
ATOM     10  C   UNL     1       5.752   4.869  14.873  0.00  0.00    +0.000 C 
ATOM     11  C   UNL     1       7.204   5.027  14.347  0.00  0.00    +0.000 C 
BRANCH  10  13
ATOM     12  C   UNL     1       5.881   3.506  12.717  0.00  0.00    +0.000 C 
ATOM     13  C   UNL     1       5.165   3.736  14.041  0.00  0.00    +0.000 C 
ENDBRANCH  10  13
ENDBRANCH   1  10
BRANCH   1  14
ATOM     14  C   UNL     1       3.933   4.533  16.985  0.00  0.00    +0.000 C 
BRANCH  14  15
ATOM     15  C   UNL     1       3.295   5.742  17.845  0.00  0.00    +0.000 A 
ATOM     16  C   UNL     1       2.915   5.647  19.206  0.00  0.00    +0.000 A 
ATOM     17  C   UNL     1       2.406   6.713  19.975  0.00  0.00    +0.000 A 
ATOM     18  C   UNL     1       2.178   7.939  19.388  0.00  0.00    +0.000 A 
ATOM     19  C   UNL     1       2.471   8.059  18.030  0.00  0.00    +0.000 A 
ATOM     20  C   UNL     1       3.014   7.007  17.271  0.00  0.00    +0.000 A 
BRANCH  19  21
ATOM     21  O   UNL     1       2.218   9.268  17.429  0.00  0.00    +0.000 OA
ATOM     22  H   UNL     1       1.299   9.543  17.612  0.00  0.00    +0.000 HD
ENDBRANCH  19  21
ENDBRANCH  14  15
BRANCH  14  23
ATOM     23  C   UNL     1       3.432   3.126  17.531  0.00  0.00    +0.000 C 
ATOM     24  C   UNL     1       4.023   2.647  18.864  0.00  0.00    +0.000 C 
BRANCH  23  25
ATOM     25  C   UNL     1       1.870   3.115  17.611  0.00  0.00    +0.000 C 
ATOM     26  C   UNL     1       1.269   2.334  18.775  0.00  0.00    +0.000 C 
ENDBRANCH  23  25
ENDBRANCH  14  23
ENDBRANCH   1  14
TORSDOF 9
ENDMDL
MODEL 5
REMARK VINA RESULT:      -7.5      1.678      5.662
REMARK  Name = 
REMARK  13 active torsions:
REMARK  status: ('A' for Active; 'I' for Inactive)
REMARK    1  A    between atoms: C_1  and  C_2
REMARK    2  A    between atoms: C_2  and  C_3
REMARK    3  A    between atoms: C_3  and  C_4
REMARK    4  A    between atoms: C_3  and  C_5
REMARK    5  A    between atoms: C_5  and  C_6
REMARK    6  A    between atoms: C_5  and  C_13
REMARK    7  A    between atoms: C_10  and  O_11
REMARK    8  A    between atoms: C_13  and  C_14
REMARK    9  A    between atoms: C_13  and  C_21
REMARK   10  A    between atoms: C_18  and  O_19
REMARK   11  A    between atoms: C_21  and  C_22
REMARK   12  A    between atoms: C_21  and  C_23
REMARK   13  A    between atoms: C_23  and  C_24
REMARK                            x       y       z     vdW  Elec       q    Type
REMARK                         _______ _______ _______ _____ _____    ______ ____
ROOT
ATOM      1  C   UNL     1       5.512   4.660  16.456  0.00  0.00    +0.000 C 
ENDROOT
BRANCH   1   2
ATOM      2  C   UNL     1       6.659   5.398  17.267  0.00  0.00    +0.000 A 
ATOM      3  C   UNL     1       6.968   6.745  16.926  0.00  0.00    +0.000 A 
ATOM      4  C   UNL     1       7.739   7.589  17.762  0.00  0.00    +0.000 A 
ATOM      5  C   UNL     1       8.239   7.136  18.974  0.00  0.00    +0.000 A 
ATOM      6  C   UNL     1       7.978   5.824  19.329  0.00  0.00    +0.000 A 
ATOM      7  C   UNL     1       7.199   4.954  18.508  0.00  0.00    +0.000 A 
BRANCH   6   8
ATOM      8  O   UNL     1       8.417   5.358  20.543  0.00  0.00    +0.000 OA
ATOM      9  H   UNL     1       7.872   4.585  20.792  0.00  0.00    +0.000 HD
ENDBRANCH   6   8
ENDBRANCH   1   2
BRANCH   1  10
ATOM     10  C   UNL     1       5.805   4.858  14.916  0.00  0.00    +0.000 C 
ATOM     11  C   UNL     1       7.285   4.979  14.466  0.00  0.00    +0.000 C 
BRANCH  10  13
ATOM     12  C   UNL     1       5.886   3.550  12.725  0.00  0.00    +0.000 C 
ATOM     13  C   UNL     1       5.250   3.697  14.100  0.00  0.00    +0.000 C 
ENDBRANCH  10  13
ENDBRANCH   1  10
BRANCH   1  14
ATOM     14  C   UNL     1       3.870   4.707  16.946  0.00  0.00    +0.000 C 
BRANCH  14  15
ATOM     15  C   UNL     1       3.267   5.984  17.730  0.00  0.00    +0.000 A 
ATOM     16  C   UNL     1       3.133   7.279  17.174  0.00  0.00    +0.000 A 
ATOM     17  C   UNL     1       2.561   8.383  17.837  0.00  0.00    +0.000 A 
ATOM     18  C   UNL     1       2.149   8.263  19.147  0.00  0.00    +0.000 A 
ATOM     19  C   UNL     1       2.326   7.023  19.759  0.00  0.00    +0.000 A 
ATOM     20  C   UNL     1       2.863   5.910  19.087  0.00  0.00    +0.000 A 
BRANCH  19  21
ATOM     21  O   UNL     1       1.947   6.903  21.073  0.00  0.00    +0.000 OA
ATOM     22  H   UNL     1       2.412   6.150  21.485  0.00  0.00    +0.000 HD
ENDBRANCH  19  21
ENDBRANCH  14  15
BRANCH  14  23
ATOM     23  C   UNL     1       3.260   3.353  17.516  0.00  0.00    +0.000 C 
ATOM     24  C   UNL     1       3.883   2.797  18.803  0.00  0.00    +0.000 C 
BRANCH  23  25
ATOM     25  C   UNL     1       1.714   3.507  17.701  0.00  0.00    +0.000 C 
ATOM     26  C   UNL     1       1.053   2.502  18.638  0.00  0.00    +0.000 C 
ENDBRANCH  23  25
ENDBRANCH  14  23
ENDBRANCH   1  14
TORSDOF 9
ENDMDL
MODEL 6
REMARK VINA RESULT:      -7.5      0.917      5.331
REMARK  Name = 
REMARK  13 active torsions:
REMARK  status: ('A' for Active; 'I' for Inactive)
REMARK    1  A    between atoms: C_1  and  C_2
REMARK    2  A    between atoms: C_2  and  C_3
REMARK    3  A    between atoms: C_3  and  C_4
REMARK    4  A    between atoms: C_3  and  C_5
REMARK    5  A    between atoms: C_5  and  C_6
REMARK    6  A    between atoms: C_5  and  C_13
REMARK    7  A    between atoms: C_10  and  O_11
REMARK    8  A    between atoms: C_13  and  C_14
REMARK    9  A    between atoms: C_13  and  C_21
REMARK   10  A    between atoms: C_18  and  O_19
REMARK   11  A    between atoms: C_21  and  C_22
REMARK   12  A    between atoms: C_21  and  C_23
REMARK   13  A    between atoms: C_23  and  C_24
REMARK                            x       y       z     vdW  Elec       q    Type
REMARK                         _______ _______ _______ _____ _____    ______ ____
ROOT
ATOM      1  C   UNL     1       3.772   4.782  18.391  0.00  0.00    +0.000 C 
ENDROOT
BRANCH   1   2
ATOM      2  C   UNL     1       5.129   5.581  18.575  0.00  0.00    +0.000 A 
ATOM      3  C   UNL     1       6.091   5.077  19.495  0.00  0.00    +0.000 A 
ATOM      4  C   UNL     1       7.435   5.520  19.518  0.00  0.00    +0.000 A 
ATOM      5  C   UNL     1       7.888   6.485  18.630  0.00  0.00    +0.000 A 
ATOM      6  C   UNL     1       6.976   7.017  17.735  0.00  0.00    +0.000 A 
ATOM      7  C   UNL     1       5.616   6.584  17.687  0.00  0.00    +0.000 A 
BRANCH   6   8
ATOM      8  O   UNL     1       7.401   7.938  16.811  0.00  0.00    +0.000 OA
ATOM      9  H   UNL     1       8.309   8.213  17.045  0.00  0.00    +0.000 HD
ENDBRANCH   6   8
ENDBRANCH   1   2
BRANCH   1  10
ATOM     10  C   UNL     1       3.820   4.063  16.986  0.00  0.00    +0.000 C 
ATOM     11  C   UNL     1       5.213   3.726  16.388  0.00  0.00    +0.000 C 
BRANCH  10  13
ATOM     12  C   UNL     1       3.538   1.813  18.160  0.00  0.00    +0.000 C 
ATOM     13  C   UNL     1       3.089   2.727  17.028  0.00  0.00    +0.000 C 
ENDBRANCH  10  13
ENDBRANCH   1  10
BRANCH   1  14
ATOM     14  C   UNL     1       2.259   5.422  18.882  0.00  0.00    +0.000 C 
BRANCH  14  15
ATOM     15  C   UNL     1       2.008   7.017  18.952  0.00  0.00    +0.000 A 
ATOM     16  C   UNL     1       2.164   7.903  17.859  0.00  0.00    +0.000 A 
ATOM     17  C   UNL     1       1.897   9.286  17.901  0.00  0.00    +0.000 A 
ATOM     18  C   UNL     1       1.521   9.880  19.087  0.00  0.00    +0.000 A 
ATOM     19  C   UNL     1       1.424   9.056  20.208  0.00  0.00    +0.000 A 
ATOM     20  C   UNL     1       1.653   7.670  20.159  0.00  0.00    +0.000 A 
BRANCH  19  21
ATOM     21  O   UNL     1       1.081   9.645  21.401  0.00  0.00    +0.000 OA
ATOM     22  H   UNL     1       1.779  10.268  21.676  0.00  0.00    +0.000 HD
ENDBRANCH  19  21
ENDBRANCH  14  15
BRANCH  14  23
ATOM     23  C   UNL     1       1.532   4.683  20.088  0.00  0.00    +0.000 C 
ATOM     24  C   UNL     1       0.639   3.487  19.734  0.00  0.00    +0.000 C 
BRANCH  23  25
ATOM     25  C   UNL     1       2.589   4.255  21.159  0.00  0.00    +0.000 C 
ATOM     26  C   UNL     1       2.508   2.807  21.632  0.00  0.00    +0.000 C 
ENDBRANCH  23  25
ENDBRANCH  14  23
ENDBRANCH   1  14
TORSDOF 9
ENDMDL
MODEL 7
REMARK VINA RESULT:      -7.4      1.614      5.686
REMARK  Name = 
REMARK  13 active torsions:
REMARK  status: ('A' for Active; 'I' for Inactive)
REMARK    1  A    between atoms: C_1  and  C_2
REMARK    2  A    between atoms: C_2  and  C_3
REMARK    3  A    between atoms: C_3  and  C_4
REMARK    4  A    between atoms: C_3  and  C_5
REMARK    5  A    between atoms: C_5  and  C_6
REMARK    6  A    between atoms: C_5  and  C_13
REMARK    7  A    between atoms: C_10  and  O_11
REMARK    8  A    between atoms: C_13  and  C_14
REMARK    9  A    between atoms: C_13  and  C_21
REMARK   10  A    between atoms: C_18  and  O_19
REMARK   11  A    between atoms: C_21  and  C_22
REMARK   12  A    between atoms: C_21  and  C_23
REMARK   13  A    between atoms: C_23  and  C_24
REMARK                            x       y       z     vdW  Elec       q    Type
REMARK                         _______ _______ _______ _____ _____    ______ ____
ROOT
ATOM      1  C   UNL     1       4.506   4.955  17.476  0.00  0.00    +0.000 C 
ENDROOT
BRANCH   1   2
ATOM      2  C   UNL     1       5.715   5.802  18.057  0.00  0.00    +0.000 A 
ATOM      3  C   UNL     1       6.550   5.202  19.042  0.00  0.00    +0.000 A 
ATOM      4  C   UNL     1       7.812   5.731  19.402  0.00  0.00    +0.000 A 
ATOM      5  C   UNL     1       8.306   6.881  18.803  0.00  0.00    +0.000 A 
ATOM      6  C   UNL     1       7.513   7.506  17.857  0.00  0.00    +0.000 A 
ATOM      7  C   UNL     1       6.238   6.991  17.471  0.00  0.00    +0.000 A 
BRANCH   6   8
ATOM      8  O   UNL     1       7.990   8.618  17.210  0.00  0.00    +0.000 OA
ATOM      9  H   UNL     1       8.595   8.326  16.499  0.00  0.00    +0.000 HD
ENDBRANCH   6   8
ENDBRANCH   1   2
BRANCH   1  10
ATOM     10  C   UNL     1       4.735   4.788  15.922  0.00  0.00    +0.000 C 
ATOM     11  C   UNL     1       5.115   6.051  15.103  0.00  0.00    +0.000 C 
BRANCH  10  13
ATOM     12  C   UNL     1       6.396   3.866  14.215  0.00  0.00    +0.000 C 
ATOM     13  C   UNL     1       5.855   3.796  15.637  0.00  0.00    +0.000 C 
ENDBRANCH  10  13
ENDBRANCH   1  10
BRANCH   1  14
ATOM     14  C   UNL     1       2.891   5.186  18.002  0.00  0.00    +0.000 C 
BRANCH  14  15
ATOM     15  C   UNL     1       2.396   6.609  18.584  0.00  0.00    +0.000 A 
ATOM     16  C   UNL     1       1.996   6.835  19.923  0.00  0.00    +0.000 A 
ATOM     17  C   UNL     1       1.613   8.086  20.448  0.00  0.00    +0.000 A 
ATOM     18  C   UNL     1       1.539   9.186  19.622  0.00  0.00    +0.000 A 
ATOM     19  C   UNL     1       1.856   8.996  18.278  0.00  0.00    +0.000 A 
ATOM     20  C   UNL     1       2.275   7.757  17.760  0.00  0.00    +0.000 A 
BRANCH  19  21
ATOM     21  O   UNL     1       1.756  10.081  17.441  0.00  0.00    +0.000 OA
ATOM     22  H   UNL     1       2.580  10.182  16.929  0.00  0.00    +0.000 HD
ENDBRANCH  19  21
ENDBRANCH  14  15
BRANCH  14  23
ATOM     23  C   UNL     1       2.226   3.985  18.805  0.00  0.00    +0.000 C 
ATOM     24  C   UNL     1       1.963   2.689  18.027  0.00  0.00    +0.000 C 
BRANCH  23  25
ATOM     25  C   UNL     1       3.073   3.672  20.083  0.00  0.00    +0.000 C 
ATOM     26  C   UNL     1       2.286   3.214  21.306  0.00  0.00    +0.000 C 
ENDBRANCH  23  25
ENDBRANCH  14  23
ENDBRANCH   1  14
TORSDOF 9
ENDMDL
MODEL 8
REMARK VINA RESULT:      -7.4      1.445      5.520
REMARK  Name = 
REMARK  13 active torsions:
REMARK  status: ('A' for Active; 'I' for Inactive)
REMARK    1  A    between atoms: C_1  and  C_2
REMARK    2  A    between atoms: C_2  and  C_3
REMARK    3  A    between atoms: C_3  and  C_4
REMARK    4  A    between atoms: C_3  and  C_5
REMARK    5  A    between atoms: C_5  and  C_6
REMARK    6  A    between atoms: C_5  and  C_13
REMARK    7  A    between atoms: C_10  and  O_11
REMARK    8  A    between atoms: C_13  and  C_14
REMARK    9  A    between atoms: C_13  and  C_21
REMARK   10  A    between atoms: C_18  and  O_19
REMARK   11  A    between atoms: C_21  and  C_22
REMARK   12  A    between atoms: C_21  and  C_23
REMARK   13  A    between atoms: C_23  and  C_24
REMARK                            x       y       z     vdW  Elec       q    Type
REMARK                         _______ _______ _______ _____ _____    ______ ____
ROOT
ATOM      1  C   UNL     1       4.849   4.577  16.990  0.00  0.00    +0.000 C 
ENDROOT
BRANCH   1   2
ATOM      2  C   UNL     1       6.156   5.245  17.592  0.00  0.00    +0.000 A 
ATOM      3  C   UNL     1       6.588   6.490  17.053  0.00  0.00    +0.000 A 
ATOM      4  C   UNL     1       7.540   7.315  17.699  0.00  0.00    +0.000 A 
ATOM      5  C   UNL     1       8.107   6.944  18.910  0.00  0.00    +0.000 A 
ATOM      6  C   UNL     1       7.728   5.730  19.454  0.00  0.00    +0.000 A 
ATOM      7  C   UNL     1       6.767   4.881  18.827  0.00  0.00    +0.000 A 
BRANCH   6   8
ATOM      8  O   UNL     1       8.233   5.354  20.674  0.00  0.00    +0.000 OA
ATOM      9  H   UNL     1       8.311   4.380  20.688  0.00  0.00    +0.000 HD
ENDBRANCH   6   8
ENDBRANCH   1   2
BRANCH   1  10
ATOM     10  C   UNL     1       4.939   4.672  15.416  0.00  0.00    +0.000 C 
ATOM     11  C   UNL     1       5.148   6.073  14.781  0.00  0.00    +0.000 C 
BRANCH  10  13
ATOM     12  C   UNL     1       6.986   4.571  13.892  0.00  0.00    +0.000 C 
ATOM     13  C   UNL     1       6.093   3.834  14.882  0.00  0.00    +0.000 C 
ENDBRANCH  10  13
ENDBRANCH   1  10
BRANCH   1  14
ATOM     14  C   UNL     1       3.301   4.799  17.693  0.00  0.00    +0.000 C 
BRANCH  14  15
ATOM     15  C   UNL     1       2.822   6.249  18.220  0.00  0.00    +0.000 A 
ATOM     16  C   UNL     1       2.800   7.424  17.431  0.00  0.00    +0.000 A 
ATOM     17  C   UNL     1       2.334   8.680  17.871  0.00  0.00    +0.000 A 
ATOM     18  C   UNL     1       1.925   8.843  19.177  0.00  0.00    +0.000 A 
ATOM     19  C   UNL     1       1.996   7.729  20.011  0.00  0.00    +0.000 A 
ATOM     20  C   UNL     1       2.425   6.466  19.563  0.00  0.00    +0.000 A 
BRANCH  19  21
ATOM     21  O   UNL     1       1.619   7.891  21.322  0.00  0.00    +0.000 OA
ATOM     22  H   UNL     1       2.402   8.088  21.870  0.00  0.00    +0.000 HD
ENDBRANCH  19  21
ENDBRANCH  14  15
BRANCH  14  23
ATOM     23  C   UNL     1       2.790   3.648  18.663  0.00  0.00    +0.000 C 
ATOM     24  C   UNL     1       1.392   3.077  18.390  0.00  0.00    +0.000 C 
BRANCH  23  25
ATOM     25  C   UNL     1       3.837   2.486  18.702  0.00  0.00    +0.000 C 
ATOM     26  C   UNL     1       4.446   2.185  20.067  0.00  0.00    +0.000 C 
ENDBRANCH  23  25
ENDBRANCH  14  23
ENDBRANCH   1  14
TORSDOF 9
ENDMDL
MODEL 9
REMARK VINA RESULT:      -7.3      2.714      5.648
REMARK  Name = 
REMARK  13 active torsions:
REMARK  status: ('A' for Active; 'I' for Inactive)
REMARK    1  A    between atoms: C_1  and  C_2
REMARK    2  A    between atoms: C_2  and  C_3
REMARK    3  A    between atoms: C_3  and  C_4
REMARK    4  A    between atoms: C_3  and  C_5
REMARK    5  A    between atoms: C_5  and  C_6
REMARK    6  A    between atoms: C_5  and  C_13
REMARK    7  A    between atoms: C_10  and  O_11
REMARK    8  A    between atoms: C_13  and  C_14
REMARK    9  A    between atoms: C_13  and  C_21
REMARK   10  A    between atoms: C_18  and  O_19
REMARK   11  A    between atoms: C_21  and  C_22
REMARK   12  A    between atoms: C_21  and  C_23
REMARK   13  A    between atoms: C_23  and  C_24
REMARK                            x       y       z     vdW  Elec       q    Type
REMARK                         _______ _______ _______ _____ _____    ______ ____
ROOT
ATOM      1  C   UNL     1       4.239   5.855  18.541  0.00  0.00    +0.000 C 
ENDROOT
BRANCH   1   2
ATOM      2  C   UNL     1       3.821   4.346  18.794  0.00  0.00    +0.000 A 
ATOM      3  C   UNL     1       2.728   3.814  18.053  0.00  0.00    +0.000 A 
ATOM      4  C   UNL     1       2.463   2.426  17.968  0.00  0.00    +0.000 A 
ATOM      5  C   UNL     1       3.269   1.501  18.614  0.00  0.00    +0.000 A 
ATOM      6  C   UNL     1       4.329   1.981  19.364  0.00  0.00    +0.000 A 
ATOM      7  C   UNL     1       4.622   3.375  19.462  0.00  0.00    +0.000 A 
BRANCH   6   8
ATOM      8  O   UNL     1       5.175   1.092  19.976  0.00  0.00    +0.000 OA
ATOM      9  H   UNL     1       4.695   0.250  20.109  0.00  0.00    +0.000 HD
ENDBRANCH   6   8
ENDBRANCH   1   2
BRANCH   1  10
ATOM     10  C   UNL     1       2.917   6.703  18.376  0.00  0.00    +0.000 C 
ATOM     11  C   UNL     1       2.197   7.187  19.664  0.00  0.00    +0.000 C 
BRANCH  10  13
ATOM     12  C   UNL     1       2.123   9.056  17.780  0.00  0.00    +0.000 C 
ATOM     13  C   UNL     1       3.179   7.977  17.582  0.00  0.00    +0.000 C 
ENDBRANCH  10  13
ENDBRANCH   1  10
BRANCH   1  14
ATOM     14  C   UNL     1       5.564   6.281  17.539  0.00  0.00    +0.000 C 
BRANCH  14  15
ATOM     15  C   UNL     1       5.865   5.484  16.167  0.00  0.00    +0.000 A 
ATOM     16  C   UNL     1       5.136   4.357  15.716  0.00  0.00    +0.000 A 
ATOM     17  C   UNL     1       5.363   3.689  14.495  0.00  0.00    +0.000 A 
ATOM     18  C   UNL     1       6.401   4.080  13.678  0.00  0.00    +0.000 A 
ATOM     19  C   UNL     1       7.191   5.142  14.117  0.00  0.00    +0.000 A 
ATOM     20  C   UNL     1       6.944   5.833  15.316  0.00  0.00    +0.000 A 
BRANCH  19  21
ATOM     21  O   UNL     1       8.248   5.518  13.324  0.00  0.00    +0.000 OA
ATOM     22  H   UNL     1       8.547   4.758  12.788  0.00  0.00    +0.000 HD
ENDBRANCH  19  21
ENDBRANCH  14  15
BRANCH  14  23
ATOM     23  C   UNL     1       6.918   6.666  18.278  0.00  0.00    +0.000 C 
ATOM     24  C   UNL     1       7.819   5.509  18.729  0.00  0.00    +0.000 C 
BRANCH  23  25
ATOM     25  C   UNL     1       7.739   7.660  17.392  0.00  0.00    +0.000 C 
ATOM     26  C   UNL     1       8.074   9.002  18.034  0.00  0.00    +0.000 C 
ENDBRANCH  23  25
ENDBRANCH  14  23
ENDBRANCH   1  14
TORSDOF 9
ENDMDL
