MODEL 1
REMARK VINA RESULT:      -7.5      0.000      0.000
REMARK  Name = 
REMARK  7 active torsions:
REMARK  status: ('A' for Active; 'I' for Inactive)
REMARK    1  A    between atoms: C_1  and  O_2
REMARK    2  A    between atoms: O_2  and  C_3
REMARK    3  A    between atoms: C_8  and  C_9
REMARK    4  A    between atoms: C_11  and  C_12
REMARK    5  A    between atoms: C_14  and  C_15
REMARK    6  A    between atoms: C_16  and  C_17
REMARK    7  A    between atoms: C_20  and  C_21
REMARK                            x       y       z     vdW  Elec       q    Type
REMARK                         _______ _______ _______ _____ _____    ______ ____
ROOT
ATOM      1  C   UNL     1       2.617   8.195  18.281  0.00  0.00    +0.000 A 
ATOM      2  C   UNL     1       1.609   8.379  19.212  0.00  0.00    +0.000 A 
ATOM      3  C   UNL     1       1.324   7.339  20.089  0.00  0.00    +0.000 A 
ATOM      4  C   UNL     1       2.092   6.175  20.058  0.00  0.00    +0.000 A 
ATOM      5  N   UNL     1       1.770   5.142  20.962  0.00  0.00    +0.000 NA
ATOM      6  C   UNL     1       2.462   4.045  20.929  0.00  0.00    +0.000 A 
ATOM      7  C   UNL     1       2.047   2.925  21.842  0.00  0.00    +0.000 C 
ATOM      8  C   UNL     1       3.577   3.900  20.036  0.00  0.00    +0.000 A 
ATOM      9  C   UNL     1       4.476   2.880  19.765  0.00  0.00    +0.000 A 
ATOM     10  C   UNL     1       4.669   1.534  20.342  0.00  0.00    +0.000 C 
ATOM     11  N   UNL     1       5.314   3.268  18.759  0.00  0.00    +0.000 NA
ATOM     12  C   UNL     1       5.031   4.523  18.455  0.00  0.00    +0.000 A 
ATOM     13  N   UNL     1       3.923   4.934  19.175  0.00  0.00    +0.000 N 
ATOM     14  C   UNL     1       3.124   6.104  19.111  0.00  0.00    +0.000 A 
ATOM     15  N   UNL     1       3.363   7.068  18.191  0.00  0.00    +0.000 NA
ENDROOT
BRANCH  12  16
ATOM     16  C   UNL     1       5.877   5.258  17.474  0.00  0.00    +0.000 A 
ATOM     17  C   UNL     1       5.790   5.150  16.052  0.00  0.00    +0.000 A 
ATOM     18  C   UNL     1       4.862   4.346  15.213  0.00  0.00    +0.000 C 
ATOM     19  N   UNL     1       6.689   5.937  15.448  0.00  0.00    +0.000 NA
ATOM     20  N   UNL     1       7.386   6.472  16.461  0.00  0.00    +0.000 N 
ATOM     21  C   UNL     1       6.998   6.032  17.700  0.00  0.00    +0.000 A 
ATOM     22  C   UNL     1       7.826   6.340  18.893  0.00  0.00    +0.000 C 
ATOM     23  H   UNL     1       8.150   7.088  16.231  0.00  0.00    +0.000 HD
ENDBRANCH  12  16
BRANCH   1  25
ATOM     24  C   UNL     1       2.226  10.461  17.878  0.00  0.00    +0.000 C 
ATOM     25  O   UNL     1       2.924   9.285  17.493  0.00  0.00    +0.000 OA
ENDBRANCH   1  25
TORSDOF 2
ENDMDL
MODEL 2
REMARK VINA RESULT:      -7.2      2.102      4.840
REMARK  Name = 
REMARK  7 active torsions:
REMARK  status: ('A' for Active; 'I' for Inactive)
REMARK    1  A    between atoms: C_1  and  O_2
REMARK    2  A    between atoms: O_2  and  C_3
REMARK    3  A    between atoms: C_8  and  C_9
REMARK    4  A    between atoms: C_11  and  C_12
REMARK    5  A    between atoms: C_14  and  C_15
REMARK    6  A    between atoms: C_16  and  C_17
REMARK    7  A    between atoms: C_20  and  C_21
REMARK                            x       y       z     vdW  Elec       q    Type
REMARK                         _______ _______ _______ _____ _____    ______ ____
ROOT
ATOM      1  C   UNL     1       4.455   2.306  20.488  0.00  0.00    +0.000 A 
ATOM      2  C   UNL     1       3.364   2.149  21.325  0.00  0.00    +0.000 A 
ATOM      3  C   UNL     1       2.443   3.186  21.410  0.00  0.00    +0.000 A 
ATOM      4  C   UNL     1       2.601   4.321  20.614  0.00  0.00    +0.000 A 
ATOM      5  N   UNL     1       1.648   5.354  20.732  0.00  0.00    +0.000 NA
ATOM      6  C   UNL     1       1.794   6.423  20.013  0.00  0.00    +0.000 A 
ATOM      7  C   UNL     1       0.815   7.546  20.217  0.00  0.00    +0.000 C 
ATOM      8  C   UNL     1       2.868   6.538  19.066  0.00  0.00    +0.000 A 
ATOM      9  C   UNL     1       3.285   7.527  18.189  0.00  0.00    +0.000 A 
ATOM     10  C   UNL     1       2.742   8.857  17.845  0.00  0.00    +0.000 C 
ATOM     11  N   UNL     1       4.425   7.120  17.555  0.00  0.00    +0.000 NA
ATOM     12  C   UNL     1       4.682   5.882  17.937  0.00  0.00    +0.000 A 
ATOM     13  N   UNL     1       3.782   5.504  18.917  0.00  0.00    +0.000 N 
ATOM     14  C   UNL     1       3.714   4.365  19.762  0.00  0.00    +0.000 A 
ATOM     15  N   UNL     1       4.667   3.405  19.725  0.00  0.00    +0.000 NA
ENDROOT
BRANCH  12  16
ATOM     16  C   UNL     1       5.801   5.129  17.305  0.00  0.00    +0.000 A 
ATOM     17  C   UNL     1       7.138   5.046  17.804  0.00  0.00    +0.000 A 
ATOM     18  C   UNL     1       7.732   5.630  19.036  0.00  0.00    +0.000 C 
ATOM     19  N   UNL     1       7.909   4.295  17.008  0.00  0.00    +0.000 NA
ATOM     20  N   UNL     1       7.104   3.972  15.985  0.00  0.00    +0.000 N 
ATOM     21  C   UNL     1       5.849   4.518  16.067  0.00  0.00    +0.000 A 
ATOM     22  C   UNL     1       4.932   4.457  14.902  0.00  0.00    +0.000 C 
ATOM     23  H   UNL     1       7.495   3.421  15.237  0.00  0.00    +0.000 HD
ENDBRANCH  12  16
BRANCH   1  25
ATOM     24  C   UNL     1       5.660   0.660  21.622  0.00  0.00    +0.000 C 
ATOM     25  O   UNL     1       5.292   1.216  20.368  0.00  0.00    +0.000 OA
ENDBRANCH   1  25
TORSDOF 2
ENDMDL
MODEL 3
REMARK VINA RESULT:      -7.0      2.072      4.549
REMARK  Name = 
REMARK  7 active torsions:
REMARK  status: ('A' for Active; 'I' for Inactive)
REMARK    1  A    between atoms: C_1  and  O_2
REMARK    2  A    between atoms: O_2  and  C_3
REMARK    3  A    between atoms: C_8  and  C_9
REMARK    4  A    between atoms: C_11  and  C_12
REMARK    5  A    between atoms: C_14  and  C_15
REMARK    6  A    between atoms: C_16  and  C_17
REMARK    7  A    between atoms: C_20  and  C_21
REMARK                            x       y       z     vdW  Elec       q    Type
REMARK                         _______ _______ _______ _____ _____    ______ ____
ROOT
ATOM      1  C   UNL     1       4.056   2.686  20.371  0.00  0.00    +0.000 A 
ATOM      2  C   UNL     1       3.105   2.569  21.371  0.00  0.00    +0.000 A 
ATOM      3  C   UNL     1       2.255   3.644  21.600  0.00  0.00    +0.000 A 
ATOM      4  C   UNL     1       2.333   4.776  20.789  0.00  0.00    +0.000 A 
ATOM      5  N   UNL     1       1.456   5.847  21.056  0.00  0.00    +0.000 NA
ATOM      6  C   UNL     1       1.532   6.915  20.322  0.00  0.00    +0.000 A 
ATOM      7  C   UNL     1       0.647   8.076  20.678  0.00  0.00    +0.000 C 
ATOM      8  C   UNL     1       2.447   6.990  19.217  0.00  0.00    +0.000 A 
ATOM      9  C   UNL     1       2.763   7.966  18.285  0.00  0.00    +0.000 A 
ATOM     10  C   UNL     1       2.229   9.319  18.031  0.00  0.00    +0.000 C 
ATOM     11  N   UNL     1       3.769   7.515  17.479  0.00  0.00    +0.000 NA
ATOM     12  C   UNL     1       4.031   6.264  17.815  0.00  0.00    +0.000 A 
ATOM     13  N   UNL     1       3.281   5.918  18.926  0.00  0.00    +0.000 N 
ATOM     14  C   UNL     1       3.298   4.779  19.771  0.00  0.00    +0.000 A 
ATOM     15  N   UNL     1       4.193   3.779  19.584  0.00  0.00    +0.000 NA
ENDROOT
BRANCH  12  16
ATOM     16  C   UNL     1       5.002   5.469  17.015  0.00  0.00    +0.000 A 
ATOM     17  C   UNL     1       4.745   4.197  16.415  0.00  0.00    +0.000 A 
ATOM     18  C   UNL     1       3.500   3.385  16.401  0.00  0.00    +0.000 C 
ATOM     19  N   UNL     1       5.822   3.740  15.763  0.00  0.00    +0.000 NA
ATOM     20  N   UNL     1       6.766   4.659  16.009  0.00  0.00    +0.000 N 
ATOM     21  C   UNL     1       6.354   5.679  16.828  0.00  0.00    +0.000 A 
ATOM     22  C   UNL     1       7.345   6.633  17.386  0.00  0.00    +0.000 C 
ATOM     23  H   UNL     1       7.686   4.499  15.630  0.00  0.00    +0.000 HD
ENDBRANCH  12  16
BRANCH   1  25
ATOM     24  C   UNL     1       5.406   1.019  21.294  0.00  0.00    +0.000 C 
ATOM     25  O   UNL     1       4.817   1.562  20.121  0.00  0.00    +0.000 OA
ENDBRANCH   1  25
TORSDOF 2
ENDMDL
MODEL 4
REMARK VINA RESULT:      -6.8      6.168      9.147
REMARK  Name = 
REMARK  7 active torsions:
REMARK  status: ('A' for Active; 'I' for Inactive)
REMARK    1  A    between atoms: C_1  and  O_2
REMARK    2  A    between atoms: O_2  and  C_3
REMARK    3  A    between atoms: C_8  and  C_9
REMARK    4  A    between atoms: C_11  and  C_12
REMARK    5  A    between atoms: C_14  and  C_15
REMARK    6  A    between atoms: C_16  and  C_17
REMARK    7  A    between atoms: C_20  and  C_21
REMARK                            x       y       z     vdW  Elec       q    Type
REMARK                         _______ _______ _______ _____ _____    ______ ____
ROOT
ATOM      1  C   UNL     1      -2.892  11.073  16.554  0.00  0.00    +0.000 A 
ATOM      2  C   UNL     1      -4.265  11.243  16.597  0.00  0.00    +0.000 A 
ATOM      3  C   UNL     1      -4.839  11.681  17.785  0.00  0.00    +0.000 A 
ATOM      4  C   UNL     1      -4.025  11.997  18.873  0.00  0.00    +0.000 A 
ATOM      5  N   UNL     1      -4.645  12.434  20.062  0.00  0.00    +0.000 NA
ATOM      6  C   UNL     1      -3.901  12.712  21.088  0.00  0.00    +0.000 A 
ATOM      7  C   UNL     1      -4.587  13.094  22.370  0.00  0.00    +0.000 C 
ATOM      8  C   UNL     1      -2.469  12.638  21.006  0.00  0.00    +0.000 A 
ATOM      9  C   UNL     1      -1.434  12.853  21.903  0.00  0.00    +0.000 A 
ATOM     10  C   UNL     1      -1.405  13.302  23.310  0.00  0.00    +0.000 C 
ATOM     11  N   UNL     1      -0.242  12.577  21.297  0.00  0.00    +0.000 NA
ATOM     12  C   UNL     1      -0.488  12.286  20.032  0.00  0.00    +0.000 A 
ATOM     13  N   UNL     1      -1.855  12.250  19.823  0.00  0.00    +0.000 N 
ATOM     14  C   UNL     1      -2.640  11.838  18.715  0.00  0.00    +0.000 A 
ATOM     15  N   UNL     1      -2.067  11.332  17.597  0.00  0.00    +0.000 NA
ENDROOT
BRANCH  12  16
ATOM     16  C   UNL     1       0.644  12.067  19.088  0.00  0.00    +0.000 A 
ATOM     17  C   UNL     1       1.232  10.803  18.769  0.00  0.00    +0.000 A 
ATOM     18  C   UNL     1       0.873   9.440  19.241  0.00  0.00    +0.000 C 
ATOM     19  N   UNL     1       2.231  10.941  17.889  0.00  0.00    +0.000 NA
ATOM     20  N   UNL     1       2.331  12.266  17.712  0.00  0.00    +0.000 N 
ATOM     21  C   UNL     1       1.457  12.999  18.475  0.00  0.00    +0.000 A 
ATOM     22  C   UNL     1       1.610  14.472  18.575  0.00  0.00    +0.000 C 
ATOM     23  H   UNL     1       3.055  12.604  17.098  0.00  0.00    +0.000 HD
ENDBRANCH  12  16
BRANCH   1  25
ATOM     24  C   UNL     1      -3.303  10.094  14.475  0.00  0.00    +0.000 C 
ATOM     25  O   UNL     1      -2.359  10.724  15.330  0.00  0.00    +0.000 OA
ENDBRANCH   1  25
TORSDOF 2
ENDMDL
MODEL 5
REMARK VINA RESULT:      -6.8      0.234      1.673
REMARK  Name = 
REMARK  7 active torsions:
REMARK  status: ('A' for Active; 'I' for Inactive)
REMARK    1  A    between atoms: C_1  and  O_2
REMARK    2  A    between atoms: O_2  and  C_3
REMARK    3  A    between atoms: C_8  and  C_9
REMARK    4  A    between atoms: C_11  and  C_12
REMARK    5  A    between atoms: C_14  and  C_15
REMARK    6  A    between atoms: C_16  and  C_17
REMARK    7  A    between atoms: C_20  and  C_21
REMARK                            x       y       z     vdW  Elec       q    Type
REMARK                         _______ _______ _______ _____ _____    ______ ____
ROOT
ATOM      1  C   UNL     1       2.714   7.999  18.292  0.00  0.00    +0.000 A 
ATOM      2  C   UNL     1       1.724   8.198  19.239  0.00  0.00    +0.000 A 
ATOM      3  C   UNL     1       1.439   7.164  20.123  0.00  0.00    +0.000 A 
ATOM      4  C   UNL     1       2.188   5.987  20.079  0.00  0.00    +0.000 A 
ATOM      5  N   UNL     1       1.865   4.960  20.989  0.00  0.00    +0.000 NA
ATOM      6  C   UNL     1       2.540   3.853  20.945  0.00  0.00    +0.000 A 
ATOM      7  C   UNL     1       2.123   2.739  21.866  0.00  0.00    +0.000 C 
ATOM      8  C   UNL     1       3.637   3.690  20.033  0.00  0.00    +0.000 A 
ATOM      9  C   UNL     1       4.515   2.656  19.747  0.00  0.00    +0.000 A 
ATOM     10  C   UNL     1       4.697   1.308  20.322  0.00  0.00    +0.000 C 
ATOM     11  N   UNL     1       5.342   3.031  18.727  0.00  0.00    +0.000 NA
ATOM     12  C   UNL     1       5.073   4.290  18.428  0.00  0.00    +0.000 A 
ATOM     13  N   UNL     1       3.984   4.718  19.166  0.00  0.00    +0.000 N 
ATOM     14  C   UNL     1       3.202   5.900  19.114  0.00  0.00    +0.000 A 
ATOM     15  N   UNL     1       3.441   6.860  18.190  0.00  0.00    +0.000 NA
ENDROOT
BRANCH  12  16
ATOM     16  C   UNL     1       5.914   5.011  17.432  0.00  0.00    +0.000 A 
ATOM     17  C   UNL     1       6.993   5.898  17.737  0.00  0.00    +0.000 A 
ATOM     18  C   UNL     1       7.556   6.294  19.055  0.00  0.00    +0.000 C 
ATOM     19  N   UNL     1       7.548   6.389  16.623  0.00  0.00    +0.000 NA
ATOM     20  N   UNL     1       6.792   5.890  15.634  0.00  0.00    +0.000 N 
ATOM     21  C   UNL     1       5.741   5.124  16.067  0.00  0.00    +0.000 A 
ATOM     22  C   UNL     1       4.680   4.708  15.115  0.00  0.00    +0.000 C 
ATOM     23  H   UNL     1       7.018   6.160  14.689  0.00  0.00    +0.000 HD
ENDBRANCH  12  16
BRANCH   1  25
ATOM     24  C   UNL     1       2.228  10.225  17.785  0.00  0.00    +0.000 C 
ATOM     25  O   UNL     1       3.024   9.083  17.498  0.00  0.00    +0.000 OA
ENDBRANCH   1  25
TORSDOF 2
ENDMDL
MODEL 6
REMARK VINA RESULT:      -6.6      6.796      9.793
REMARK  Name = 
REMARK  7 active torsions:
REMARK  status: ('A' for Active; 'I' for Inactive)
REMARK    1  A    between atoms: C_1  and  O_2
REMARK    2  A    between atoms: O_2  and  C_3
REMARK    3  A    between atoms: C_8  and  C_9
REMARK    4  A    between atoms: C_11  and  C_12
REMARK    5  A    between atoms: C_14  and  C_15
REMARK    6  A    between atoms: C_16  and  C_17
REMARK    7  A    between atoms: C_20  and  C_21
REMARK                            x       y       z     vdW  Elec       q    Type
REMARK                         _______ _______ _______ _____ _____    ______ ____
ROOT
ATOM      1  C   UNL     1      -3.194  11.217  16.742  0.00  0.00    +0.000 A 
ATOM      2  C   UNL     1      -4.577  11.253  16.685  0.00  0.00    +0.000 A 
ATOM      3  C   UNL     1      -5.275  11.617  17.831  0.00  0.00    +0.000 A 
ATOM      4  C   UNL     1      -4.577  11.995  18.978  0.00  0.00    +0.000 A 
ATOM      5  N   UNL     1      -5.321  12.354  20.121  0.00  0.00    +0.000 NA
ATOM      6  C   UNL     1      -4.684  12.687  21.201  0.00  0.00    +0.000 A 
ATOM      7  C   UNL     1      -5.496  12.983  22.432  0.00  0.00    +0.000 C 
ATOM      8  C   UNL     1      -3.250  12.753  21.224  0.00  0.00    +0.000 A 
ATOM      9  C   UNL     1      -2.309  13.054  22.197  0.00  0.00    +0.000 A 
ATOM     10  C   UNL     1      -2.425  13.483  23.605  0.00  0.00    +0.000 C 
ATOM     11  N   UNL     1      -1.055  12.902  21.678  0.00  0.00    +0.000 NA
ATOM     12  C   UNL     1      -1.178  12.607  20.396  0.00  0.00    +0.000 A 
ATOM     13  N   UNL     1      -2.517  12.442  20.086  0.00  0.00    +0.000 N 
ATOM     14  C   UNL     1      -3.176  11.973  18.921  0.00  0.00    +0.000 A 
ATOM     15  N   UNL     1      -2.477  11.540  17.845  0.00  0.00    +0.000 NA
ENDROOT
BRANCH  12  16
ATOM     16  C   UNL     1       0.034  12.511  19.537  0.00  0.00    +0.000 A 
ATOM     17  C   UNL     1       0.630  13.589  18.811  0.00  0.00    +0.000 A 
ATOM     18  C   UNL     1       0.242  15.023  18.747  0.00  0.00    +0.000 C 
ATOM     19  N   UNL     1       1.708  13.181  18.131  0.00  0.00    +0.000 NA
ATOM     20  N   UNL     1       1.753  11.859  18.353  0.00  0.00    +0.000 N 
ATOM     21  C   UNL     1       0.721  11.387  19.122  0.00  0.00    +0.000 A 
ATOM     22  C   UNL     1       0.495   9.925  19.250  0.00  0.00    +0.000 C 
ATOM     23  H   UNL     1       2.485  11.333  17.903  0.00  0.00    +0.000 HD
ENDBRANCH  12  16
BRANCH   1  25
ATOM     24  C   UNL     1      -3.345  10.201  14.646  0.00  0.00    +0.000 C 
ATOM     25  O   UNL     1      -2.543  10.939  15.558  0.00  0.00    +0.000 OA
ENDBRANCH   1  25
TORSDOF 2
ENDMDL
MODEL 7
REMARK VINA RESULT:      -6.2      8.154     11.835
REMARK  Name = 
REMARK  7 active torsions:
REMARK  status: ('A' for Active; 'I' for Inactive)
REMARK    1  A    between atoms: C_1  and  O_2
REMARK    2  A    between atoms: O_2  and  C_3
REMARK    3  A    between atoms: C_8  and  C_9
REMARK    4  A    between atoms: C_11  and  C_12
REMARK    5  A    between atoms: C_14  and  C_15
REMARK    6  A    between atoms: C_16  and  C_17
REMARK    7  A    between atoms: C_20  and  C_21
REMARK                            x       y       z     vdW  Elec       q    Type
REMARK                         _______ _______ _______ _____ _____    ______ ____
ROOT
ATOM      1  C   UNL     1      -3.224  10.879  16.669  0.00  0.00    +0.000 A 
ATOM      2  C   UNL     1      -2.033  10.186  16.801  0.00  0.00    +0.000 A 
ATOM      3  C   UNL     1      -1.312  10.332  17.980  0.00  0.00    +0.000 A 
ATOM      4  C   UNL     1      -1.827  11.113  19.016  0.00  0.00    +0.000 A 
ATOM      5  N   UNL     1      -1.063  11.240  20.195  0.00  0.00    +0.000 NA
ATOM      6  C   UNL     1      -1.521  11.979  21.158  0.00  0.00    +0.000 A 
ATOM      7  C   UNL     1      -0.652  12.170  22.370  0.00  0.00    +0.000 C 
ATOM      8  C   UNL     1      -2.807  12.611  21.059  0.00  0.00    +0.000 A 
ATOM      9  C   UNL     1      -3.542  13.445  21.887  0.00  0.00    +0.000 A 
ATOM     10  C   UNL     1      -3.302  13.978  23.243  0.00  0.00    +0.000 C 
ATOM     11  N   UNL     1      -4.701  13.801  21.258  0.00  0.00    +0.000 NA
ATOM     12  C   UNL     1      -4.757  13.150  20.110  0.00  0.00    +0.000 A 
ATOM     13  N   UNL     1      -3.579  12.451  19.917  0.00  0.00    +0.000 N 
ATOM     14  C   UNL     1      -3.065  11.736  18.804  0.00  0.00    +0.000 A 
ATOM     15  N   UNL     1      -3.743  11.676  17.634  0.00  0.00    +0.000 NA
ENDROOT
BRANCH  12  16
ATOM     16  C   UNL     1      -5.980  13.242  19.264  0.00  0.00    +0.000 A 
ATOM     17  C   UNL     1      -6.610  14.453  18.837  0.00  0.00    +0.000 A 
ATOM     18  C   UNL     1      -6.220  15.866  19.083  0.00  0.00    +0.000 C 
ATOM     19  N   UNL     1      -7.691  14.200  18.089  0.00  0.00    +0.000 NA
ATOM     20  N   UNL     1      -7.794  12.864  18.104  0.00  0.00    +0.000 N 
ATOM     21  C   UNL     1      -6.841  12.238  18.866  0.00  0.00    +0.000 A 
ATOM     22  C   UNL     1      -6.968  10.793  19.179  0.00  0.00    +0.000 C 
ATOM     23  H   UNL     1      -8.572  12.448  17.616  0.00  0.00    +0.000 HD
ENDBRANCH  12  16
BRANCH   1  25
ATOM     24  C   UNL     1      -3.156  10.094  14.472  0.00  0.00    +0.000 C 
ATOM     25  O   UNL     1      -3.948  10.632  15.521  0.00  0.00    +0.000 OA
ENDBRANCH   1  25
TORSDOF 2
ENDMDL
MODEL 8
REMARK VINA RESULT:      -6.2      7.483     11.057
REMARK  Name = 
REMARK  7 active torsions:
REMARK  status: ('A' for Active; 'I' for Inactive)
REMARK    1  A    between atoms: C_1  and  O_2
REMARK    2  A    between atoms: O_2  and  C_3
REMARK    3  A    between atoms: C_8  and  C_9
REMARK    4  A    between atoms: C_11  and  C_12
REMARK    5  A    between atoms: C_14  and  C_15
REMARK    6  A    between atoms: C_16  and  C_17
REMARK    7  A    between atoms: C_20  and  C_21
REMARK                            x       y       z     vdW  Elec       q    Type
REMARK                         _______ _______ _______ _____ _____    ______ ____
ROOT
ATOM      1  C   UNL     1      -1.744  10.232  17.549  0.00  0.00    +0.000 A 
ATOM      2  C   UNL     1      -2.431   9.995  16.371  0.00  0.00    +0.000 A 
ATOM      3  C   UNL     1      -3.711  10.520  16.236  0.00  0.00    +0.000 A 
ATOM      4  C   UNL     1      -4.243  11.318  17.249  0.00  0.00    +0.000 A 
ATOM      5  N   UNL     1      -5.546  11.830  17.077  0.00  0.00    +0.000 NA
ATOM      6  C   UNL     1      -6.061  12.556  18.021  0.00  0.00    +0.000 A 
ATOM      7  C   UNL     1      -7.481  13.020  17.854  0.00  0.00    +0.000 C 
ATOM      8  C   UNL     1      -5.304  12.890  19.195  0.00  0.00    +0.000 A 
ATOM      9  C   UNL     1      -5.571  13.613  20.347  0.00  0.00    +0.000 A 
ATOM     10  C   UNL     1      -6.750  14.380  20.799  0.00  0.00    +0.000 C 
ATOM     11  N   UNL     1      -4.488  13.561  21.177  0.00  0.00    +0.000 NA
ATOM     12  C   UNL     1      -3.525  12.911  20.548  0.00  0.00    +0.000 A 
ATOM     13  N   UNL     1      -4.005  12.423  19.346  0.00  0.00    +0.000 N 
ATOM     14  C   UNL     1      -3.449  11.541  18.384  0.00  0.00    +0.000 A 
ATOM     15  N   UNL     1      -2.236  10.970  18.573  0.00  0.00    +0.000 NA
ENDROOT
BRANCH  12  16
ATOM     16  C   UNL     1      -2.172  12.812  21.164  0.00  0.00    +0.000 A 
ATOM     17  C   UNL     1      -1.893  12.383  22.499  0.00  0.00    +0.000 A 
ATOM     18  C   UNL     1      -2.820  11.916  23.563  0.00  0.00    +0.000 C 
ATOM     19  N   UNL     1      -0.578  12.406  22.752  0.00  0.00    +0.000 NA
ATOM     20  N   UNL     1      -0.040  12.913  21.633  0.00  0.00    +0.000 N 
ATOM     21  C   UNL     1      -0.959  13.256  20.676  0.00  0.00    +0.000 A 
ATOM     22  C   UNL     1      -0.543  14.050  19.493  0.00  0.00    +0.000 C 
ATOM     23  H   UNL     1       0.959  13.048  21.613  0.00  0.00    +0.000 HD
ENDBRANCH  12  16
BRANCH   1  25
ATOM     24  C   UNL     1       0.295  10.313  18.684  0.00  0.00    +0.000 C 
ATOM     25  O   UNL     1      -0.446   9.768  17.601  0.00  0.00    +0.000 OA
ENDBRANCH   1  25
TORSDOF 2
ENDMDL
MODEL 9
REMARK VINA RESULT:      -6.2      8.374     10.979
REMARK  Name = 
REMARK  7 active torsions:
REMARK  status: ('A' for Active; 'I' for Inactive)
REMARK    1  A    between atoms: C_1  and  O_2
REMARK    2  A    between atoms: O_2  and  C_3
REMARK    3  A    between atoms: C_8  and  C_9
REMARK    4  A    between atoms: C_11  and  C_12
REMARK    5  A    between atoms: C_14  and  C_15
REMARK    6  A    between atoms: C_16  and  C_17
REMARK    7  A    between atoms: C_20  and  C_21
REMARK                            x       y       z     vdW  Elec       q    Type
REMARK                         _______ _______ _______ _____ _____    ______ ____
ROOT
ATOM      1  C   UNL     1      -3.397  11.253  17.382  0.00  0.00    +0.000 A 
ATOM      2  C   UNL     1      -4.619  11.430  16.756  0.00  0.00    +0.000 A 
ATOM      3  C   UNL     1      -5.668  11.963  17.496  0.00  0.00    +0.000 A 
ATOM      4  C   UNL     1      -5.454  12.362  18.816  0.00  0.00    +0.000 A 
ATOM      5  N   UNL     1      -6.544  12.894  19.535  0.00  0.00    +0.000 NA
ATOM      6  C   UNL     1      -6.363  13.251  20.769  0.00  0.00    +0.000 A 
ATOM      7  C   UNL     1      -7.558  13.735  21.542  0.00  0.00    +0.000 C 
ATOM      8  C   UNL     1      -5.067  13.166  21.382  0.00  0.00    +0.000 A 
ATOM      9  C   UNL     1      -4.572  13.449  22.645  0.00  0.00    +0.000 A 
ATOM     10  C   UNL     1      -5.193  14.008  23.863  0.00  0.00    +0.000 C 
ATOM     11  N   UNL     1      -3.247  13.122  22.698  0.00  0.00    +0.000 NA
ATOM     12  C   UNL     1      -2.877  12.732  21.491  0.00  0.00    +0.000 A 
ATOM     13  N   UNL     1      -3.983  12.683  20.661  0.00  0.00    +0.000 N 
ATOM     14  C   UNL     1      -4.166  12.187  19.345  0.00  0.00    +0.000 A 
ATOM     15  N   UNL     1      -3.154  11.592  18.671  0.00  0.00    +0.000 NA
ENDROOT
BRANCH  12  16
ATOM     16  C   UNL     1      -1.444  12.435  21.215  0.00  0.00    +0.000 A 
ATOM     17  C   UNL     1      -0.638  11.486  21.917  0.00  0.00    +0.000 A 
ATOM     18  C   UNL     1      -0.999  10.567  23.029  0.00  0.00    +0.000 C 
ATOM     19  N   UNL     1       0.610  11.454  21.432  0.00  0.00    +0.000 NA
ATOM     20  N   UNL     1       0.621  12.415  20.498  0.00  0.00    +0.000 N 
ATOM     21  C   UNL     1      -0.562  13.098  20.384  0.00  0.00    +0.000 A 
ATOM     22  C   UNL     1      -0.631  14.340  19.575  0.00  0.00    +0.000 C 
ATOM     23  H   UNL     1       1.489  12.589  20.014  0.00  0.00    +0.000 HD
ENDBRANCH  12  16
BRANCH   1  25
ATOM     24  C   UNL     1      -2.773  10.528  15.252  0.00  0.00    +0.000 C 
ATOM     25  O   UNL     1      -2.364  10.806  16.584  0.00  0.00    +0.000 OA
ENDBRANCH   1  25
TORSDOF 2
ENDMDL
