MODEL 1
REMARK VINA RESULT:      -8.0      0.000      0.000
REMARK  Name = 
REMARK  10 active torsions:
REMARK  status: ('A' for Active; 'I' for Inactive)
REMARK    1  A    between atoms: C_1  and  O_2
REMARK    2  A    between atoms: O_2  and  C_3
REMARK    3  A    between atoms: C_6  and  N_7
REMARK    4  A    between atoms: N_10  and  C_11
REMARK    5  A    between atoms: C_14  and  C_15
REMARK    6  A    between atoms: C_15  and  C_16
REMARK    7  A    between atoms: C_16  and  N_17
REMARK    8  A    between atoms: C_19  and  C_20
REMARK    9  A    between atoms: C_29  and  C_30
REMARK   10  A    between atoms: C_30  and  O_31
REMARK                            x       y       z     vdW  Elec       q    Type
REMARK                         _______ _______ _______ _____ _____    ______ ____
ROOT
ATOM      1  C   UNL     1       1.422   7.473  20.038  0.00  0.00    +0.000 C 
ATOM      2  C   UNL     1       1.616   6.233  20.937  0.00  0.00    +0.000 C 
ATOM      3  C   UNL     1       1.707   4.958  20.112  0.00  0.00    +0.000 C 
ATOM      4  C   UNL     1       2.775   5.075  19.022  0.00  0.00    +0.000 C 
ATOM      5  O   UNL     1       2.446   6.181  18.167  0.00  0.00    +0.000 OA
ATOM      6  C   UNL     1       2.411   7.463  18.834  0.00  0.00    +0.000 C 
ENDROOT
BRANCH   1  10
ATOM      7  N   UNL     1       0.511  10.642  21.658  0.00  0.00    +0.000 N 
ATOM      8  C   UNL     1       0.334   9.465  20.976  0.00  0.00    +0.000 C 
ATOM      9  O   UNL     1      -0.730   9.060  20.514  0.00  0.00    +0.000 OA
ATOM     10  N   UNL     1       1.476   8.715  20.824  0.00  0.00    +0.000 N 
ATOM     11  H   UNL     1       1.401  10.803  22.106  0.00  0.00    +0.000 HD
ATOM     12  H   UNL     1       2.375   9.144  20.993  0.00  0.00    +0.000 HD
BRANCH   7  16
ATOM     13  C   UNL     1      -2.503  13.554  22.313  0.00  0.00    +0.000 A 
ATOM     14  C   UNL     1      -1.714  13.621  21.175  0.00  0.00    +0.000 A 
ATOM     15  C   UNL     1      -0.734  12.660  20.942  0.00  0.00    +0.000 A 
ATOM     16  C   UNL     1      -0.504  11.616  21.846  0.00  0.00    +0.000 A 
ATOM     17  C   UNL     1      -1.299  11.554  22.994  0.00  0.00    +0.000 A 
ATOM     18  C   UNL     1      -2.294  12.521  23.228  0.00  0.00    +0.000 A 
BRANCH  13  20
ATOM     19  C   UNL     1      -4.553  14.481  21.608  0.00  0.00    +0.000 C 
ATOM     20  O   UNL     1      -3.403  14.573  22.434  0.00  0.00    +0.000 OA
ENDBRANCH  13  20
ENDBRANCH   7  16
ENDBRANCH   1  10
BRANCH   4  21
ATOM     21  C   UNL     1       4.223   5.155  19.535  0.00  0.00    +0.000 C 
BRANCH  21  22
ATOM     22  C   UNL     1       5.052   3.926  19.174  0.00  0.00    +0.000 C 
BRANCH  22  23
ATOM     23  N   UNL     1       5.906   4.184  18.033  0.00  0.00    +0.000 N 
ATOM     24  C   UNL     1       5.573   4.094  16.719  0.00  0.00    +0.000 A 
ATOM     25  C   UNL     1       6.730   4.441  16.060  0.00  0.00    +0.000 A 
ATOM     26  N   UNL     1       7.702   4.732  16.987  0.00  0.00    +0.000 NA
ATOM     27  N   UNL     1       7.180   4.576  18.199  0.00  0.00    +0.000 NA
BRANCH  25  28
ATOM     28  C   UNL     1       6.904   4.502  14.623  0.00  0.00    +0.000 A 
ATOM     29  C   UNL     1       6.153   3.685  13.784  0.00  0.00    +0.000 A 
ATOM     30  C   UNL     1       6.359   3.768  12.409  0.00  0.00    +0.000 A 
ATOM     31  C   UNL     1       7.302   4.660  11.915  0.00  0.00    +0.000 A 
ATOM     32  C   UNL     1       8.006   5.438  12.818  0.00  0.00    +0.000 A 
ATOM     33  N   UNL     1       7.832   5.379  14.155  0.00  0.00    +0.000 NA
ENDBRANCH  25  28
ENDBRANCH  22  23
ENDBRANCH  21  22
ENDBRANCH   4  21
BRANCH   6  34
ATOM     34  C   UNL     1       2.008   8.511  17.786  0.00  0.00    +0.000 C 
BRANCH  34  35
ATOM     35  O   UNL     1       2.361   9.823  18.229  0.00  0.00    +0.000 OA
ATOM     36  H   UNL     1       1.542  10.351  18.165  0.00  0.00    +0.000 HD
ENDBRANCH  34  35
ENDBRANCH   6  34
TORSDOF 9
ENDMDL
MODEL 2
REMARK VINA RESULT:      -7.9      0.820      1.183
REMARK  Name = 
REMARK  10 active torsions:
REMARK  status: ('A' for Active; 'I' for Inactive)
REMARK    1  A    between atoms: C_1  and  O_2
REMARK    2  A    between atoms: O_2  and  C_3
REMARK    3  A    between atoms: C_6  and  N_7
REMARK    4  A    between atoms: N_10  and  C_11
REMARK    5  A    between atoms: C_14  and  C_15
REMARK    6  A    between atoms: C_15  and  C_16
REMARK    7  A    between atoms: C_16  and  N_17
REMARK    8  A    between atoms: C_19  and  C_20
REMARK    9  A    between atoms: C_29  and  C_30
REMARK   10  A    between atoms: C_30  and  O_31
REMARK                            x       y       z     vdW  Elec       q    Type
REMARK                         _______ _______ _______ _____ _____    ______ ____
ROOT
ATOM      1  C   UNL     1       1.567   6.815  20.244  0.00  0.00    +0.000 C 
ATOM      2  C   UNL     1       1.614   5.423  20.912  0.00  0.00    +0.000 C 
ATOM      3  C   UNL     1       1.745   4.316  19.877  0.00  0.00    +0.000 C 
ATOM      4  C   UNL     1       2.929   4.566  18.940  0.00  0.00    +0.000 C 
ATOM      5  O   UNL     1       2.737   5.826  18.277  0.00  0.00    +0.000 OA
ATOM      6  C   UNL     1       2.679   6.966  19.164  0.00  0.00    +0.000 C 
ENDROOT
BRANCH   1  10
ATOM      7  N   UNL     1       0.711   9.810  22.193  0.00  0.00    +0.000 N 
ATOM      8  C   UNL     1       0.560   8.806  21.271  0.00  0.00    +0.000 C 
ATOM      9  O   UNL     1      -0.389   8.683  20.499  0.00  0.00    +0.000 OA
ATOM     10  N   UNL     1       1.584   7.889  21.249  0.00  0.00    +0.000 N 
ATOM     11  H   UNL     1       1.463   9.731  22.862  0.00  0.00    +0.000 HD
ATOM     12  H   UNL     1       2.456   8.112  21.708  0.00  0.00    +0.000 HD
BRANCH   7  16
ATOM     13  C   UNL     1      -1.911  13.130  22.487  0.00  0.00    +0.000 A 
ATOM     14  C   UNL     1      -2.155  11.990  23.236  0.00  0.00    +0.000 A 
ATOM     15  C   UNL     1      -1.291  10.901  23.160  0.00  0.00    +0.000 A 
ATOM     16  C   UNL     1      -0.169  10.916  22.323  0.00  0.00    +0.000 A 
ATOM     17  C   UNL     1       0.071  12.066  21.566  0.00  0.00    +0.000 A 
ATOM     18  C   UNL     1      -0.798  13.169  21.646  0.00  0.00    +0.000 A 
BRANCH  13  20
ATOM     19  C   UNL     1      -4.171  13.664  22.899  0.00  0.00    +0.000 C 
ATOM     20  O   UNL     1      -2.851  14.110  22.632  0.00  0.00    +0.000 OA
ENDBRANCH  13  20
ENDBRANCH   7  16
ENDBRANCH   1  10
BRANCH   4  21
ATOM     21  C   UNL     1       4.314   4.468  19.600  0.00  0.00    +0.000 C 
BRANCH  21  22
ATOM     22  C   UNL     1       5.262   5.582  19.164  0.00  0.00    +0.000 C 
BRANCH  22  23
ATOM     23  N   UNL     1       6.051   5.182  18.017  0.00  0.00    +0.000 N 
ATOM     24  C   UNL     1       5.705   5.280  16.707  0.00  0.00    +0.000 A 
ATOM     25  C   UNL     1       6.795   4.769  16.038  0.00  0.00    +0.000 A 
ATOM     26  N   UNL     1       7.746   4.395  16.956  0.00  0.00    +0.000 NA
ATOM     27  N   UNL     1       7.279   4.660  18.171  0.00  0.00    +0.000 NA
BRANCH  25  28
ATOM     28  C   UNL     1       6.930   4.649  14.601  0.00  0.00    +0.000 A 
ATOM     29  C   UNL     1       6.177   3.717  13.895  0.00  0.00    +0.000 A 
ATOM     30  C   UNL     1       6.345   3.627  12.515  0.00  0.00    +0.000 A 
ATOM     31  C   UNL     1       7.255   4.466  11.885  0.00  0.00    +0.000 A 
ATOM     32  C   UNL     1       7.965   5.367  12.661  0.00  0.00    +0.000 A 
ATOM     33  N   UNL     1       7.826   5.476  13.999  0.00  0.00    +0.000 NA
ENDBRANCH  25  28
ENDBRANCH  22  23
ENDBRANCH  21  22
ENDBRANCH   4  21
BRANCH   6  34
ATOM     34  C   UNL     1       2.434   8.208  18.295  0.00  0.00    +0.000 C 
BRANCH  34  35
ATOM     35  O   UNL     1       3.102   8.080  17.038  0.00  0.00    +0.000 OA
ATOM     36  H   UNL     1       2.766   7.251  16.646  0.00  0.00    +0.000 HD
ENDBRANCH  34  35
ENDBRANCH   6  34
TORSDOF 9
ENDMDL
MODEL 3
REMARK VINA RESULT:      -7.5      0.766      1.308
REMARK  Name = 
REMARK  10 active torsions:
REMARK  status: ('A' for Active; 'I' for Inactive)
REMARK    1  A    between atoms: C_1  and  O_2
REMARK    2  A    between atoms: O_2  and  C_3
REMARK    3  A    between atoms: C_6  and  N_7
REMARK    4  A    between atoms: N_10  and  C_11
REMARK    5  A    between atoms: C_14  and  C_15
REMARK    6  A    between atoms: C_15  and  C_16
REMARK    7  A    between atoms: C_16  and  N_17
REMARK    8  A    between atoms: C_19  and  C_20
REMARK    9  A    between atoms: C_29  and  C_30
REMARK   10  A    between atoms: C_30  and  O_31
REMARK                            x       y       z     vdW  Elec       q    Type
REMARK                         _______ _______ _______ _____ _____    ______ ____
ROOT
ATOM      1  C   UNL     1       1.574   7.371  20.018  0.00  0.00    +0.000 C 
ATOM      2  C   UNL     1       1.620   6.001  20.730  0.00  0.00    +0.000 C 
ATOM      3  C   UNL     1       1.757   4.862  19.731  0.00  0.00    +0.000 C 
ATOM      4  C   UNL     1       2.946   5.084  18.791  0.00  0.00    +0.000 C 
ATOM      5  O   UNL     1       2.755   6.322  18.088  0.00  0.00    +0.000 OA
ATOM      6  C   UNL     1       2.692   7.489  18.939  0.00  0.00    +0.000 C 
ENDROOT
BRANCH   1  10
ATOM      7  N   UNL     1       0.614  10.321  21.987  0.00  0.00    +0.000 N 
ATOM      8  C   UNL     1       0.472   9.273  21.113  0.00  0.00    +0.000 C 
ATOM      9  O   UNL     1      -0.540   9.016  20.465  0.00  0.00    +0.000 OA
ATOM     10  N   UNL     1       1.585   8.476  20.989  0.00  0.00    +0.000 N 
ATOM     11  H   UNL     1       1.443  10.351  22.561  0.00  0.00    +0.000 HD
ATOM     12  H   UNL     1       2.474   8.812  21.334  0.00  0.00    +0.000 HD
BRANCH   7  16
ATOM     13  C   UNL     1      -2.318  13.338  22.520  0.00  0.00    +0.000 A 
ATOM     14  C   UNL     1      -2.370  12.183  23.284  0.00  0.00    +0.000 A 
ATOM     15  C   UNL     1      -1.403  11.194  23.130  0.00  0.00    +0.000 A 
ATOM     16  C   UNL     1      -0.367  11.325  22.197  0.00  0.00    +0.000 A 
ATOM     17  C   UNL     1      -0.320  12.489  21.426  0.00  0.00    +0.000 A 
ATOM     18  C   UNL     1      -1.294  13.492  21.585  0.00  0.00    +0.000 A 
BRANCH  13  20
ATOM     19  C   UNL     1      -4.400  13.721  23.560  0.00  0.00    +0.000 C 
ATOM     20  O   UNL     1      -3.343  14.211  22.751  0.00  0.00    +0.000 OA
ENDBRANCH  13  20
ENDBRANCH   7  16
ENDBRANCH   1  10
BRANCH   4  21
ATOM     21  C   UNL     1       4.328   5.009  19.461  0.00  0.00    +0.000 C 
BRANCH  21  22
ATOM     22  C   UNL     1       5.163   3.828  18.973  0.00  0.00    +0.000 C 
BRANCH  22  23
ATOM     23  N   UNL     1       5.939   4.181  17.803  0.00  0.00    +0.000 N 
ATOM     24  C   UNL     1       5.645   3.904  16.506  0.00  0.00    +0.000 A 
ATOM     25  C   UNL     1       6.693   4.455  15.804  0.00  0.00    +0.000 A 
ATOM     26  N   UNL     1       7.564   5.043  16.690  0.00  0.00    +0.000 NA
ATOM     27  N   UNL     1       7.085   4.873  17.917  0.00  0.00    +0.000 NA
BRANCH  25  28
ATOM     28  C   UNL     1       6.856   4.433  14.364  0.00  0.00    +0.000 A 
ATOM     29  C   UNL     1       7.714   5.330  13.736  0.00  0.00    +0.000 A 
ATOM     30  C   UNL     1       7.834   5.282  12.349  0.00  0.00    +0.000 A 
ATOM     31  C   UNL     1       7.100   4.343  11.635  0.00  0.00    +0.000 A 
ATOM     32  C   UNL     1       6.270   3.486  12.338  0.00  0.00    +0.000 A 
ATOM     33  N   UNL     1       6.130   3.510  13.680  0.00  0.00    +0.000 NA
ENDBRANCH  25  28
ENDBRANCH  22  23
ENDBRANCH  21  22
ENDBRANCH   4  21
BRANCH   6  34
ATOM     34  C   UNL     1       2.448   8.703  18.029  0.00  0.00    +0.000 C 
BRANCH  34  35
ATOM     35  O   UNL     1       1.047   8.933  17.865  0.00  0.00    +0.000 OA
ATOM     36  H   UNL     1       0.604   8.226  18.372  0.00  0.00    +0.000 HD
ENDBRANCH  34  35
ENDBRANCH   6  34
TORSDOF 9
ENDMDL
MODEL 4
REMARK VINA RESULT:      -7.4      1.165      1.459
REMARK  Name = 
REMARK  10 active torsions:
REMARK  status: ('A' for Active; 'I' for Inactive)
REMARK    1  A    between atoms: C_1  and  O_2
REMARK    2  A    between atoms: O_2  and  C_3
REMARK    3  A    between atoms: C_6  and  N_7
REMARK    4  A    between atoms: N_10  and  C_11
REMARK    5  A    between atoms: C_14  and  C_15
REMARK    6  A    between atoms: C_15  and  C_16
REMARK    7  A    between atoms: C_16  and  N_17
REMARK    8  A    between atoms: C_19  and  C_20
REMARK    9  A    between atoms: C_29  and  C_30
REMARK   10  A    between atoms: C_30  and  O_31
REMARK                            x       y       z     vdW  Elec       q    Type
REMARK                         _______ _______ _______ _____ _____    ______ ____
ROOT
ATOM      1  C   UNL     1       1.813   6.124  20.321  0.00  0.00    +0.000 C 
ATOM      2  C   UNL     1       2.086   4.894  21.215  0.00  0.00    +0.000 C 
ATOM      3  C   UNL     1       2.141   3.614  20.395  0.00  0.00    +0.000 C 
ATOM      4  C   UNL     1       3.131   3.737  19.234  0.00  0.00    +0.000 C 
ATOM      5  O   UNL     1       2.727   4.830  18.395  0.00  0.00    +0.000 OA
ATOM      6  C   UNL     1       2.718   6.118  19.053  0.00  0.00    +0.000 C 
ENDROOT
BRANCH   1  10
ATOM      7  N   UNL     1       1.010   9.365  21.853  0.00  0.00    +0.000 N 
ATOM      8  C   UNL     1       0.798   8.189  21.179  0.00  0.00    +0.000 C 
ATOM      9  O   UNL     1      -0.265   7.837  20.673  0.00  0.00    +0.000 OA
ATOM     10  N   UNL     1       1.901   7.373  21.092  0.00  0.00    +0.000 N 
ATOM     11  H   UNL     1       1.885   9.483  22.341  0.00  0.00    +0.000 HD
ATOM     12  H   UNL     1       2.815   7.754  21.298  0.00  0.00    +0.000 HD
BRANCH   7  16
ATOM     13  C   UNL     1      -1.855  12.457  22.323  0.00  0.00    +0.000 A 
ATOM     14  C   UNL     1      -1.070  12.411  21.182  0.00  0.00    +0.000 A 
ATOM     15  C   UNL     1      -0.139  11.391  21.010  0.00  0.00    +0.000 A 
ATOM     16  C   UNL     1       0.044  10.398  21.980  0.00  0.00    +0.000 A 
ATOM     17  C   UNL     1      -0.746  10.450  23.131  0.00  0.00    +0.000 A 
ATOM     18  C   UNL     1      -1.691  11.477  23.303  0.00  0.00    +0.000 A 
BRANCH  13  20
ATOM     19  C   UNL     1      -3.228  13.830  23.661  0.00  0.00    +0.000 C 
ATOM     20  O   UNL     1      -2.704  13.525  22.379  0.00  0.00    +0.000 OA
ENDBRANCH  13  20
ENDBRANCH   7  16
ENDBRANCH   1  10
BRANCH   4  21
ATOM     21  C   UNL     1       4.609   3.843  19.647  0.00  0.00    +0.000 C 
BRANCH  21  22
ATOM     22  C   UNL     1       5.275   5.124  19.153  0.00  0.00    +0.000 C 
BRANCH  22  23
ATOM     23  N   UNL     1       6.071   4.879  17.968  0.00  0.00    +0.000 N 
ATOM     24  C   UNL     1       5.647   4.879  16.678  0.00  0.00    +0.000 A 
ATOM     25  C   UNL     1       6.785   4.597  15.956  0.00  0.00    +0.000 A 
ATOM     26  N   UNL     1       7.839   4.448  16.825  0.00  0.00    +0.000 NA
ATOM     27  N   UNL     1       7.388   4.630  18.060  0.00  0.00    +0.000 NA
BRANCH  25  28
ATOM     28  C   UNL     1       6.870   4.483  14.514  0.00  0.00    +0.000 A 
ATOM     29  C   UNL     1       7.719   5.312  13.787  0.00  0.00    +0.000 A 
ATOM     30  C   UNL     1       7.763   5.177  12.402  0.00  0.00    +0.000 A 
ATOM     31  C   UNL     1       6.963   4.222  11.787  0.00  0.00    +0.000 A 
ATOM     32  C   UNL     1       6.147   3.435  12.583  0.00  0.00    +0.000 A 
ATOM     33  N   UNL     1       6.081   3.545  13.927  0.00  0.00    +0.000 NA
ENDBRANCH  25  28
ENDBRANCH  22  23
ENDBRANCH  21  22
ENDBRANCH   4  21
BRANCH   6  34
ATOM     34  C   UNL     1       2.230   7.151  18.026  0.00  0.00    +0.000 C 
BRANCH  34  35
ATOM     35  O   UNL     1       2.829   8.424  18.274  0.00  0.00    +0.000 OA
ATOM     36  H   UNL     1       3.702   8.392  17.839  0.00  0.00    +0.000 HD
ENDBRANCH  34  35
ENDBRANCH   6  34
TORSDOF 9
ENDMDL
MODEL 5
REMARK VINA RESULT:      -7.3      4.957      9.545
REMARK  Name = 
REMARK  10 active torsions:
REMARK  status: ('A' for Active; 'I' for Inactive)
REMARK    1  A    between atoms: C_1  and  O_2
REMARK    2  A    between atoms: O_2  and  C_3
REMARK    3  A    between atoms: C_6  and  N_7
REMARK    4  A    between atoms: N_10  and  C_11
REMARK    5  A    between atoms: C_14  and  C_15
REMARK    6  A    between atoms: C_15  and  C_16
REMARK    7  A    between atoms: C_16  and  N_17
REMARK    8  A    between atoms: C_19  and  C_20
REMARK    9  A    between atoms: C_29  and  C_30
REMARK   10  A    between atoms: C_30  and  O_31
REMARK                            x       y       z     vdW  Elec       q    Type
REMARK                         _______ _______ _______ _____ _____    ______ ____
ROOT
ATOM      1  C   UNL     1       6.371   6.238  17.095  0.00  0.00    +0.000 C 
ATOM      2  C   UNL     1       5.513   5.882  15.861  0.00  0.00    +0.000 C 
ATOM      3  C   UNL     1       5.192   4.395  15.820  0.00  0.00    +0.000 C 
ATOM      4  C   UNL     1       4.566   3.923  17.135  0.00  0.00    +0.000 C 
ATOM      5  O   UNL     1       5.486   4.188  18.206  0.00  0.00    +0.000 OA
ATOM      6  C   UNL     1       5.802   5.586  18.391  0.00  0.00    +0.000 C 
ENDROOT
BRANCH   1  10
ATOM      7  N   UNL     1       7.805   9.542  17.817  0.00  0.00    +0.000 N 
ATOM      8  C   UNL     1       7.760   8.179  17.673  0.00  0.00    +0.000 C 
ATOM      9  O   UNL     1       8.681   7.403  17.921  0.00  0.00    +0.000 OA
ATOM     10  N   UNL     1       6.561   7.692  17.210  0.00  0.00    +0.000 N 
ATOM     11  H   UNL     1       7.035  10.084  17.455  0.00  0.00    +0.000 HD
ATOM     12  H   UNL     1       5.745   8.289  17.228  0.00  0.00    +0.000 HD
BRANCH   7  16
ATOM     13  C   UNL     1      11.077  11.725  19.404  0.00  0.00    +0.000 A 
ATOM     14  C   UNL     1      10.178  11.110  20.261  0.00  0.00    +0.000 A 
ATOM     15  C   UNL     1       9.110  10.376  19.751  0.00  0.00    +0.000 A 
ATOM     16  C   UNL     1       8.903  10.251  18.372  0.00  0.00    +0.000 A 
ATOM     17  C   UNL     1       9.810  10.876  17.511  0.00  0.00    +0.000 A 
ATOM     18  C   UNL     1      10.893  11.612  18.026  0.00  0.00    +0.000 A 
BRANCH  13  20
ATOM     19  C   UNL     1      12.199  13.787  19.628  0.00  0.00    +0.000 C 
ATOM     20  O   UNL     1      12.058  12.435  20.035  0.00  0.00    +0.000 OA
ENDBRANCH  13  20
ENDBRANCH   7  16
ENDBRANCH   1  10
BRANCH   4  21
ATOM     21  C   UNL     1       3.165   4.483  17.428  0.00  0.00    +0.000 C 
BRANCH  21  22
ATOM     22  C   UNL     1       2.927   4.748  18.912  0.00  0.00    +0.000 C 
BRANCH  22  23
ATOM     23  N   UNL     1       2.481   6.107  19.138  0.00  0.00    +0.000 N 
ATOM     24  C   UNL     1       1.837   6.590  20.232  0.00  0.00    +0.000 A 
ATOM     25  C   UNL     1       1.648   7.923  19.942  0.00  0.00    +0.000 A 
ATOM     26  N   UNL     1       2.183   8.191  18.706  0.00  0.00    +0.000 NA
ATOM     27  N   UNL     1       2.699   7.066  18.224  0.00  0.00    +0.000 NA
BRANCH  25  28
ATOM     28  C   UNL     1       0.998   8.894  20.798  0.00  0.00    +0.000 A 
ATOM     29  C   UNL     1       0.508   8.522  22.047  0.00  0.00    +0.000 A 
ATOM     30  C   UNL     1      -0.120   9.485  22.834  0.00  0.00    +0.000 A 
ATOM     31  C   UNL     1      -0.237  10.784  22.355  0.00  0.00    +0.000 A 
ATOM     32  C   UNL     1       0.279  11.071  21.102  0.00  0.00    +0.000 A 
ATOM     33  N   UNL     1       0.890  10.161  20.315  0.00  0.00    +0.000 NA
ENDBRANCH  25  28
ENDBRANCH  22  23
ENDBRANCH  21  22
ENDBRANCH   4  21
BRANCH   6  34
ATOM     34  C   UNL     1       6.817   5.677  19.540  0.00  0.00    +0.000 C 
BRANCH  34  35
ATOM     35  O   UNL     1       8.013   4.968  19.209  0.00  0.00    +0.000 OA
ATOM     36  H   UNL     1       8.070   4.235  19.852  0.00  0.00    +0.000 HD
ENDBRANCH  34  35
ENDBRANCH   6  34
TORSDOF 9
ENDMDL
MODEL 6
REMARK VINA RESULT:      -7.2      0.905      1.127
REMARK  Name = 
REMARK  10 active torsions:
REMARK  status: ('A' for Active; 'I' for Inactive)
REMARK    1  A    between atoms: C_1  and  O_2
REMARK    2  A    between atoms: O_2  and  C_3
REMARK    3  A    between atoms: C_6  and  N_7
REMARK    4  A    between atoms: N_10  and  C_11
REMARK    5  A    between atoms: C_14  and  C_15
REMARK    6  A    between atoms: C_15  and  C_16
REMARK    7  A    between atoms: C_16  and  N_17
REMARK    8  A    between atoms: C_19  and  C_20
REMARK    9  A    between atoms: C_29  and  C_30
REMARK   10  A    between atoms: C_30  and  O_31
REMARK                            x       y       z     vdW  Elec       q    Type
REMARK                         _______ _______ _______ _____ _____    ______ ____
ROOT
ATOM      1  C   UNL     1       1.352   8.084  20.016  0.00  0.00    +0.000 C 
ATOM      2  C   UNL     1       1.859   6.888  20.851  0.00  0.00    +0.000 C 
ATOM      3  C   UNL     1       2.050   5.650  19.987  0.00  0.00    +0.000 C 
ATOM      4  C   UNL     1       2.936   5.947  18.775  0.00  0.00    +0.000 C 
ATOM      5  O   UNL     1       2.323   6.988  17.997  0.00  0.00    +0.000 OA
ATOM      6  C   UNL     1       2.166   8.243  18.697  0.00  0.00    +0.000 C 
ENDROOT
BRANCH   1  10
ATOM      7  N   UNL     1       0.165  11.096  21.754  0.00  0.00    +0.000 N 
ATOM      8  C   UNL     1       0.091   9.914  21.061  0.00  0.00    +0.000 C 
ATOM      9  O   UNL     1      -0.943   9.386  20.659  0.00  0.00    +0.000 OA
ATOM     10  N   UNL     1       1.304   9.314  20.821  0.00  0.00    +0.000 N 
ATOM     11  H   UNL     1       1.056  11.361  22.147  0.00  0.00    +0.000 HD
ATOM     12  H   UNL     1       2.153   9.849  20.942  0.00  0.00    +0.000 HD
BRANCH   7  16
ATOM     13  C   UNL     1      -3.144  13.589  22.656  0.00  0.00    +0.000 A 
ATOM     14  C   UNL     1      -2.318  13.899  21.588  0.00  0.00    +0.000 A 
ATOM     15  C   UNL     1      -1.240  13.078  21.272  0.00  0.00    +0.000 A 
ATOM     16  C   UNL     1      -0.947  11.934  22.025  0.00  0.00    +0.000 A 
ATOM     17  C   UNL     1      -1.780  11.628  23.104  0.00  0.00    +0.000 A 
ATOM     18  C   UNL     1      -2.874  12.453  23.420  0.00  0.00    +0.000 A 
BRANCH  13  20
ATOM     19  C   UNL     1      -5.187  14.063  23.735  0.00  0.00    +0.000 C 
ATOM     20  O   UNL     1      -4.145  14.493  22.874  0.00  0.00    +0.000 OA
ENDBRANCH  13  20
ENDBRANCH   7  16
ENDBRANCH   1  10
BRANCH   4  21
ATOM     21  C   UNL     1       4.405   6.262  19.103  0.00  0.00    +0.000 C 
BRANCH  21  22
ATOM     22  C   UNL     1       5.264   5.010  19.252  0.00  0.00    +0.000 C 
BRANCH  22  23
ATOM     23  N   UNL     1       6.067   4.779  18.069  0.00  0.00    +0.000 N 
ATOM     24  C   UNL     1       5.661   4.840  16.774  0.00  0.00    +0.000 A 
ATOM     25  C   UNL     1       6.798   4.544  16.057  0.00  0.00    +0.000 A 
ATOM     26  N   UNL     1       7.834   4.326  16.932  0.00  0.00    +0.000 NA
ATOM     27  N   UNL     1       7.373   4.480  18.168  0.00  0.00    +0.000 NA
BRANCH  25  28
ATOM     28  C   UNL     1       6.898   4.478  14.613  0.00  0.00    +0.000 A 
ATOM     29  C   UNL     1       7.645   5.419  13.912  0.00  0.00    +0.000 A 
ATOM     30  C   UNL     1       7.707   5.326  12.523  0.00  0.00    +0.000 A 
ATOM     31  C   UNL     1       7.026   4.300  11.880  0.00  0.00    +0.000 A 
ATOM     32  C   UNL     1       6.306   3.404  12.652  0.00  0.00    +0.000 A 
ATOM     33  N   UNL     1       6.225   3.469  13.998  0.00  0.00    +0.000 NA
ENDBRANCH  25  28
ENDBRANCH  22  23
ENDBRANCH  21  22
ENDBRANCH   4  21
BRANCH   6  34
ATOM     34  C   UNL     1       1.467   9.217  17.736  0.00  0.00    +0.000 C 
BRANCH  34  35
ATOM     35  O   UNL     1       1.826  10.566  18.041  0.00  0.00    +0.000 OA
ATOM     36  H   UNL     1       1.267  11.122  17.466  0.00  0.00    +0.000 HD
ENDBRANCH  34  35
ENDBRANCH   6  34
TORSDOF 9
ENDMDL
MODEL 7
REMARK VINA RESULT:      -7.2      5.075      9.046
REMARK  Name = 
REMARK  10 active torsions:
REMARK  status: ('A' for Active; 'I' for Inactive)
REMARK    1  A    between atoms: C_1  and  O_2
REMARK    2  A    between atoms: O_2  and  C_3
REMARK    3  A    between atoms: C_6  and  N_7
REMARK    4  A    between atoms: N_10  and  C_11
REMARK    5  A    between atoms: C_14  and  C_15
REMARK    6  A    between atoms: C_15  and  C_16
REMARK    7  A    between atoms: C_16  and  N_17
REMARK    8  A    between atoms: C_19  and  C_20
REMARK    9  A    between atoms: C_29  and  C_30
REMARK   10  A    between atoms: C_30  and  O_31
REMARK                            x       y       z     vdW  Elec       q    Type
REMARK                         _______ _______ _______ _____ _____    ______ ____
ROOT
ATOM      1  C   UNL     1       6.580   6.346  16.856  0.00  0.00    +0.000 C 
ATOM      2  C   UNL     1       5.504   6.277  15.750  0.00  0.00    +0.000 C 
ATOM      3  C   UNL     1       5.414   4.882  15.150  0.00  0.00    +0.000 C 
ATOM      4  C   UNL     1       5.219   3.820  16.236  0.00  0.00    +0.000 C 
ATOM      5  O   UNL     1       6.327   3.883  17.148  0.00  0.00    +0.000 OA
ATOM      6  C   UNL     1       6.461   5.145  17.840  0.00  0.00    +0.000 C 
ENDROOT
BRANCH   1  10
ATOM      7  N   UNL     1       7.603   9.603  18.214  0.00  0.00    +0.000 N 
ATOM      8  C   UNL     1       7.693   8.442  17.489  0.00  0.00    +0.000 C 
ATOM      9  O   UNL     1       8.670   8.080  16.837  0.00  0.00    +0.000 OA
ATOM     10  N   UNL     1       6.567   7.653  17.530  0.00  0.00    +0.000 N 
ATOM     11  H   UNL     1       6.705   9.856  18.597  0.00  0.00    +0.000 HD
ATOM     12  H   UNL     1       5.866   7.830  18.237  0.00  0.00    +0.000 HD
BRANCH   7  16
ATOM     13  C   UNL     1      10.744  12.404  18.738  0.00  0.00    +0.000 A 
ATOM     14  C   UNL     1      10.689  11.272  19.535  0.00  0.00    +0.000 A 
ATOM     15  C   UNL     1       9.673  10.338  19.360  0.00  0.00    +0.000 A 
ATOM     16  C   UNL     1       8.675  10.516  18.395  0.00  0.00    +0.000 A 
ATOM     17  C   UNL     1       8.731  11.661  17.595  0.00  0.00    +0.000 A 
ATOM     18  C   UNL     1       9.762  12.603  17.767  0.00  0.00    +0.000 A 
BRANCH  13  20
ATOM     19  C   UNL     1      11.678  14.555  18.482  0.00  0.00    +0.000 C 
ATOM     20  O   UNL     1      11.774  13.252  19.034  0.00  0.00    +0.000 OA
ENDBRANCH  13  20
ENDBRANCH   7  16
ENDBRANCH   1  10
BRANCH   4  21
ATOM     21  C   UNL     1       3.868   3.875  16.967  0.00  0.00    +0.000 C 
BRANCH  21  22
ATOM     22  C   UNL     1       3.990   3.619  18.466  0.00  0.00    +0.000 C 
BRANCH  22  23
ATOM     23  N   UNL     1       3.248   4.601  19.229  0.00  0.00    +0.000 N 
ATOM     24  C   UNL     1       2.987   5.888  18.882  0.00  0.00    +0.000 A 
ATOM     25  C   UNL     1       2.256   6.375  19.942  0.00  0.00    +0.000 A 
ATOM     26  N   UNL     1       2.099   5.377  20.872  0.00  0.00    +0.000 NA
ATOM     27  N   UNL     1       2.709   4.287  20.419  0.00  0.00    +0.000 NA
BRANCH  25  28
ATOM     28  C   UNL     1       1.727   7.718  20.062  0.00  0.00    +0.000 A 
ATOM     29  C   UNL     1       1.189   8.161  21.267  0.00  0.00    +0.000 A 
ATOM     30  C   UNL     1       0.681   9.457  21.337  0.00  0.00    +0.000 A 
ATOM     31  C   UNL     1       0.727  10.267  20.210  0.00  0.00    +0.000 A 
ATOM     32  C   UNL     1       1.280   9.750  19.051  0.00  0.00    +0.000 A 
ATOM     33  N   UNL     1       1.778   8.499  18.950  0.00  0.00    +0.000 NA
ENDBRANCH  25  28
ENDBRANCH  22  23
ENDBRANCH  21  22
ENDBRANCH   4  21
BRANCH   6  34
ATOM     34  C   UNL     1       7.707   5.044  18.734  0.00  0.00    +0.000 C 
BRANCH  34  35
ATOM     35  O   UNL     1       7.426   5.548  20.042  0.00  0.00    +0.000 OA
ATOM     36  H   UNL     1       7.313   4.760  20.608  0.00  0.00    +0.000 HD
ENDBRANCH  34  35
ENDBRANCH   6  34
TORSDOF 9
ENDMDL
MODEL 8
REMARK VINA RESULT:      -7.1      5.020      9.007
REMARK  Name = 
REMARK  10 active torsions:
REMARK  status: ('A' for Active; 'I' for Inactive)
REMARK    1  A    between atoms: C_1  and  O_2
REMARK    2  A    between atoms: O_2  and  C_3
REMARK    3  A    between atoms: C_6  and  N_7
REMARK    4  A    between atoms: N_10  and  C_11
REMARK    5  A    between atoms: C_14  and  C_15
REMARK    6  A    between atoms: C_15  and  C_16
REMARK    7  A    between atoms: C_16  and  N_17
REMARK    8  A    between atoms: C_19  and  C_20
REMARK    9  A    between atoms: C_29  and  C_30
REMARK   10  A    between atoms: C_30  and  O_31
REMARK                            x       y       z     vdW  Elec       q    Type
REMARK                         _______ _______ _______ _____ _____    ______ ____
ROOT
ATOM      1  C   UNL     1       6.696   6.335  16.839  0.00  0.00    +0.000 C 
ATOM      2  C   UNL     1       5.669   6.230  15.691  0.00  0.00    +0.000 C 
ATOM      3  C   UNL     1       5.624   4.822  15.115  0.00  0.00    +0.000 C 
ATOM      4  C   UNL     1       5.399   3.778  16.211  0.00  0.00    +0.000 C 
ATOM      5  O   UNL     1       6.466   3.874  17.168  0.00  0.00    +0.000 OA
ATOM      6  C   UNL     1       6.553   5.150  17.841  0.00  0.00    +0.000 C 
ENDROOT
BRANCH   1  10
ATOM      7  N   UNL     1       7.615   9.632  18.176  0.00  0.00    +0.000 N 
ATOM      8  C   UNL     1       7.751   8.459  17.477  0.00  0.00    +0.000 C 
ATOM      9  O   UNL     1       8.760   8.101  16.873  0.00  0.00    +0.000 OA
ATOM     10  N   UNL     1       6.637   7.654  17.488  0.00  0.00    +0.000 N 
ATOM     11  H   UNL     1       6.698   9.878  18.517  0.00  0.00    +0.000 HD
ATOM     12  H   UNL     1       5.905   7.833  18.161  0.00  0.00    +0.000 HD
BRANCH   7  16
ATOM     13  C   UNL     1      10.809  12.347  18.817  0.00  0.00    +0.000 A 
ATOM     14  C   UNL     1       9.919  12.562  17.776  0.00  0.00    +0.000 A 
ATOM     15  C   UNL     1       8.857  11.687  17.568  0.00  0.00    +0.000 A 
ATOM     16  C   UNL     1       8.665  10.565  18.383  0.00  0.00    +0.000 A 
ATOM     17  C   UNL     1       9.567  10.349  19.428  0.00  0.00    +0.000 A 
ATOM     18  C   UNL     1      10.637  11.236  19.644  0.00  0.00    +0.000 A 
BRANCH  13  20
ATOM     19  C   UNL     1      12.260  13.797  17.652  0.00  0.00    +0.000 C 
ATOM     20  O   UNL     1      11.820  13.263  18.890  0.00  0.00    +0.000 OA
ENDBRANCH  13  20
ENDBRANCH   7  16
ENDBRANCH   1  10
BRANCH   4  21
ATOM     21  C   UNL     1       4.017   3.827  16.883  0.00  0.00    +0.000 C 
BRANCH  21  22
ATOM     22  C   UNL     1       4.084   3.658  18.398  0.00  0.00    +0.000 C 
BRANCH  22  23
ATOM     23  N   UNL     1       3.365   4.716  19.077  0.00  0.00    +0.000 N 
ATOM     24  C   UNL     1       3.074   5.953  18.597  0.00  0.00    +0.000 A 
ATOM     25  C   UNL     1       2.385   6.554  19.627  0.00  0.00    +0.000 A 
ATOM     26  N   UNL     1       2.281   5.667  20.671  0.00  0.00    +0.000 NA
ATOM     27  N   UNL     1       2.883   4.537  20.318  0.00  0.00    +0.000 NA
BRANCH  25  28
ATOM     28  C   UNL     1       1.846   7.898  19.618  0.00  0.00    +0.000 A 
ATOM     29  C   UNL     1       1.865   8.660  18.454  0.00  0.00    +0.000 A 
ATOM     30  C   UNL     1       1.346   9.953  18.491  0.00  0.00    +0.000 A 
ATOM     31  C   UNL     1       0.825  10.442  19.682  0.00  0.00    +0.000 A 
ATOM     32  C   UNL     1       0.843   9.618  20.795  0.00  0.00    +0.000 A 
ATOM     33  N   UNL     1       1.341   8.363  20.791  0.00  0.00    +0.000 NA
ENDBRANCH  25  28
ENDBRANCH  22  23
ENDBRANCH  21  22
ENDBRANCH   4  21
BRANCH   6  34
ATOM     34  C   UNL     1       7.761   5.085  18.788  0.00  0.00    +0.000 C 
BRANCH  34  35
ATOM     35  O   UNL     1       7.443   5.684  20.046  0.00  0.00    +0.000 OA
ATOM     36  H   UNL     1       6.635   5.233  20.355  0.00  0.00    +0.000 HD
ENDBRANCH  34  35
ENDBRANCH   6  34
TORSDOF 9
ENDMDL
MODEL 9
REMARK VINA RESULT:      -6.9      3.683      4.841
REMARK  Name = 
REMARK  10 active torsions:
REMARK  status: ('A' for Active; 'I' for Inactive)
REMARK    1  A    between atoms: C_1  and  O_2
REMARK    2  A    between atoms: O_2  and  C_3
REMARK    3  A    between atoms: C_6  and  N_7
REMARK    4  A    between atoms: N_10  and  C_11
REMARK    5  A    between atoms: C_14  and  C_15
REMARK    6  A    between atoms: C_15  and  C_16
REMARK    7  A    between atoms: C_16  and  N_17
REMARK    8  A    between atoms: C_19  and  C_20
REMARK    9  A    between atoms: C_29  and  C_30
REMARK   10  A    between atoms: C_30  and  O_31
REMARK                            x       y       z     vdW  Elec       q    Type
REMARK                         _______ _______ _______ _____ _____    ______ ____
ROOT
ATOM      1  C   UNL     1       2.970   6.054  18.628  0.00  0.00    +0.000 C 
ATOM      2  C   UNL     1       4.378   6.332  19.198  0.00  0.00    +0.000 C 
ATOM      3  C   UNL     1       5.011   5.066  19.755  0.00  0.00    +0.000 C 
ATOM      4  C   UNL     1       5.000   3.937  18.721  0.00  0.00    +0.000 C 
ATOM      5  O   UNL     1       3.641   3.670  18.341  0.00  0.00    +0.000 OA
ATOM      6  C   UNL     1       2.963   4.787  17.722  0.00  0.00    +0.000 C 
ENDROOT
BRANCH   1  10
ATOM      7  N   UNL     1       1.241   9.234  17.995  0.00  0.00    +0.000 N 
ATOM      8  C   UNL     1       1.786   8.204  18.719  0.00  0.00    +0.000 C 
ATOM      9  O   UNL     1       1.746   8.091  19.942  0.00  0.00    +0.000 OA
ATOM     10  N   UNL     1       2.419   7.245  17.964  0.00  0.00    +0.000 N 
ATOM     11  H   UNL     1       1.454   9.287  17.010  0.00  0.00    +0.000 HD
ATOM     12  H   UNL     1       2.256   7.215  16.967  0.00  0.00    +0.000 HD
BRANCH   7  16
ATOM     13  C   UNL     1      -1.162  12.289  19.690  0.00  0.00    +0.000 A 
ATOM     14  C   UNL     1       0.214  12.326  19.849  0.00  0.00    +0.000 A 
ATOM     15  C   UNL     1       1.013  11.338  19.282  0.00  0.00    +0.000 A 
ATOM     16  C   UNL     1       0.459  10.278  18.555  0.00  0.00    +0.000 A 
ATOM     17  C   UNL     1      -0.930  10.242  18.400  0.00  0.00    +0.000 A 
ATOM     18  C   UNL     1      -1.738  11.243  18.968  0.00  0.00    +0.000 A 
BRANCH  13  20
ATOM     19  C   UNL     1      -3.173  13.024  20.680  0.00  0.00    +0.000 C 
ATOM     20  O   UNL     1      -1.828  13.301  20.322  0.00  0.00    +0.000 OA
ENDBRANCH  13  20
ENDBRANCH   7  16
ENDBRANCH   1  10
BRANCH   4  21
ATOM     21  C   UNL     1       5.906   4.163  17.500  0.00  0.00    +0.000 C 
BRANCH  21  22
ATOM     22  C   UNL     1       7.301   4.656  17.876  0.00  0.00    +0.000 C 
BRANCH  22  23
ATOM     23  N   UNL     1       7.418   6.088  17.699  0.00  0.00    +0.000 N 
ATOM     24  C   UNL     1       8.146   6.953  18.452  0.00  0.00    +0.000 A 
ATOM     25  C   UNL     1       7.915   8.177  17.866  0.00  0.00    +0.000 A 
ATOM     26  N   UNL     1       7.075   8.007  16.792  0.00  0.00    +0.000 NA
ATOM     27  N   UNL     1       6.781   6.715  16.696  0.00  0.00    +0.000 NA
BRANCH  25  28
ATOM     28  C   UNL     1       8.470   9.444  18.297  0.00  0.00    +0.000 A 
ATOM     29  C   UNL     1       8.308  10.589  17.522  0.00  0.00    +0.000 A 
ATOM     30  C   UNL     1       8.866  11.784  17.968  0.00  0.00    +0.000 A 
ATOM     31  C   UNL     1       9.564  11.802  19.169  0.00  0.00    +0.000 A 
ATOM     32  C   UNL     1       9.678  10.620  19.881  0.00  0.00    +0.000 A 
ATOM     33  N   UNL     1       9.151   9.446  19.474  0.00  0.00    +0.000 NA
ENDBRANCH  25  28
ENDBRANCH  22  23
ENDBRANCH  21  22
ENDBRANCH   4  21
BRANCH   6  34
ATOM     34  C   UNL     1       1.526   4.337  17.420  0.00  0.00    +0.000 C 
BRANCH  34  35
ATOM     35  O   UNL     1       1.290   3.028  17.944  0.00  0.00    +0.000 OA
ATOM     36  H   UNL     1       2.017   2.474  17.601  0.00  0.00    +0.000 HD
ENDBRANCH  34  35
ENDBRANCH   6  34
TORSDOF 9
ENDMDL
