MODEL 1
REMARK VINA RESULT:      -7.2      0.000      0.000
REMARK  Name = 
REMARK  6 active torsions:
REMARK  status: ('A' for Active; 'I' for Inactive)
REMARK    1  A    between atoms: C_1  and  C_2
REMARK    2  A    between atoms: C_2  and  C_4
REMARK    3  A    between atoms: C_4  and  O_5
REMARK    4  A    between atoms: C_4  and  C_6
REMARK    5  A    between atoms: C_4  and  C_16
REMARK    6  A    between atoms: C_7  and  C_8
REMARK                            x       y       z     vdW  Elec       q    Type
REMARK                         _______ _______ _______ _____ _____    ______ ____
ROOT
ATOM      1  C   UNL     1       5.662   4.749  17.884  0.00  0.00    +0.000 C 
ENDROOT
BRANCH   1   2
ATOM      2  C   UNL     1       5.419   4.212  16.445  0.00  0.00    +0.000 C 
ATOM      3  F   UNL     1       6.521   3.655  15.892  0.00  0.00    +0.000 F 
ATOM      4  F   UNL     1       4.449   3.264  16.415  0.00  0.00    +0.000 F 
ATOM      5  F   UNL     1       5.014   5.197  15.600  0.00  0.00    +0.000 F 
ENDBRANCH   1   2
BRANCH   1   7
ATOM      6  C   UNL     1       7.411   6.671  17.524  0.00  0.00    +0.000 C 
ATOM      7  C   UNL     1       7.126   5.249  17.950  0.00  0.00    +0.000 C 
ATOM      8  O   UNL     1       8.063   4.527  18.326  0.00  0.00    +0.000 OA
ENDBRANCH   1   7
BRANCH   1   9
ATOM      9  O   UNL     1       5.469   3.714  18.868  0.00  0.00    +0.000 OA
ATOM     10  H   UNL     1       4.528   3.482  18.902  0.00  0.00    +0.000 HD
ENDBRANCH   1   9
BRANCH   1  11
ATOM     11  C   UNL     1       4.738   5.927  18.201  0.00  0.00    +0.000 C 
ATOM     12  C   UNL     1       3.416   5.902  18.417  0.00  0.00    +0.000 C 
BRANCH  12  13
ATOM     13  C   UNL     1       2.663   7.120  18.713  0.00  0.00    +0.000 A 
ATOM     14  C   UNL     1       2.500   8.093  17.723  0.00  0.00    +0.000 A 
ATOM     15  C   UNL     1       1.784   9.260  17.998  0.00  0.00    +0.000 A 
ATOM     16  C   UNL     1       1.224   9.459  19.263  0.00  0.00    +0.000 A 
ATOM     17 CL   UNL     1       0.351  10.926  19.534  0.00  0.00    +0.000 Cl
ATOM     18  C   UNL     1       1.384   8.485  20.255  0.00  0.00    +0.000 A 
ATOM     19 CL   UNL     1       0.723   8.663  21.842  0.00  0.00    +0.000 Cl
ATOM     20  C   UNL     1       2.102   7.316  19.979  0.00  0.00    +0.000 A 
ENDBRANCH  12  13
ENDBRANCH   1  11
TORSDOF 5
ENDMDL
MODEL 2
REMARK VINA RESULT:      -7.2      0.622      1.055
REMARK  Name = 
REMARK  6 active torsions:
REMARK  status: ('A' for Active; 'I' for Inactive)
REMARK    1  A    between atoms: C_1  and  C_2
REMARK    2  A    between atoms: C_2  and  C_4
REMARK    3  A    between atoms: C_4  and  O_5
REMARK    4  A    between atoms: C_4  and  C_6
REMARK    5  A    between atoms: C_4  and  C_16
REMARK    6  A    between atoms: C_7  and  C_8
REMARK                            x       y       z     vdW  Elec       q    Type
REMARK                         _______ _______ _______ _____ _____    ______ ____
ROOT
ATOM      1  C   UNL     1       5.669   5.019  17.327  0.00  0.00    +0.000 C 
ENDROOT
BRANCH   1   2
ATOM      2  C   UNL     1       5.732   4.892  15.779  0.00  0.00    +0.000 C 
ATOM      3  F   UNL     1       4.845   3.999  15.282  0.00  0.00    +0.000 F 
ATOM      4  F   UNL     1       5.477   6.074  15.163  0.00  0.00    +0.000 F 
ATOM      5  F   UNL     1       6.962   4.499  15.353  0.00  0.00    +0.000 F 
ENDBRANCH   1   2
BRANCH   1   7
ATOM      6  C   UNL     1       7.539   6.807  17.763  0.00  0.00    +0.000 C 
ATOM      7  C   UNL     1       7.096   5.363  17.821  0.00  0.00    +0.000 C 
ATOM      8  O   UNL     1       7.882   4.503  18.248  0.00  0.00    +0.000 OA
ENDBRANCH   1   7
BRANCH   1   9
ATOM      9  O   UNL     1       5.241   3.786  17.937  0.00  0.00    +0.000 OA
ATOM     10  H   UNL     1       4.364   3.552  17.596  0.00  0.00    +0.000 HD
ENDBRANCH   1   9
BRANCH   1  11
ATOM     11  C   UNL     1       4.728   6.148  17.755  0.00  0.00    +0.000 C 
ATOM     12  C   UNL     1       3.449   6.051  18.143  0.00  0.00    +0.000 C 
BRANCH  12  13
ATOM     13  C   UNL     1       2.672   7.229  18.526  0.00  0.00    +0.000 A 
ATOM     14  C   UNL     1       2.438   8.241  17.592  0.00  0.00    +0.000 A 
ATOM     15  C   UNL     1       1.698   9.370  17.950  0.00  0.00    +0.000 A 
ATOM     16  C   UNL     1       1.187   9.492  19.246  0.00  0.00    +0.000 A 
ATOM     17 CL   UNL     1       0.282  10.916  19.621  0.00  0.00    +0.000 Cl
ATOM     18  C   UNL     1       1.419   8.480  20.183  0.00  0.00    +0.000 A 
ATOM     19 CL   UNL     1       0.821   8.563  21.803  0.00  0.00    +0.000 Cl
ATOM     20  C   UNL     1       2.161   7.349  19.822  0.00  0.00    +0.000 A 
ENDBRANCH  12  13
ENDBRANCH   1  11
TORSDOF 5
ENDMDL
MODEL 3
REMARK VINA RESULT:      -7.0      1.093      1.867
REMARK  Name = 
REMARK  6 active torsions:
REMARK  status: ('A' for Active; 'I' for Inactive)
REMARK    1  A    between atoms: C_1  and  C_2
REMARK    2  A    between atoms: C_2  and  C_4
REMARK    3  A    between atoms: C_4  and  O_5
REMARK    4  A    between atoms: C_4  and  C_6
REMARK    5  A    between atoms: C_4  and  C_16
REMARK    6  A    between atoms: C_7  and  C_8
REMARK                            x       y       z     vdW  Elec       q    Type
REMARK                         _______ _______ _______ _____ _____    ______ ____
ROOT
ATOM      1  C   UNL     1       5.835   4.825  16.948  0.00  0.00    +0.000 C 
ENDROOT
BRANCH   1   2
ATOM      2  C   UNL     1       5.782   5.177  15.435  0.00  0.00    +0.000 C 
ATOM      3  F   UNL     1       6.997   5.156  14.841  0.00  0.00    +0.000 F 
ATOM      4  F   UNL     1       4.996   4.316  14.741  0.00  0.00    +0.000 F 
ATOM      5  F   UNL     1       5.266   6.417  15.223  0.00  0.00    +0.000 F 
ENDBRANCH   1   2
BRANCH   1   7
ATOM      6  C   UNL     1       7.678   6.474  17.825  0.00  0.00    +0.000 C 
ATOM      7  C   UNL     1       7.287   5.068  17.429  0.00  0.00    +0.000 C 
ATOM      8  O   UNL     1       8.132   4.162  17.490  0.00  0.00    +0.000 OA
ENDBRANCH   1   7
BRANCH   1   9
ATOM      9  O   UNL     1       5.485   3.446  17.177  0.00  0.00    +0.000 OA
ATOM     10  H   UNL     1       5.632   3.234  18.112  0.00  0.00    +0.000 HD
ENDBRANCH   1   9
BRANCH   1  11
ATOM     11  C   UNL     1       4.903   5.726  17.762  0.00  0.00    +0.000 C 
ATOM     12  C   UNL     1       3.567   5.806  17.693  0.00  0.00    +0.000 C 
BRANCH  12  13
ATOM     13  C   UNL     1       2.807   6.721  18.543  0.00  0.00    +0.000 A 
ATOM     14  C   UNL     1       2.488   6.350  19.852  0.00  0.00    +0.000 A 
ATOM     15  C   UNL     1       1.762   7.218  20.670  0.00  0.00    +0.000 A 
ATOM     16  C   UNL     1       1.352   8.463  20.183  0.00  0.00    +0.000 A 
ATOM     17 CL   UNL     1       0.456   9.486  21.249  0.00  0.00    +0.000 Cl
ATOM     18  C   UNL     1       1.672   8.838  18.874  0.00  0.00    +0.000 A 
ATOM     19 CL   UNL     1       1.197  10.358  18.203  0.00  0.00    +0.000 Cl
ATOM     20  C   UNL     1       2.400   7.967  18.055  0.00  0.00    +0.000 A 
ENDBRANCH  12  13
ENDBRANCH   1  11
TORSDOF 5
ENDMDL
MODEL 4
REMARK VINA RESULT:      -6.8      1.030      1.965
REMARK  Name = 
REMARK  6 active torsions:
REMARK  status: ('A' for Active; 'I' for Inactive)
REMARK    1  A    between atoms: C_1  and  C_2
REMARK    2  A    between atoms: C_2  and  C_4
REMARK    3  A    between atoms: C_4  and  O_5
REMARK    4  A    between atoms: C_4  and  C_6
REMARK    5  A    between atoms: C_4  and  C_16
REMARK    6  A    between atoms: C_7  and  C_8
REMARK                            x       y       z     vdW  Elec       q    Type
REMARK                         _______ _______ _______ _____ _____    ______ ____
ROOT
ATOM      1  C   UNL     1       5.915   4.986  17.302  0.00  0.00    +0.000 C 
ENDROOT
BRANCH   1   2
ATOM      2  C   UNL     1       5.283   4.293  16.063  0.00  0.00    +0.000 C 
ATOM      3  F   UNL     1       5.055   5.144  15.036  0.00  0.00    +0.000 F 
ATOM      4  F   UNL     1       6.074   3.303  15.577  0.00  0.00    +0.000 F 
ATOM      5  F   UNL     1       4.090   3.713  16.362  0.00  0.00    +0.000 F 
ENDBRANCH   1   2
BRANCH   1   7
ATOM      6  C   UNL     1       7.390   7.124  17.673  0.00  0.00    +0.000 C 
ATOM      7  C   UNL     1       6.993   5.969  16.783  0.00  0.00    +0.000 C 
ATOM      8  O   UNL     1       7.528   5.847  15.670  0.00  0.00    +0.000 OA
ENDBRANCH   1   7
BRANCH   1   9
ATOM      9  O   UNL     1       6.532   4.026  18.181  0.00  0.00    +0.000 OA
ATOM     10  H   UNL     1       6.945   3.329  17.648  0.00  0.00    +0.000 HD
ENDBRANCH   1   9
BRANCH   1  11
ATOM     11  C   UNL     1       4.871   5.788  18.083  0.00  0.00    +0.000 C 
ATOM     12  C   UNL     1       3.855   6.513  17.595  0.00  0.00    +0.000 C 
BRANCH  12  13
ATOM     13  C   UNL     1       2.931   7.230  18.473  0.00  0.00    +0.000 A 
ATOM     14  C   UNL     1       2.577   6.678  19.707  0.00  0.00    +0.000 A 
ATOM     15  C   UNL     1       1.694   7.355  20.551  0.00  0.00    +0.000 A 
ATOM     16  C   UNL     1       1.163   8.590  20.166  0.00  0.00    +0.000 A 
ATOM     17 CL   UNL     1       0.076   9.372  21.259  0.00  0.00    +0.000 Cl
ATOM     18  C   UNL     1       1.517   9.145  18.932  0.00  0.00    +0.000 A 
ATOM     19 CL   UNL     1       0.898  10.665  18.388  0.00  0.00    +0.000 Cl
ATOM     20  C   UNL     1       2.402   8.465  18.087  0.00  0.00    +0.000 A 
ENDBRANCH  12  13
ENDBRANCH   1  11
TORSDOF 5
ENDMDL
MODEL 5
REMARK VINA RESULT:      -6.8      1.234      2.153
REMARK  Name = 
REMARK  6 active torsions:
REMARK  status: ('A' for Active; 'I' for Inactive)
REMARK    1  A    between atoms: C_1  and  C_2
REMARK    2  A    between atoms: C_2  and  C_4
REMARK    3  A    between atoms: C_4  and  O_5
REMARK    4  A    between atoms: C_4  and  C_6
REMARK    5  A    between atoms: C_4  and  C_16
REMARK    6  A    between atoms: C_7  and  C_8
REMARK                            x       y       z     vdW  Elec       q    Type
REMARK                         _______ _______ _______ _____ _____    ______ ____
ROOT
ATOM      1  C   UNL     1       5.984   4.715  17.052  0.00  0.00    +0.000 C 
ENDROOT
BRANCH   1   2
ATOM      2  C   UNL     1       6.259   5.053  15.560  0.00  0.00    +0.000 C 
ATOM      3  F   UNL     1       5.243   5.724  14.971  0.00  0.00    +0.000 F 
ATOM      4  F   UNL     1       7.369   5.820  15.411  0.00  0.00    +0.000 F 
ATOM      5  F   UNL     1       6.470   3.932  14.819  0.00  0.00    +0.000 F 
ENDBRANCH   1   2
BRANCH   1   7
ATOM      6  C   UNL     1       7.494   5.982  18.783  0.00  0.00    +0.000 C 
ATOM      7  C   UNL     1       7.328   4.837  17.810  0.00  0.00    +0.000 C 
ATOM      8  O   UNL     1       8.267   4.043  17.640  0.00  0.00    +0.000 OA
ENDBRANCH   1   7
BRANCH   1   9
ATOM      9  O   UNL     1       5.476   3.374  17.201  0.00  0.00    +0.000 OA
ATOM     10  H   UNL     1       4.590   3.413  17.592  0.00  0.00    +0.000 HD
ENDBRANCH   1   9
BRANCH   1  11
ATOM     11  C   UNL     1       4.992   5.702  17.672  0.00  0.00    +0.000 C 
ATOM     12  C   UNL     1       3.842   5.428  18.303  0.00  0.00    +0.000 C 
BRANCH  12  13
ATOM     13  C   UNL     1       2.994   6.488  18.848  0.00  0.00    +0.000 A 
ATOM     14  C   UNL     1       2.382   6.316  20.093  0.00  0.00    +0.000 A 
ATOM     15  C   UNL     1       1.569   7.322  20.619  0.00  0.00    +0.000 A 
ATOM     16  C   UNL     1       1.366   8.506  19.906  0.00  0.00    +0.000 A 
ATOM     17 CL   UNL     1       0.348   9.708  20.617  0.00  0.00    +0.000 Cl
ATOM     18  C   UNL     1       1.979   8.682  18.660  0.00  0.00    +0.000 A 
ATOM     19 CL   UNL     1       1.772  10.117  17.720  0.00  0.00    +0.000 Cl
ATOM     20  C   UNL     1       2.793   7.673  18.133  0.00  0.00    +0.000 A 
ENDBRANCH  12  13
ENDBRANCH   1  11
TORSDOF 5
ENDMDL
MODEL 6
REMARK VINA RESULT:      -6.7      3.316      4.002
REMARK  Name = 
REMARK  6 active torsions:
REMARK  status: ('A' for Active; 'I' for Inactive)
REMARK    1  A    between atoms: C_1  and  C_2
REMARK    2  A    between atoms: C_2  and  C_4
REMARK    3  A    between atoms: C_4  and  O_5
REMARK    4  A    between atoms: C_4  and  C_6
REMARK    5  A    between atoms: C_4  and  C_16
REMARK    6  A    between atoms: C_7  and  C_8
REMARK                            x       y       z     vdW  Elec       q    Type
REMARK                         _______ _______ _______ _____ _____    ______ ____
ROOT
ATOM      1  C   UNL     1       2.943   3.830  19.671  0.00  0.00    +0.000 C 
ENDROOT
BRANCH   1   2
ATOM      2  C   UNL     1       2.496   3.111  20.975  0.00  0.00    +0.000 C 
ATOM      3  F   UNL     1       1.352   2.405  20.827  0.00  0.00    +0.000 F 
ATOM      4  F   UNL     1       3.435   2.239  21.420  0.00  0.00    +0.000 F 
ATOM      5  F   UNL     1       2.283   3.991  21.990  0.00  0.00    +0.000 F 
ENDBRANCH   1   2
BRANCH   1   7
ATOM      6  C   UNL     1       3.156   1.801  18.022  0.00  0.00    +0.000 C 
ATOM      7  C   UNL     1       2.383   3.017  18.479  0.00  0.00    +0.000 C 
ATOM      8  O   UNL     1       1.338   3.331  17.887  0.00  0.00    +0.000 OA
ENDBRANCH   1   7
BRANCH   1   9
ATOM      9  O   UNL     1       4.379   3.890  19.572  0.00  0.00    +0.000 OA
ATOM     10  H   UNL     1       4.768   3.460  20.350  0.00  0.00    +0.000 HD
ENDBRANCH   1   9
BRANCH   1  11
ATOM     11  C   UNL     1       2.371   5.248  19.595  0.00  0.00    +0.000 C 
ATOM     12  C   UNL     1       2.939   6.337  19.059  0.00  0.00    +0.000 C 
BRANCH  12  13
ATOM     13  C   UNL     1       2.264   7.634  19.059  0.00  0.00    +0.000 A 
ATOM     14  C   UNL     1       2.308   8.441  17.918  0.00  0.00    +0.000 A 
ATOM     15  C   UNL     1       1.668   9.681  17.911  0.00  0.00    +0.000 A 
ATOM     16  C   UNL     1       0.977  10.122  19.044  0.00  0.00    +0.000 A 
ATOM     17 CL   UNL     1       0.209  11.668  18.966  0.00  0.00    +0.000 Cl
ATOM     18  C   UNL     1       0.930   9.316  20.187  0.00  0.00    +0.000 A 
ATOM     19 CL   UNL     1       0.099   9.795  21.625  0.00  0.00    +0.000 Cl
ATOM     20  C   UNL     1       1.573   8.073  20.193  0.00  0.00    +0.000 A 
ENDBRANCH  12  13
ENDBRANCH   1  11
TORSDOF 5
ENDMDL
MODEL 7
REMARK VINA RESULT:      -6.7      0.701      1.613
REMARK  Name = 
REMARK  6 active torsions:
REMARK  status: ('A' for Active; 'I' for Inactive)
REMARK    1  A    between atoms: C_1  and  C_2
REMARK    2  A    between atoms: C_2  and  C_4
REMARK    3  A    between atoms: C_4  and  O_5
REMARK    4  A    between atoms: C_4  and  C_6
REMARK    5  A    between atoms: C_4  and  C_16
REMARK    6  A    between atoms: C_7  and  C_8
REMARK                            x       y       z     vdW  Elec       q    Type
REMARK                         _______ _______ _______ _____ _____    ______ ____
ROOT
ATOM      1  C   UNL     1       5.482   4.528  17.953  0.00  0.00    +0.000 C 
ENDROOT
BRANCH   1   2
ATOM      2  C   UNL     1       5.084   4.254  16.475  0.00  0.00    +0.000 C 
ATOM      3  F   UNL     1       5.958   3.448  15.830  0.00  0.00    +0.000 F 
ATOM      4  F   UNL     1       3.867   3.662  16.379  0.00  0.00    +0.000 F 
ATOM      5  F   UNL     1       5.006   5.403  15.752  0.00  0.00    +0.000 F 
ENDBRANCH   1   2
BRANCH   1   7
ATOM      6  C   UNL     1       7.076   6.599  17.725  0.00  0.00    +0.000 C 
ATOM      7  C   UNL     1       6.915   5.113  17.945  0.00  0.00    +0.000 C 
ATOM      8  O   UNL     1       7.926   4.408  18.102  0.00  0.00    +0.000 OA
ENDBRANCH   1   7
BRANCH   1   9
ATOM      9  O   UNL     1       5.468   3.316  18.732  0.00  0.00    +0.000 OA
ATOM     10  H   UNL     1       5.574   2.557  18.138  0.00  0.00    +0.000 HD
ENDBRANCH   1   9
BRANCH   1  11
ATOM     11  C   UNL     1       4.549   5.555  18.598  0.00  0.00    +0.000 C 
ATOM     12  C   UNL     1       3.402   6.047  18.110  0.00  0.00    +0.000 C 
BRANCH  12  13
ATOM     13  C   UNL     1       2.612   7.031  18.850  0.00  0.00    +0.000 A 
ATOM     14  C   UNL     1       2.220   6.761  20.164  0.00  0.00    +0.000 A 
ATOM     15  C   UNL     1       1.464   7.695  20.876  0.00  0.00    +0.000 A 
ATOM     16  C   UNL     1       1.098   8.905  20.279  0.00  0.00    +0.000 A 
ATOM     17 CL   UNL     1       0.162  10.013  21.218  0.00  0.00    +0.000 Cl
ATOM     18  C   UNL     1       1.491   9.178  18.964  0.00  0.00    +0.000 A 
ATOM     19 CL   UNL     1       1.074  10.650  18.160  0.00  0.00    +0.000 Cl
ATOM     20  C   UNL     1       2.248   8.242  18.251  0.00  0.00    +0.000 A 
ENDBRANCH  12  13
ENDBRANCH   1  11
TORSDOF 5
ENDMDL
MODEL 8
REMARK VINA RESULT:      -6.7      5.040      6.661
REMARK  Name = 
REMARK  6 active torsions:
REMARK  status: ('A' for Active; 'I' for Inactive)
REMARK    1  A    between atoms: C_1  and  C_2
REMARK    2  A    between atoms: C_2  and  C_4
REMARK    3  A    between atoms: C_4  and  O_5
REMARK    4  A    between atoms: C_4  and  C_6
REMARK    5  A    between atoms: C_4  and  C_16
REMARK    6  A    between atoms: C_7  and  C_8
REMARK                            x       y       z     vdW  Elec       q    Type
REMARK                         _______ _______ _______ _____ _____    ______ ____
ROOT
ATOM      1  C   UNL     1       2.380   3.629  18.415  0.00  0.00    +0.000 C 
ENDROOT
BRANCH   1   2
ATOM      2  C   UNL     1       2.683   2.222  19.003  0.00  0.00    +0.000 C 
ATOM      3  F   UNL     1       3.637   2.241  19.962  0.00  0.00    +0.000 F 
ATOM      4  F   UNL     1       1.582   1.660  19.564  0.00  0.00    +0.000 F 
ATOM      5  F   UNL     1       3.107   1.355  18.046  0.00  0.00    +0.000 F 
ENDBRANCH   1   2
BRANCH   1   7
ATOM      6  C   UNL     1       1.368   4.723  20.575  0.00  0.00    +0.000 C 
ATOM      7  C   UNL     1       2.498   4.650  19.573  0.00  0.00    +0.000 C 
ATOM      8  O   UNL     1       3.473   5.408  19.700  0.00  0.00    +0.000 OA
ENDBRANCH   1   7
BRANCH   1   9
ATOM      9  O   UNL     1       1.050   3.690  17.863  0.00  0.00    +0.000 OA
ATOM     10  H   UNL     1       0.408   3.721  18.588  0.00  0.00    +0.000 HD
ENDBRANCH   1   9
BRANCH   1  11
ATOM     11  C   UNL     1       3.394   4.010  17.334  0.00  0.00    +0.000 C 
ATOM     12  C   UNL     1       4.666   3.603  17.218  0.00  0.00    +0.000 C 
BRANCH  12  13
ATOM     13  C   UNL     1       5.520   4.056  16.121  0.00  0.00    +0.000 A 
ATOM     14  C   UNL     1       6.522   4.999  16.365  0.00  0.00    +0.000 A 
ATOM     15  C   UNL     1       7.341   5.438  15.323  0.00  0.00    +0.000 A 
ATOM     16  C   UNL     1       7.164   4.935  14.031  0.00  0.00    +0.000 A 
ATOM     17 CL   UNL     1       8.212   5.523  12.789  0.00  0.00    +0.000 Cl
ATOM     18  C   UNL     1       6.162   3.990  13.784  0.00  0.00    +0.000 A 
ATOM     19 CL   UNL     1       5.881   3.326  12.213  0.00  0.00    +0.000 Cl
ATOM     20  C   UNL     1       5.341   3.551  14.829  0.00  0.00    +0.000 A 
ENDBRANCH  12  13
ENDBRANCH   1  11
TORSDOF 5
ENDMDL
MODEL 9
REMARK VINA RESULT:      -6.6      2.138      2.753
REMARK  Name = 
REMARK  6 active torsions:
REMARK  status: ('A' for Active; 'I' for Inactive)
REMARK    1  A    between atoms: C_1  and  C_2
REMARK    2  A    between atoms: C_2  and  C_4
REMARK    3  A    between atoms: C_4  and  O_5
REMARK    4  A    between atoms: C_4  and  C_6
REMARK    5  A    between atoms: C_4  and  C_16
REMARK    6  A    between atoms: C_7  and  C_8
REMARK                            x       y       z     vdW  Elec       q    Type
REMARK                         _______ _______ _______ _____ _____    ______ ____
ROOT
ATOM      1  C   UNL     1       2.882   3.389  19.222  0.00  0.00    +0.000 C 
ENDROOT
BRANCH   1   2
ATOM      2  C   UNL     1       2.345   2.502  18.064  0.00  0.00    +0.000 C 
ATOM      3  F   UNL     1       3.158   1.460  17.771  0.00  0.00    +0.000 F 
ATOM      4  F   UNL     1       1.128   1.974  18.351  0.00  0.00    +0.000 F 
ATOM      5  F   UNL     1       2.190   3.211  16.914  0.00  0.00    +0.000 F 
ENDBRANCH   1   2
BRANCH   1   7
ATOM      6  C   UNL     1       5.096   4.189  18.064  0.00  0.00    +0.000 C 
ATOM      7  C   UNL     1       4.428   3.367  19.143  0.00  0.00    +0.000 C 
ATOM      8  O   UNL     1       5.128   2.699  19.920  0.00  0.00    +0.000 OA
ENDBRANCH   1   7
BRANCH   1   9
ATOM      9  O   UNL     1       2.465   2.882  20.505  0.00  0.00    +0.000 OA
ATOM     10  H   UNL     1       2.056   2.012  20.384  0.00  0.00    +0.000 HD
ENDBRANCH   1   9
BRANCH   1  11
ATOM     11  C   UNL     1       2.414   4.839  19.075  0.00  0.00    +0.000 C 
ATOM     12  C   UNL     1       2.676   5.875  19.883  0.00  0.00    +0.000 C 
BRANCH  12  13
ATOM     13  C   UNL     1       2.155   7.214  19.608  0.00  0.00    +0.000 A 
ATOM     14  C   UNL     1       2.314   7.773  18.338  0.00  0.00    +0.000 A 
ATOM     15  C   UNL     1       1.822   9.052  18.068  0.00  0.00    +0.000 A 
ATOM     16  C   UNL     1       1.165   9.777  19.067  0.00  0.00    +0.000 A 
ATOM     17 CL   UNL     1       0.582  11.353  18.664  0.00  0.00    +0.000 Cl
ATOM     18  C   UNL     1       1.003   9.218  20.339  0.00  0.00    +0.000 A 
ATOM     19 CL   UNL     1       0.206  10.055  21.624  0.00  0.00    +0.000 Cl
ATOM     20  C   UNL     1       1.498   7.937  20.609  0.00  0.00    +0.000 A 
ENDBRANCH  12  13
ENDBRANCH   1  11
TORSDOF 5
ENDMDL
