MODEL 1
REMARK VINA RESULT:      -8.7      0.000      0.000
REMARK  Name = 
REMARK  8 active torsions:
REMARK  status: ('A' for Active; 'I' for Inactive)
REMARK    1  A    between atoms: C_2  and  C_10
REMARK    2  A    between atoms: N_3  and  C_4
REMARK    3  A    between atoms: C_4  and  C_5
REMARK    4  A    between atoms: C_13  and  C_14
REMARK    5  A    between atoms: C_14  and  S_15
REMARK    6  A    between atoms: S_15  and  C_16
REMARK    7  A    between atoms: N_24  and  C_25
REMARK    8  A    between atoms: C_25  and  C_26
REMARK                            x       y       z     vdW  Elec       q    Type
REMARK                         _______ _______ _______ _____ _____    ______ ____
ROOT
ATOM      1  S   UNL     1       2.375   7.666  18.072  0.00  0.00    +0.000 S 
ENDROOT
BRANCH   1   2
ATOM      2  C   UNL     1       2.463   6.196  18.987  0.00  0.00    +0.000 A 
ATOM      3  N   UNL     1       1.771   5.906  20.069  0.00  0.00    +0.000 NA
ATOM      4  C   UNL     1       2.219   4.658  20.450  0.00  0.00    +0.000 A 
ATOM      5  C   UNL     1       1.858   3.823  21.515  0.00  0.00    +0.000 A 
ATOM      6  C   UNL     1       2.513   2.589  21.619  0.00  0.00    +0.000 A 
ATOM      7  C   UNL     1       3.486   2.260  20.682  0.00  0.00    +0.000 A 
ATOM      8  N   UNL     1       3.874   3.029  19.639  0.00  0.00    +0.000 NA
ATOM      9  C   UNL     1       3.201   4.198  19.580  0.00  0.00    +0.000 A 
ATOM     10  N   UNL     1       3.326   5.186  18.635  0.00  0.00    +0.000 N 
BRANCH  10  11
ATOM     11  C   UNL     1       4.235   5.124  17.502  0.00  0.00    +0.000 C 
BRANCH  11  12
ATOM     12  C   UNL     1       5.567   5.757  17.813  0.00  0.00    +0.000 A 
ATOM     13  C   UNL     1       6.350   5.315  18.891  0.00  0.00    +0.000 A 
ATOM     14  C   UNL     1       7.581   5.914  19.171  0.00  0.00    +0.000 A 
ATOM     15  C   UNL     1       8.044   6.966  18.382  0.00  0.00    +0.000 A 
ATOM     16  C   UNL     1       7.272   7.422  17.316  0.00  0.00    +0.000 A 
ATOM     17  C   UNL     1       6.046   6.821  17.043  0.00  0.00    +0.000 A 
ATOM     18  F   UNL     1       5.316   7.293  16.023  0.00  0.00    +0.000 F 
ENDBRANCH  11  12
ENDBRANCH  10  11
ENDBRANCH   1   2
BRANCH   1  19
ATOM     19  C   UNL     1       2.054   8.936  19.325  0.00  0.00    +0.000 C 
BRANCH  19  23
ATOM     20  C   UNL     1      -1.794  10.844  18.631  0.00  0.00    +0.000 A 
ATOM     21  C   UNL     1      -1.158  10.968  19.868  0.00  0.00    +0.000 A 
ATOM     22  C   UNL     1       0.087  10.359  20.083  0.00  0.00    +0.000 A 
ATOM     23  C   UNL     1       0.716   9.608  19.075  0.00  0.00    +0.000 A 
ATOM     24  C   UNL     1       0.077   9.500  17.832  0.00  0.00    +0.000 A 
ATOM     25  C   UNL     1      -1.162  10.115  17.612  0.00  0.00    +0.000 A 
BRANCH  20  27
ATOM     26  O   UNL     1      -3.579  11.393  17.193  0.00  0.00    +0.000 OA
ATOM     27  C   UNL     1      -3.108  11.482  18.324  0.00  0.00    +0.000 C 
ATOM     28  N   UNL     1      -3.757  12.138  19.350  0.00  0.00    +0.000 N 
ATOM     29  H   UNL     1      -3.344  12.212  20.267  0.00  0.00    +0.000 HD
BRANCH  28  30
ATOM     30  C   UNL     1      -4.997  12.844  19.111  0.00  0.00    +0.000 C 
BRANCH  30  31
ATOM     31  C   UNL     1      -6.101  12.187  19.879  0.00  0.00    +0.000 A 
ATOM     32  C   UNL     1      -6.665  12.596  21.073  0.00  0.00    +0.000 A 
ATOM     33  C   UNL     1      -7.646  11.681  21.554  0.00  0.00    +0.000 A 
ATOM     34  C   UNL     1      -7.813  10.612  20.703  0.00  0.00    +0.000 A 
ATOM     35  S   UNL     1      -6.800  10.722  19.329  0.00  0.00    +0.000 S 
ENDBRANCH  30  31
ENDBRANCH  28  30
ENDBRANCH  20  27
ENDBRANCH  19  23
ENDBRANCH   1  19
TORSDOF 8
ENDMDL
MODEL 2
REMARK VINA RESULT:      -8.6      2.086      4.030
REMARK  Name = 
REMARK  8 active torsions:
REMARK  status: ('A' for Active; 'I' for Inactive)
REMARK    1  A    between atoms: C_2  and  C_10
REMARK    2  A    between atoms: N_3  and  C_4
REMARK    3  A    between atoms: C_4  and  C_5
REMARK    4  A    between atoms: C_13  and  C_14
REMARK    5  A    between atoms: C_14  and  S_15
REMARK    6  A    between atoms: S_15  and  C_16
REMARK    7  A    between atoms: N_24  and  C_25
REMARK    8  A    between atoms: C_25  and  C_26
REMARK                            x       y       z     vdW  Elec       q    Type
REMARK                         _______ _______ _______ _____ _____    ______ ____
ROOT
ATOM      1  S   UNL     1       2.310   7.524  18.969  0.00  0.00    +0.000 S 
ENDROOT
BRANCH   1   2
ATOM      2  C   UNL     1       3.517   6.686  18.049  0.00  0.00    +0.000 A 
ATOM      3  N   UNL     1       4.662   7.181  17.628  0.00  0.00    +0.000 NA
ATOM      4  C   UNL     1       5.248   6.157  16.912  0.00  0.00    +0.000 A 
ATOM      5  C   UNL     1       6.470   6.074  16.233  0.00  0.00    +0.000 A 
ATOM      6  C   UNL     1       6.776   4.862  15.600  0.00  0.00    +0.000 A 
ATOM      7  C   UNL     1       5.861   3.818  15.663  0.00  0.00    +0.000 A 
ATOM      8  N   UNL     1       4.669   3.846  16.302  0.00  0.00    +0.000 NA
ATOM      9  C   UNL     1       4.433   5.032  16.904  0.00  0.00    +0.000 A 
ATOM     10  N   UNL     1       3.340   5.381  17.658  0.00  0.00    +0.000 N 
BRANCH  10  11
ATOM     11  C   UNL     1       2.223   4.494  17.941  0.00  0.00    +0.000 C 
BRANCH  11  12
ATOM     12  C   UNL     1       2.401   3.762  19.246  0.00  0.00    +0.000 A 
ATOM     13  C   UNL     1       3.505   2.924  19.466  0.00  0.00    +0.000 A 
ATOM     14  C   UNL     1       3.656   2.247  20.679  0.00  0.00    +0.000 A 
ATOM     15  C   UNL     1       2.703   2.393  21.686  0.00  0.00    +0.000 A 
ATOM     16  C   UNL     1       1.597   3.214  21.477  0.00  0.00    +0.000 A 
ATOM     17  C   UNL     1       1.453   3.884  20.266  0.00  0.00    +0.000 A 
ATOM     18  F   UNL     1       0.369   4.652  20.085  0.00  0.00    +0.000 F 
ENDBRANCH  11  12
ENDBRANCH  10  11
ENDBRANCH   1   2
BRANCH   1  19
ATOM     19  C   UNL     1       1.820   8.896  17.890  0.00  0.00    +0.000 C 
BRANCH  19  23
ATOM     20  C   UNL     1      -1.215  11.331  19.838  0.00  0.00    +0.000 A 
ATOM     21  C   UNL     1       0.049  11.182  20.415  0.00  0.00    +0.000 A 
ATOM     22  C   UNL     1       1.026  10.405  19.778  0.00  0.00    +0.000 A 
ATOM     23  C   UNL     1       0.761   9.753  18.561  0.00  0.00    +0.000 A 
ATOM     24  C   UNL     1      -0.505   9.917  17.982  0.00  0.00    +0.000 A 
ATOM     25  C   UNL     1      -1.479  10.701  18.612  0.00  0.00    +0.000 A 
BRANCH  20  27
ATOM     26  O   UNL     1      -2.269  12.405  21.651  0.00  0.00    +0.000 OA
ATOM     27  C   UNL     1      -2.296  12.160  20.448  0.00  0.00    +0.000 C 
ATOM     28  N   UNL     1      -3.283  12.640  19.613  0.00  0.00    +0.000 N 
ATOM     29  H   UNL     1      -3.293  12.414  18.630  0.00  0.00    +0.000 HD
BRANCH  28  30
ATOM     30  C   UNL     1      -4.403  13.388  20.143  0.00  0.00    +0.000 C 
BRANCH  30  31
ATOM     31  C   UNL     1      -5.583  12.480  20.293  0.00  0.00    +0.000 A 
ATOM     32  C   UNL     1      -6.058  11.548  19.389  0.00  0.00    +0.000 A 
ATOM     33  C   UNL     1      -7.252  10.914  19.837  0.00  0.00    +0.000 A 
ATOM     34  C   UNL     1      -7.641  11.368  21.078  0.00  0.00    +0.000 A 
ATOM     35  S   UNL     1      -6.562  12.543  21.697  0.00  0.00    +0.000 S 
ENDBRANCH  30  31
ENDBRANCH  28  30
ENDBRANCH  20  27
ENDBRANCH  19  23
ENDBRANCH   1  19
TORSDOF 8
ENDMDL
MODEL 3
REMARK VINA RESULT:      -8.3      2.694      3.294
REMARK  Name = 
REMARK  8 active torsions:
REMARK  status: ('A' for Active; 'I' for Inactive)
REMARK    1  A    between atoms: C_2  and  C_10
REMARK    2  A    between atoms: N_3  and  C_4
REMARK    3  A    between atoms: C_4  and  C_5
REMARK    4  A    between atoms: C_13  and  C_14
REMARK    5  A    between atoms: C_14  and  S_15
REMARK    6  A    between atoms: S_15  and  C_16
REMARK    7  A    between atoms: N_24  and  C_25
REMARK    8  A    between atoms: C_25  and  C_26
REMARK                            x       y       z     vdW  Elec       q    Type
REMARK                         _______ _______ _______ _____ _____    ______ ____
ROOT
ATOM      1  S   UNL     1       3.413   7.614  18.022  0.00  0.00    +0.000 S 
ENDROOT
BRANCH   1   2
ATOM      2  C   UNL     1       2.971   5.954  18.253  0.00  0.00    +0.000 A 
ATOM      3  N   UNL     1       1.750   5.482  18.392  0.00  0.00    +0.000 NA
ATOM      4  C   UNL     1       1.915   4.127  18.590  0.00  0.00    +0.000 A 
ATOM      5  C   UNL     1       0.990   3.094  18.791  0.00  0.00    +0.000 A 
ATOM      6  C   UNL     1       1.496   1.798  18.957  0.00  0.00    +0.000 A 
ATOM      7  C   UNL     1       2.872   1.601  18.929  0.00  0.00    +0.000 A 
ATOM      8  N   UNL     1       3.806   2.562  18.742  0.00  0.00    +0.000 NA
ATOM      9  C   UNL     1       3.262   3.786  18.574  0.00  0.00    +0.000 A 
ATOM     10  N   UNL     1       3.922   4.966  18.332  0.00  0.00    +0.000 N 
BRANCH  10  11
ATOM     11  C   UNL     1       5.366   5.085  18.209  0.00  0.00    +0.000 C 
BRANCH  11  12
ATOM     12  C   UNL     1       5.827   4.916  16.785  0.00  0.00    +0.000 A 
ATOM     13  C   UNL     1       5.110   4.120  15.877  0.00  0.00    +0.000 A 
ATOM     14  C   UNL     1       5.552   3.968  14.560  0.00  0.00    +0.000 A 
ATOM     15  C   UNL     1       6.718   4.601  14.134  0.00  0.00    +0.000 A 
ATOM     16  C   UNL     1       7.444   5.385  15.027  0.00  0.00    +0.000 A 
ATOM     17  C   UNL     1       6.999   5.532  16.338  0.00  0.00    +0.000 A 
ATOM     18  F   UNL     1       7.729   6.276  17.181  0.00  0.00    +0.000 F 
ENDBRANCH  11  12
ENDBRANCH  10  11
ENDBRANCH   1   2
BRANCH   1  19
ATOM     19  C   UNL     1       1.839   8.431  17.645  0.00  0.00    +0.000 C 
BRANCH  19  23
ATOM     20  C   UNL     1       0.227  10.375  21.188  0.00  0.00    +0.000 A 
ATOM     21  C   UNL     1       0.963   9.193  21.303  0.00  0.00    +0.000 A 
ATOM     22  C   UNL     1       1.489   8.577  20.160  0.00  0.00    +0.000 A 
ATOM     23  C   UNL     1       1.283   9.119  18.879  0.00  0.00    +0.000 A 
ATOM     24  C   UNL     1       0.555  10.312  18.772  0.00  0.00    +0.000 A 
ATOM     25  C   UNL     1       0.038  10.935  19.915  0.00  0.00    +0.000 A 
BRANCH  20  27
ATOM     26  O   UNL     1      -0.411  10.532  23.450  0.00  0.00    +0.000 OA
ATOM     27  C   UNL     1      -0.343  11.098  22.363  0.00  0.00    +0.000 C 
ATOM     28  N   UNL     1      -0.755  12.400  22.175  0.00  0.00    +0.000 N 
ATOM     29  H   UNL     1      -0.704  12.841  21.269  0.00  0.00    +0.000 HD
BRANCH  28  30
ATOM     30  C   UNL     1      -1.386  13.140  23.247  0.00  0.00    +0.000 C 
BRANCH  30  31
ATOM     31  C   UNL     1      -2.872  13.086  23.083  0.00  0.00    +0.000 A 
ATOM     32  C   UNL     1      -3.836  13.065  24.074  0.00  0.00    +0.000 A 
ATOM     33  C   UNL     1      -5.154  12.936  23.550  0.00  0.00    +0.000 A 
ATOM     34  C   UNL     1      -5.157  12.881  22.174  0.00  0.00    +0.000 A 
ATOM     35  S   UNL     1      -3.579  12.997  21.525  0.00  0.00    +0.000 S 
ENDBRANCH  30  31
ENDBRANCH  28  30
ENDBRANCH  20  27
ENDBRANCH  19  23
ENDBRANCH   1  19
TORSDOF 8
ENDMDL
MODEL 4
REMARK VINA RESULT:      -8.2      2.320      4.189
REMARK  Name = 
REMARK  8 active torsions:
REMARK  status: ('A' for Active; 'I' for Inactive)
REMARK    1  A    between atoms: C_2  and  C_10
REMARK    2  A    between atoms: N_3  and  C_4
REMARK    3  A    between atoms: C_4  and  C_5
REMARK    4  A    between atoms: C_13  and  C_14
REMARK    5  A    between atoms: C_14  and  S_15
REMARK    6  A    between atoms: S_15  and  C_16
REMARK    7  A    between atoms: N_24  and  C_25
REMARK    8  A    between atoms: C_25  and  C_26
REMARK                            x       y       z     vdW  Elec       q    Type
REMARK                         _______ _______ _______ _____ _____    ______ ____
ROOT
ATOM      1  S   UNL     1       2.085   7.800  18.817  0.00  0.00    +0.000 S 
ENDROOT
BRANCH   1   2
ATOM      2  C   UNL     1       3.334   6.907  18.013  0.00  0.00    +0.000 A 
ATOM      3  N   UNL     1       4.528   7.355  17.685  0.00  0.00    +0.000 NA
ATOM      4  C   UNL     1       5.134   6.299  17.034  0.00  0.00    +0.000 A 
ATOM      5  C   UNL     1       6.405   6.163  16.462  0.00  0.00    +0.000 A 
ATOM      6  C   UNL     1       6.719   4.932  15.873  0.00  0.00    +0.000 A 
ATOM      7  C   UNL     1       5.765   3.921  15.870  0.00  0.00    +0.000 A 
ATOM      8  N   UNL     1       4.524   4.001  16.405  0.00  0.00    +0.000 NA
ATOM      9  C   UNL     1       4.282   5.204  16.970  0.00  0.00    +0.000 A 
ATOM     10  N   UNL     1       3.143   5.603  17.625  0.00  0.00    +0.000 N 
BRANCH  10  11
ATOM     11  C   UNL     1       1.975   4.760  17.823  0.00  0.00    +0.000 C 
BRANCH  11  12
ATOM     12  C   UNL     1       2.068   3.956  19.093  0.00  0.00    +0.000 A 
ATOM     13  C   UNL     1       2.040   4.576  20.352  0.00  0.00    +0.000 A 
ATOM     14  C   UNL     1       2.132   3.819  21.523  0.00  0.00    +0.000 A 
ATOM     15  C   UNL     1       2.259   2.432  21.452  0.00  0.00    +0.000 A 
ATOM     16  C   UNL     1       2.298   1.805  20.209  0.00  0.00    +0.000 A 
ATOM     17  C   UNL     1       2.207   2.566  19.047  0.00  0.00    +0.000 A 
ATOM     18  F   UNL     1       2.267   1.937  17.865  0.00  0.00    +0.000 F 
ENDBRANCH  11  12
ENDBRANCH  10  11
ENDBRANCH   1   2
BRANCH   1  19
ATOM     19  C   UNL     1       1.922   9.306  17.821  0.00  0.00    +0.000 C 
BRANCH  19  23
ATOM     20  C   UNL     1      -1.547  11.597  19.107  0.00  0.00    +0.000 A 
ATOM     21  C   UNL     1      -0.280  11.885  19.621  0.00  0.00    +0.000 A 
ATOM     22  C   UNL     1       0.836  11.150  19.196  0.00  0.00    +0.000 A 
ATOM     23  C   UNL     1       0.710  10.110  18.259  0.00  0.00    +0.000 A 
ATOM     24  C   UNL     1      -0.562   9.836  17.738  0.00  0.00    +0.000 A 
ATOM     25  C   UNL     1      -1.676  10.575  18.155  0.00  0.00    +0.000 A 
BRANCH  20  27
ATOM     26  O   UNL     1      -3.863  12.025  19.032  0.00  0.00    +0.000 OA
ATOM     27  C   UNL     1      -2.774  12.351  19.497  0.00  0.00    +0.000 C 
ATOM     28  N   UNL     1      -2.630  13.387  20.397  0.00  0.00    +0.000 N 
ATOM     29  H   UNL     1      -1.724  13.647  20.755  0.00  0.00    +0.000 HD
BRANCH  28  30
ATOM     30  C   UNL     1      -3.762  14.211  20.765  0.00  0.00    +0.000 C 
BRANCH  30  31
ATOM     31  C   UNL     1      -4.328  13.728  22.064  0.00  0.00    +0.000 A 
ATOM     32  C   UNL     1      -3.640  13.342  23.199  0.00  0.00    +0.000 A 
ATOM     33  C   UNL     1      -4.506  12.866  24.225  0.00  0.00    +0.000 A 
ATOM     34  C   UNL     1      -5.829  12.922  23.849  0.00  0.00    +0.000 A 
ATOM     35  S   UNL     1      -6.020  13.556  22.271  0.00  0.00    +0.000 S 
ENDBRANCH  30  31
ENDBRANCH  28  30
ENDBRANCH  20  27
ENDBRANCH  19  23
ENDBRANCH   1  19
TORSDOF 8
ENDMDL
MODEL 5
REMARK VINA RESULT:      -8.1      2.901      4.817
REMARK  Name = 
REMARK  8 active torsions:
REMARK  status: ('A' for Active; 'I' for Inactive)
REMARK    1  A    between atoms: C_2  and  C_10
REMARK    2  A    between atoms: N_3  and  C_4
REMARK    3  A    between atoms: C_4  and  C_5
REMARK    4  A    between atoms: C_13  and  C_14
REMARK    5  A    between atoms: C_14  and  S_15
REMARK    6  A    between atoms: S_15  and  C_16
REMARK    7  A    between atoms: N_24  and  C_25
REMARK    8  A    between atoms: C_25  and  C_26
REMARK                            x       y       z     vdW  Elec       q    Type
REMARK                         _______ _______ _______ _____ _____    ______ ____
ROOT
ATOM      1  S   UNL     1       2.332   6.642  18.941  0.00  0.00    +0.000 S 
ENDROOT
BRANCH   1   2
ATOM      2  C   UNL     1       3.641   6.075  17.956  0.00  0.00    +0.000 A 
ATOM      3  N   UNL     1       4.727   6.746  17.637  0.00  0.00    +0.000 NA
ATOM      4  C   UNL     1       5.437   5.897  16.812  0.00  0.00    +0.000 A 
ATOM      5  C   UNL     1       6.670   6.042  16.164  0.00  0.00    +0.000 A 
ATOM      6  C   UNL     1       7.122   4.967  15.388  0.00  0.00    +0.000 A 
ATOM      7  C   UNL     1       6.332   3.828  15.287  0.00  0.00    +0.000 A 
ATOM      8  N   UNL     1       5.135   3.638  15.888  0.00  0.00    +0.000 NA
ATOM      9  C   UNL     1       4.756   4.699  16.632  0.00  0.00    +0.000 A 
ATOM     10  N   UNL     1       3.619   4.821  17.393  0.00  0.00    +0.000 N 
BRANCH  10  11
ATOM     11  C   UNL     1       2.608   3.786  17.525  0.00  0.00    +0.000 C 
BRANCH  11  12
ATOM     12  C   UNL     1       2.417   3.362  18.958  0.00  0.00    +0.000 A 
ATOM     13  C   UNL     1       1.163   3.445  19.582  0.00  0.00    +0.000 A 
ATOM     14  C   UNL     1       1.001   3.052  20.913  0.00  0.00    +0.000 A 
ATOM     15  C   UNL     1       2.091   2.577  21.641  0.00  0.00    +0.000 A 
ATOM     16  C   UNL     1       3.343   2.499  21.037  0.00  0.00    +0.000 A 
ATOM     17  C   UNL     1       3.498   2.893  19.711  0.00  0.00    +0.000 A 
ATOM     18  F   UNL     1       4.718   2.825  19.162  0.00  0.00    +0.000 F 
ENDBRANCH  11  12
ENDBRANCH  10  11
ENDBRANCH   1   2
BRANCH   1  19
ATOM     19  C   UNL     1       2.119   8.367  18.424  0.00  0.00    +0.000 C 
BRANCH  19  23
ATOM     20  C   UNL     1      -0.054  10.603  21.459  0.00  0.00    +0.000 A 
ATOM     21  C   UNL     1       0.460   9.336  21.747  0.00  0.00    +0.000 A 
ATOM     22  C   UNL     1       1.168   8.624  20.769  0.00  0.00    +0.000 A 
ATOM     23  C   UNL     1       1.369   9.155  19.483  0.00  0.00    +0.000 A 
ATOM     24  C   UNL     1       0.862  10.432  19.205  0.00  0.00    +0.000 A 
ATOM     25  C   UNL     1       0.163  11.149  20.184  0.00  0.00    +0.000 A 
BRANCH  20  27
ATOM     26  O   UNL     1      -1.534  10.876  23.272  0.00  0.00    +0.000 OA
ATOM     27  C   UNL     1      -0.798  11.426  22.457  0.00  0.00    +0.000 C 
ATOM     28  N   UNL     1      -0.605  12.791  22.432  0.00  0.00    +0.000 N 
ATOM     29  H   UNL     1      -0.007  13.223  21.744  0.00  0.00    +0.000 HD
BRANCH  28  30
ATOM     30  C   UNL     1      -1.347  13.661  23.320  0.00  0.00    +0.000 C 
BRANCH  30  31
ATOM     31  C   UNL     1      -2.679  13.974  22.712  0.00  0.00    +0.000 A 
ATOM     32  C   UNL     1      -3.932  13.653  23.201  0.00  0.00    +0.000 A 
ATOM     33  C   UNL     1      -4.978  14.045  22.317  0.00  0.00    +0.000 A 
ATOM     34  C   UNL     1      -4.492  14.670  21.191  0.00  0.00    +0.000 A 
ATOM     35  S   UNL     1      -2.786  14.790  21.210  0.00  0.00    +0.000 S 
ENDBRANCH  30  31
ENDBRANCH  28  30
ENDBRANCH  20  27
ENDBRANCH  19  23
ENDBRANCH   1  19
TORSDOF 8
ENDMDL
MODEL 6
REMARK VINA RESULT:      -8.1      2.238      4.153
REMARK  Name = 
REMARK  8 active torsions:
REMARK  status: ('A' for Active; 'I' for Inactive)
REMARK    1  A    between atoms: C_2  and  C_10
REMARK    2  A    between atoms: N_3  and  C_4
REMARK    3  A    between atoms: C_4  and  C_5
REMARK    4  A    between atoms: C_13  and  C_14
REMARK    5  A    between atoms: C_14  and  S_15
REMARK    6  A    between atoms: S_15  and  C_16
REMARK    7  A    between atoms: N_24  and  C_25
REMARK    8  A    between atoms: C_25  and  C_26
REMARK                            x       y       z     vdW  Elec       q    Type
REMARK                         _______ _______ _______ _____ _____    ______ ____
ROOT
ATOM      1  S   UNL     1       2.157   7.370  18.668  0.00  0.00    +0.000 S 
ENDROOT
BRANCH   1   2
ATOM      2  C   UNL     1       3.453   6.597  17.814  0.00  0.00    +0.000 A 
ATOM      3  N   UNL     1       4.567   7.166  17.402  0.00  0.00    +0.000 NA
ATOM      4  C   UNL     1       5.252   6.164  16.745  0.00  0.00    +0.000 A 
ATOM      5  C   UNL     1       6.496   6.153  16.101  0.00  0.00    +0.000 A 
ATOM      6  C   UNL     1       6.915   4.946  15.528  0.00  0.00    +0.000 A 
ATOM      7  C   UNL     1       6.084   3.834  15.611  0.00  0.00    +0.000 A 
ATOM      8  N   UNL     1       4.876   3.792  16.217  0.00  0.00    +0.000 NA
ATOM      9  C   UNL     1       4.529   4.978  16.763  0.00  0.00    +0.000 A 
ATOM     10  N   UNL     1       3.391   5.267  17.474  0.00  0.00    +0.000 N 
BRANCH  10  11
ATOM     11  C   UNL     1       2.341   4.306  17.765  0.00  0.00    +0.000 C 
BRANCH  11  12
ATOM     12  C   UNL     1       2.528   3.656  19.112  0.00  0.00    +0.000 A 
ATOM     13  C   UNL     1       3.682   2.913  19.408  0.00  0.00    +0.000 A 
ATOM     14  C   UNL     1       3.841   2.312  20.660  0.00  0.00    +0.000 A 
ATOM     15  C   UNL     1       2.848   2.441  21.630  0.00  0.00    +0.000 A 
ATOM     16  C   UNL     1       1.694   3.167  21.346  0.00  0.00    +0.000 A 
ATOM     17  C   UNL     1       1.542   3.762  20.097  0.00  0.00    +0.000 A 
ATOM     18  F   UNL     1       0.412   4.438  19.844  0.00  0.00    +0.000 F 
ENDBRANCH  11  12
ENDBRANCH  10  11
ENDBRANCH   1   2
BRANCH   1  19
ATOM     19  C   UNL     1       2.017   8.990  17.864  0.00  0.00    +0.000 C 
BRANCH  19  23
ATOM     20  C   UNL     1      -1.097  11.394  19.723  0.00  0.00    +0.000 A 
ATOM     21  C   UNL     1      -1.312  10.802  18.476  0.00  0.00    +0.000 A 
ATOM     22  C   UNL     1      -0.309  10.019  17.887  0.00  0.00    +0.000 A 
ATOM     23  C   UNL     1       0.930   9.822  18.521  0.00  0.00    +0.000 A 
ATOM     24  C   UNL     1       1.133  10.409  19.778  0.00  0.00    +0.000 A 
ATOM     25  C   UNL     1       0.129  11.182  20.373  0.00  0.00    +0.000 A 
BRANCH  20  27
ATOM     26  O   UNL     1      -1.942  12.568  21.584  0.00  0.00    +0.000 OA
ATOM     27  C   UNL     1      -2.126  12.220  20.420  0.00  0.00    +0.000 C 
ATOM     28  N   UNL     1      -3.249  12.581  19.705  0.00  0.00    +0.000 N 
ATOM     29  H   UNL     1      -3.386  12.272  18.755  0.00  0.00    +0.000 HD
BRANCH  28  30
ATOM     30  C   UNL     1      -4.323  13.318  20.335  0.00  0.00    +0.000 C 
BRANCH  30  31
ATOM     31  C   UNL     1      -5.561  13.204  19.503  0.00  0.00    +0.000 A 
ATOM     32  C   UNL     1      -6.706  13.976  19.572  0.00  0.00    +0.000 A 
ATOM     33  C   UNL     1      -7.718  13.533  18.673  0.00  0.00    +0.000 A 
ATOM     34  C   UNL     1      -7.307  12.449  17.931  0.00  0.00    +0.000 A 
ATOM     35  S   UNL     1      -5.707  11.980  18.313  0.00  0.00    +0.000 S 
ENDBRANCH  30  31
ENDBRANCH  28  30
ENDBRANCH  20  27
ENDBRANCH  19  23
ENDBRANCH   1  19
TORSDOF 8
ENDMDL
MODEL 7
REMARK VINA RESULT:      -8.1      2.641      4.591
REMARK  Name = 
REMARK  8 active torsions:
REMARK  status: ('A' for Active; 'I' for Inactive)
REMARK    1  A    between atoms: C_2  and  C_10
REMARK    2  A    between atoms: N_3  and  C_4
REMARK    3  A    between atoms: C_4  and  C_5
REMARK    4  A    between atoms: C_13  and  C_14
REMARK    5  A    between atoms: C_14  and  S_15
REMARK    6  A    between atoms: S_15  and  C_16
REMARK    7  A    between atoms: N_24  and  C_25
REMARK    8  A    between atoms: C_25  and  C_26
REMARK                            x       y       z     vdW  Elec       q    Type
REMARK                         _______ _______ _______ _____ _____    ______ ____
ROOT
ATOM      1  S   UNL     1       2.903   6.694  19.164  0.00  0.00    +0.000 S 
ENDROOT
BRANCH   1   2
ATOM      2  C   UNL     1       4.027   6.082  17.994  0.00  0.00    +0.000 A 
ATOM      3  N   UNL     1       5.129   6.675  17.584  0.00  0.00    +0.000 NA
ATOM      4  C   UNL     1       5.652   5.826  16.630  0.00  0.00    +0.000 A 
ATOM      5  C   UNL     1       6.809   5.906  15.844  0.00  0.00    +0.000 A 
ATOM      6  C   UNL     1       7.061   4.852  14.958  0.00  0.00    +0.000 A 
ATOM      7  C   UNL     1       6.159   3.797  14.888  0.00  0.00    +0.000 A 
ATOM      8  N   UNL     1       5.028   3.672  15.620  0.00  0.00    +0.000 NA
ATOM      9  C   UNL     1       4.842   4.709  16.466  0.00  0.00    +0.000 A 
ATOM     10  N   UNL     1       3.820   4.878  17.367  0.00  0.00    +0.000 N 
BRANCH  10  11
ATOM     11  C   UNL     1       2.735   3.929  17.561  0.00  0.00    +0.000 C 
BRANCH  11  12
ATOM     12  C   UNL     1       2.715   3.375  18.961  0.00  0.00    +0.000 A 
ATOM     13  C   UNL     1       3.880   2.874  19.563  0.00  0.00    +0.000 A 
ATOM     14  C   UNL     1       3.847   2.358  20.862  0.00  0.00    +0.000 A 
ATOM     15  C   UNL     1       2.649   2.330  21.574  0.00  0.00    +0.000 A 
ATOM     16  C   UNL     1       1.483   2.815  20.985  0.00  0.00    +0.000 A 
ATOM     17  C   UNL     1       1.524   3.326  19.691  0.00  0.00    +0.000 A 
ATOM     18  F   UNL     1       0.383   3.768  19.142  0.00  0.00    +0.000 F 
ENDBRANCH  11  12
ENDBRANCH  10  11
ENDBRANCH   1   2
BRANCH   1  19
ATOM     19  C   UNL     1       2.173   8.139  18.348  0.00  0.00    +0.000 C 
BRANCH  19  23
ATOM     20  C   UNL     1      -0.108  10.507  21.197  0.00  0.00    +0.000 A 
ATOM     21  C   UNL     1       0.497   9.313  21.596  0.00  0.00    +0.000 A 
ATOM     22  C   UNL     1       1.240   8.559  20.676  0.00  0.00    +0.000 A 
ATOM     23  C   UNL     1       1.385   8.974  19.341  0.00  0.00    +0.000 A 
ATOM     24  C   UNL     1       0.786  10.179  18.952  0.00  0.00    +0.000 A 
ATOM     25  C   UNL     1       0.052  10.939  19.871  0.00  0.00    +0.000 A 
BRANCH  20  27
ATOM     26  O   UNL     1      -0.926  11.104  23.324  0.00  0.00    +0.000 OA
ATOM     27  C   UNL     1      -0.893  11.372  22.126  0.00  0.00    +0.000 C 
ATOM     28  N   UNL     1      -1.541  12.465  21.590  0.00  0.00    +0.000 N 
ATOM     29  H   UNL     1      -1.512  12.657  20.600  0.00  0.00    +0.000 HD
BRANCH  28  30
ATOM     30  C   UNL     1      -2.382  13.306  22.415  0.00  0.00    +0.000 C 
BRANCH  30  31
ATOM     31  C   UNL     1      -3.820  13.026  22.110  0.00  0.00    +0.000 A 
ATOM     32  C   UNL     1      -4.379  12.681  20.894  0.00  0.00    +0.000 A 
ATOM     33  C   UNL     1      -5.797  12.563  20.960  0.00  0.00    +0.000 A 
ATOM     34  C   UNL     1      -6.274  12.802  22.229  0.00  0.00    +0.000 A 
ATOM     35  S   UNL     1      -5.015  13.155  23.331  0.00  0.00    +0.000 S 
ENDBRANCH  30  31
ENDBRANCH  28  30
ENDBRANCH  20  27
ENDBRANCH  19  23
ENDBRANCH   1  19
TORSDOF 8
ENDMDL
MODEL 8
REMARK VINA RESULT:      -8.1      2.574      4.487
REMARK  Name = 
REMARK  8 active torsions:
REMARK  status: ('A' for Active; 'I' for Inactive)
REMARK    1  A    between atoms: C_2  and  C_10
REMARK    2  A    between atoms: N_3  and  C_4
REMARK    3  A    between atoms: C_4  and  C_5
REMARK    4  A    between atoms: C_13  and  C_14
REMARK    5  A    between atoms: C_14  and  S_15
REMARK    6  A    between atoms: S_15  and  C_16
REMARK    7  A    between atoms: N_24  and  C_25
REMARK    8  A    between atoms: C_25  and  C_26
REMARK                            x       y       z     vdW  Elec       q    Type
REMARK                         _______ _______ _______ _____ _____    ______ ____
ROOT
ATOM      1  S   UNL     1       2.175   7.850  18.828  0.00  0.00    +0.000 S 
ENDROOT
BRANCH   1   2
ATOM      2  C   UNL     1       3.435   7.027  17.968  0.00  0.00    +0.000 A 
ATOM      3  N   UNL     1       3.907   7.343  16.780  0.00  0.00    +0.000 NA
ATOM      4  C   UNL     1       4.855   6.379  16.509  0.00  0.00    +0.000 A 
ATOM      5  C   UNL     1       5.699   6.184  15.408  0.00  0.00    +0.000 A 
ATOM      6  C   UNL     1       6.570   5.088  15.448  0.00  0.00    +0.000 A 
ATOM      7  C   UNL     1       6.549   4.248  16.555  0.00  0.00    +0.000 A 
ATOM      8  N   UNL     1       5.755   4.389  17.642  0.00  0.00    +0.000 NA
ATOM      9  C   UNL     1       4.946   5.468  17.554  0.00  0.00    +0.000 A 
ATOM     10  N   UNL     1       4.047   5.914  18.492  0.00  0.00    +0.000 N 
BRANCH  10  11
ATOM     11  C   UNL     1       3.818   5.272  19.776  0.00  0.00    +0.000 C 
BRANCH  11  12
ATOM     12  C   UNL     1       2.704   4.259  19.708  0.00  0.00    +0.000 A 
ATOM     13  C   UNL     1       2.210   3.801  18.477  0.00  0.00    +0.000 A 
ATOM     14  C   UNL     1       1.174   2.865  18.429  0.00  0.00    +0.000 A 
ATOM     15  C   UNL     1       0.614   2.377  19.609  0.00  0.00    +0.000 A 
ATOM     16  C   UNL     1       1.088   2.831  20.837  0.00  0.00    +0.000 A 
ATOM     17  C   UNL     1       2.120   3.765  20.878  0.00  0.00    +0.000 A 
ATOM     18  F   UNL     1       2.543   4.198  22.074  0.00  0.00    +0.000 F 
ENDBRANCH  11  12
ENDBRANCH  10  11
ENDBRANCH   1   2
BRANCH   1  19
ATOM     19  C   UNL     1       1.375   8.864  17.555  0.00  0.00    +0.000 C 
BRANCH  19  23
ATOM     20  C   UNL     1      -1.066  11.954  19.406  0.00  0.00    +0.000 A 
ATOM     21  C   UNL     1       0.286  11.830  19.736  0.00  0.00    +0.000 A 
ATOM     22  C   UNL     1       1.071  10.840  19.129  0.00  0.00    +0.000 A 
ATOM     23  C   UNL     1       0.522   9.947  18.191  0.00  0.00    +0.000 A 
ATOM     24  C   UNL     1      -0.832  10.086  17.856  0.00  0.00    +0.000 A 
ATOM     25  C   UNL     1      -1.615  11.081  18.454  0.00  0.00    +0.000 A 
BRANCH  20  27
ATOM     26  O   UNL     1      -1.518  14.128  20.195  0.00  0.00    +0.000 OA
ATOM     27  C   UNL     1      -1.955  12.998  19.996  0.00  0.00    +0.000 C 
ATOM     28  N   UNL     1      -3.259  12.645  20.274  0.00  0.00    +0.000 N 
ATOM     29  H   UNL     1      -3.593  11.706  20.116  0.00  0.00    +0.000 HD
BRANCH  28  30
ATOM     30  C   UNL     1      -4.159  13.580  20.914  0.00  0.00    +0.000 C 
BRANCH  30  31
ATOM     31  C   UNL     1      -4.396  13.155  22.330  0.00  0.00    +0.000 A 
ATOM     32  C   UNL     1      -3.463  12.734  23.258  0.00  0.00    +0.000 A 
ATOM     33  C   UNL     1      -4.060  12.334  24.488  0.00  0.00    +0.000 A 
ATOM     34  C   UNL     1      -5.428  12.481  24.467  0.00  0.00    +0.000 A 
ATOM     35  S   UNL     1      -5.983  13.108  22.975  0.00  0.00    +0.000 S 
ENDBRANCH  30  31
ENDBRANCH  28  30
ENDBRANCH  20  27
ENDBRANCH  19  23
ENDBRANCH   1  19
TORSDOF 8
ENDMDL
MODEL 9
REMARK VINA RESULT:      -8.1      2.020      4.115
REMARK  Name = 
REMARK  8 active torsions:
REMARK  status: ('A' for Active; 'I' for Inactive)
REMARK    1  A    between atoms: C_2  and  C_10
REMARK    2  A    between atoms: N_3  and  C_4
REMARK    3  A    between atoms: C_4  and  C_5
REMARK    4  A    between atoms: C_13  and  C_14
REMARK    5  A    between atoms: C_14  and  S_15
REMARK    6  A    between atoms: S_15  and  C_16
REMARK    7  A    between atoms: N_24  and  C_25
REMARK    8  A    between atoms: C_25  and  C_26
REMARK                            x       y       z     vdW  Elec       q    Type
REMARK                         _______ _______ _______ _____ _____    ______ ____
ROOT
ATOM      1  S   UNL     1       2.234   7.714  18.896  0.00  0.00    +0.000 S 
ENDROOT
BRANCH   1   2
ATOM      2  C   UNL     1       3.455   6.803  18.069  0.00  0.00    +0.000 A 
ATOM      3  N   UNL     1       4.685   7.197  17.813  0.00  0.00    +0.000 NA
ATOM      4  C   UNL     1       5.249   6.154  17.107  0.00  0.00    +0.000 A 
ATOM      5  C   UNL     1       6.530   5.979  16.567  0.00  0.00    +0.000 A 
ATOM      6  C   UNL     1       6.789   4.776  15.899  0.00  0.00    +0.000 A 
ATOM      7  C   UNL     1       5.776   3.831  15.791  0.00  0.00    +0.000 A 
ATOM      8  N   UNL     1       4.524   3.951  16.289  0.00  0.00    +0.000 NA
ATOM      9  C   UNL     1       4.335   5.123  16.934  0.00  0.00    +0.000 A 
ATOM     10  N   UNL     1       3.198   5.545  17.579  0.00  0.00    +0.000 N 
BRANCH  10  11
ATOM     11  C   UNL     1       1.975   4.767  17.676  0.00  0.00    +0.000 C 
BRANCH  11  12
ATOM     12  C   UNL     1       1.937   3.929  18.928  0.00  0.00    +0.000 A 
ATOM     13  C   UNL     1       1.686   4.506  20.183  0.00  0.00    +0.000 A 
ATOM     14  C   UNL     1       1.658   3.718  21.337  0.00  0.00    +0.000 A 
ATOM     15  C   UNL     1       1.886   2.345  21.254  0.00  0.00    +0.000 A 
ATOM     16  C   UNL     1       2.146   1.761  20.016  0.00  0.00    +0.000 A 
ATOM     17  C   UNL     1       2.174   2.553  18.871  0.00  0.00    +0.000 A 
ATOM     18  F   UNL     1       2.446   1.968  17.696  0.00  0.00    +0.000 F 
ENDBRANCH  11  12
ENDBRANCH  10  11
ENDBRANCH   1   2
BRANCH   1  19
ATOM     19  C   UNL     1       1.836   9.053  17.740  0.00  0.00    +0.000 C 
BRANCH  19  23
ATOM     20  C   UNL     1      -1.028  11.826  19.482  0.00  0.00    +0.000 A 
ATOM     21  C   UNL     1      -1.437  10.902  18.517  0.00  0.00    +0.000 A 
ATOM     22  C   UNL     1      -0.512  10.004  17.967  0.00  0.00    +0.000 A 
ATOM     23  C   UNL     1       0.838  10.016  18.358  0.00  0.00    +0.000 A 
ATOM     24  C   UNL     1       1.238  10.938  19.335  0.00  0.00    +0.000 A 
ATOM     25  C   UNL     1       0.313  11.829  19.893  0.00  0.00    +0.000 A 
BRANCH  20  27
ATOM     26  O   UNL     1      -1.796  14.002  19.960  0.00  0.00    +0.000 OA
ATOM     27  C   UNL     1      -1.961  12.796  20.126  0.00  0.00    +0.000 C 
ATOM     28  N   UNL     1      -3.000  12.285  20.876  0.00  0.00    +0.000 N 
ATOM     29  H   UNL     1      -3.107  11.291  21.012  0.00  0.00    +0.000 HD
BRANCH  28  30
ATOM     30  C   UNL     1      -3.900  13.163  21.592  0.00  0.00    +0.000 C 
BRANCH  30  31
ATOM     31  C   UNL     1      -5.315  12.780  21.290  0.00  0.00    +0.000 A 
ATOM     32  C   UNL     1      -6.396  12.778  22.151  0.00  0.00    +0.000 A 
ATOM     33  C   UNL     1      -7.581  12.279  21.537  0.00  0.00    +0.000 A 
ATOM     34  C   UNL     1      -7.371  11.934  20.221  0.00  0.00    +0.000 A 
ATOM     35  S   UNL     1      -5.758  12.222  19.732  0.00  0.00    +0.000 S 
ENDBRANCH  30  31
ENDBRANCH  28  30
ENDBRANCH  20  27
ENDBRANCH  19  23
ENDBRANCH   1  19
TORSDOF 8
ENDMDL
