MODEL 1
REMARK VINA RESULT:      -7.7      0.000      0.000
REMARK  Name = 
REMARK  12 active torsions:
REMARK  status: ('A' for Active; 'I' for Inactive)
REMARK    1  A    between atoms: C_1  and  O_2
REMARK    2  A    between atoms: O_2  and  C_3
REMARK    3  A    between atoms: C_3  and  C_5
REMARK    4  A    between atoms: C_7  and  C_8
REMARK    5  A    between atoms: C_9  and  C_10
REMARK    6  A    between atoms: C_13  and  N_14
REMARK    7  A    between atoms: C_15  and  C_17
REMARK    8  A    between atoms: C_17  and  O_19
REMARK    9  A    between atoms: C_22  and  N_23
REMARK   10  A    between atoms: N_23  and  C_24
REMARK   11  A    between atoms: N_23  and  C_25
REMARK   12  A    between atoms: C_27  and  O_28
REMARK                            x       y       z     vdW  Elec       q    Type
REMARK                         _______ _______ _______ _____ _____    ______ ____
ROOT
ATOM      1  C   UNL     1       2.242   7.039  19.721  0.00  0.00    +0.000 C 
ATOM      2  C   UNL     1       1.637   7.886  20.324  0.00  0.00    +0.000 C 
ENDROOT
BRANCH   1   5
ATOM      3  C   UNL     1       4.633   5.642  17.226  0.00  0.00    +0.000 A 
ATOM      4  C   UNL     1       3.831   6.517  17.971  0.00  0.00    +0.000 A 
ATOM      5  C   UNL     1       2.946   6.037  18.965  0.00  0.00    +0.000 A 
ATOM      6  C   UNL     1       2.831   4.650  19.228  0.00  0.00    +0.000 A 
ATOM      7  C   UNL     1       3.640   3.798  18.441  0.00  0.00    +0.000 A 
ATOM      8  C   UNL     1       4.532   4.276  17.475  0.00  0.00    +0.000 A 
BRANCH   6   9
ATOM      9  N   UNL     1       1.979   4.055  20.156  0.00  0.00    +0.000 N 
ATOM     10  C   UNL     1       2.307   3.899  21.568  0.00  0.00    +0.000 C 
ATOM     11  C   UNL     1       0.870   3.221  19.691  0.00  0.00    +0.000 C 
ENDBRANCH   6   9
BRANCH   3  12
ATOM     12  C   UNL     1       5.561   6.158  16.181  0.00  0.00    +0.000 C 
ATOM     13  O   UNL     1       5.232   6.757  15.173  0.00  0.00    +0.000 OA
BRANCH  12  15
ATOM     14  C   UNL     1       7.418   6.720  17.483  0.00  0.00    +0.000 C 
ATOM     15  O   UNL     1       6.839   5.833  16.522  0.00  0.00    +0.000 OA
ENDBRANCH  12  15
ENDBRANCH   3  12
BRANCH   8  16
ATOM     16  O   UNL     1       5.321   3.384  16.803  0.00  0.00    +0.000 OA
ATOM     17  H   UNL     1       5.102   3.391  15.857  0.00  0.00    +0.000 HD
ENDBRANCH   8  16
ENDBRANCH   1   5
BRANCH   2  18
ATOM     18  C   UNL     1       0.857   8.909  20.946  0.00  0.00    +0.000 A 
ATOM     19  C   UNL     1       0.566   8.821  22.305  0.00  0.00    +0.000 A 
ATOM     20  C   UNL     1      -0.268   9.764  22.911  0.00  0.00    +0.000 A 
ATOM     21  C   UNL     1      -0.822  10.812  22.169  0.00  0.00    +0.000 A 
ATOM     22  C   UNL     1      -0.504  10.913  20.808  0.00  0.00    +0.000 A 
ATOM     23  C   UNL     1       0.334   9.966  20.199  0.00  0.00    +0.000 A 
BRANCH  21  24
ATOM     24  N   UNL     1      -1.698  11.765  22.719  0.00  0.00    +0.000 N 
ATOM     25  C   UNL     1      -1.363  13.016  23.190  0.00  0.00    +0.000 C 
ATOM     26  O   UNL     1      -0.275  13.580  23.233  0.00  0.00    +0.000 OA
ATOM     27  H   UNL     1      -2.681  11.516  22.803  0.00  0.00    +0.000 HD
BRANCH  25  28
ATOM     28  C   UNL     1      -2.553  13.811  23.747  0.00  0.00    +0.000 C 
ATOM     29  O   UNL     1      -2.607  15.027  23.708  0.00  0.00    +0.000 OA
BRANCH  28  30
ATOM     30  O   UNL     1      -3.482  12.979  24.258  0.00  0.00    +0.000 OA
ATOM     31  H   UNL     1      -3.775  13.338  25.131  0.00  0.00    +0.000 HD
ENDBRANCH  28  30
ENDBRANCH  25  28
ENDBRANCH  21  24
ENDBRANCH   2  18
TORSDOF 9
ENDMDL
MODEL 2
REMARK VINA RESULT:      -7.6      0.989      1.601
REMARK  Name = 
REMARK  12 active torsions:
REMARK  status: ('A' for Active; 'I' for Inactive)
REMARK    1  A    between atoms: C_1  and  O_2
REMARK    2  A    between atoms: O_2  and  C_3
REMARK    3  A    between atoms: C_3  and  C_5
REMARK    4  A    between atoms: C_7  and  C_8
REMARK    5  A    between atoms: C_9  and  C_10
REMARK    6  A    between atoms: C_13  and  N_14
REMARK    7  A    between atoms: C_15  and  C_17
REMARK    8  A    between atoms: C_17  and  O_19
REMARK    9  A    between atoms: C_22  and  N_23
REMARK   10  A    between atoms: N_23  and  C_24
REMARK   11  A    between atoms: N_23  and  C_25
REMARK   12  A    between atoms: C_27  and  O_28
REMARK                            x       y       z     vdW  Elec       q    Type
REMARK                         _______ _______ _______ _____ _____    ______ ____
ROOT
ATOM      1  C   UNL     1       2.581   6.927  19.174  0.00  0.00    +0.000 C 
ATOM      2  C   UNL     1       1.971   7.771  19.776  0.00  0.00    +0.000 C 
ENDROOT
BRANCH   1   5
ATOM      3  C   UNL     1       5.165   5.410  16.957  0.00  0.00    +0.000 A 
ATOM      4  C   UNL     1       4.361   6.327  17.647  0.00  0.00    +0.000 A 
ATOM      5  C   UNL     1       3.275   5.898  18.446  0.00  0.00    +0.000 A 
ATOM      6  C   UNL     1       2.954   4.523  18.559  0.00  0.00    +0.000 A 
ATOM      7  C   UNL     1       3.774   3.631  17.831  0.00  0.00    +0.000 A 
ATOM      8  C   UNL     1       4.863   4.055  17.061  0.00  0.00    +0.000 A 
BRANCH   6   9
ATOM      9  N   UNL     1       1.898   3.980  19.288  0.00  0.00    +0.000 N 
ATOM     10  C   UNL     1       1.822   4.011  20.743  0.00  0.00    +0.000 C 
ATOM     11  C   UNL     1       0.993   3.024  18.649  0.00  0.00    +0.000 C 
ENDBRANCH   6   9
BRANCH   3  12
ATOM     12  C   UNL     1       6.306   5.872  16.118  0.00  0.00    +0.000 C 
ATOM     13  O   UNL     1       7.337   6.368  16.533  0.00  0.00    +0.000 OA
BRANCH  12  15
ATOM     14  C   UNL     1       7.006   4.944  14.091  0.00  0.00    +0.000 C 
ATOM     15  O   UNL     1       6.002   5.671  14.805  0.00  0.00    +0.000 OA
ENDBRANCH  12  15
ENDBRANCH   3  12
BRANCH   8  16
ATOM     16  O   UNL     1       5.639   3.117  16.439  0.00  0.00    +0.000 OA
ATOM     17  H   UNL     1       6.512   3.488  16.233  0.00  0.00    +0.000 HD
ENDBRANCH   8  16
ENDBRANCH   1   5
BRANCH   2  18
ATOM     18  C   UNL     1       1.153   8.709  20.478  0.00  0.00    +0.000 A 
ATOM     19  C   UNL     1       0.461   9.685  19.767  0.00  0.00    +0.000 A 
ATOM     20  C   UNL     1      -0.272  10.665  20.442  0.00  0.00    +0.000 A 
ATOM     21  C   UNL     1      -0.328  10.681  21.839  0.00  0.00    +0.000 A 
ATOM     22  C   UNL     1       0.348   9.681  22.550  0.00  0.00    +0.000 A 
ATOM     23  C   UNL     1       1.084   8.697  21.872  0.00  0.00    +0.000 A 
BRANCH  21  24
ATOM     24  N   UNL     1      -1.017  11.666  22.570  0.00  0.00    +0.000 N 
ATOM     25  C   UNL     1      -0.671  12.995  22.690  0.00  0.00    +0.000 C 
ATOM     26  O   UNL     1       0.271  13.615  22.205  0.00  0.00    +0.000 OA
ATOM     27  H   UNL     1      -1.848  11.384  23.085  0.00  0.00    +0.000 HD
BRANCH  25  28
ATOM     28  C   UNL     1      -1.624  13.809  23.578  0.00  0.00    +0.000 C 
ATOM     29  O   UNL     1      -2.833  13.671  23.542  0.00  0.00    +0.000 OA
BRANCH  28  30
ATOM     30  O   UNL     1      -0.931  14.657  24.365  0.00  0.00    +0.000 OA
ATOM     31  H   UNL     1      -0.375  14.123  24.982  0.00  0.00    +0.000 HD
ENDBRANCH  28  30
ENDBRANCH  25  28
ENDBRANCH  21  24
ENDBRANCH   2  18
TORSDOF 9
ENDMDL
MODEL 3
REMARK VINA RESULT:      -7.6      0.725      1.251
REMARK  Name = 
REMARK  12 active torsions:
REMARK  status: ('A' for Active; 'I' for Inactive)
REMARK    1  A    between atoms: C_1  and  O_2
REMARK    2  A    between atoms: O_2  and  C_3
REMARK    3  A    between atoms: C_3  and  C_5
REMARK    4  A    between atoms: C_7  and  C_8
REMARK    5  A    between atoms: C_9  and  C_10
REMARK    6  A    between atoms: C_13  and  N_14
REMARK    7  A    between atoms: C_15  and  C_17
REMARK    8  A    between atoms: C_17  and  O_19
REMARK    9  A    between atoms: C_22  and  N_23
REMARK   10  A    between atoms: N_23  and  C_24
REMARK   11  A    between atoms: N_23  and  C_25
REMARK   12  A    between atoms: C_27  and  O_28
REMARK                            x       y       z     vdW  Elec       q    Type
REMARK                         _______ _______ _______ _____ _____    ______ ____
ROOT
ATOM      1  C   UNL     1       2.035   7.147  19.868  0.00  0.00    +0.000 C 
ATOM      2  C   UNL     1       1.403   7.961  20.489  0.00  0.00    +0.000 C 
ENDROOT
BRANCH   1   5
ATOM      3  C   UNL     1       4.529   5.943  17.373  0.00  0.00    +0.000 A 
ATOM      4  C   UNL     1       3.673   6.755  18.129  0.00  0.00    +0.000 A 
ATOM      5  C   UNL     1       2.799   6.204  19.095  0.00  0.00    +0.000 A 
ATOM      6  C   UNL     1       2.750   4.806  19.318  0.00  0.00    +0.000 A 
ATOM      7  C   UNL     1       3.612   4.018  18.521  0.00  0.00    +0.000 A 
ATOM      8  C   UNL     1       4.493   4.567  17.582  0.00  0.00    +0.000 A 
BRANCH   6   9
ATOM      9  N   UNL     1       1.916   4.143  20.217  0.00  0.00    +0.000 N 
ATOM     10  C   UNL     1       2.263   3.903  21.612  0.00  0.00    +0.000 C 
ATOM     11  C   UNL     1       0.812   3.326  19.712  0.00  0.00    +0.000 C 
ENDBRANCH   6   9
BRANCH   3  12
ATOM     12  C   UNL     1       5.444   6.533  16.357  0.00  0.00    +0.000 C 
ATOM     13  O   UNL     1       5.471   6.246  15.173  0.00  0.00    +0.000 OA
BRANCH  12  15
ATOM     14  C   UNL     1       7.402   6.834  17.595  0.00  0.00    +0.000 C 
ATOM     15  O   UNL     1       6.265   7.433  16.967  0.00  0.00    +0.000 OA
ENDBRANCH  12  15
ENDBRANCH   3  12
BRANCH   8  16
ATOM     16  O   UNL     1       5.335   3.734  16.898  0.00  0.00    +0.000 OA
ATOM     17  H   UNL     1       4.972   2.834  16.881  0.00  0.00    +0.000 HD
ENDBRANCH   8  16
ENDBRANCH   1   5
BRANCH   2  18
ATOM     18  C   UNL     1       0.663   8.996  21.138  0.00  0.00    +0.000 A 
ATOM     19  C   UNL     1       0.402  10.184  20.461  0.00  0.00    +0.000 A 
ATOM     20  C   UNL     1      -0.242  11.240  21.109  0.00  0.00    +0.000 A 
ATOM     21  C   UNL     1      -0.640  11.125  22.444  0.00  0.00    +0.000 A 
ATOM     22  C   UNL     1      -0.401   9.918  23.115  0.00  0.00    +0.000 A 
ATOM     23  C   UNL     1       0.246   8.857  22.464  0.00  0.00    +0.000 A 
BRANCH  21  24
ATOM     24  N   UNL     1      -1.256  12.170  23.157  0.00  0.00    +0.000 N 
ATOM     25  C   UNL     1      -2.542  12.636  22.987  0.00  0.00    +0.000 C 
ATOM     26  O   UNL     1      -3.423  12.265  22.217  0.00  0.00    +0.000 OA
ATOM     27  H   UNL     1      -0.706  12.657  23.861  0.00  0.00    +0.000 HD
BRANCH  25  28
ATOM     28  C   UNL     1      -2.908  13.806  23.912  0.00  0.00    +0.000 C 
ATOM     29  O   UNL     1      -2.342  14.883  23.864  0.00  0.00    +0.000 OA
BRANCH  28  30
ATOM     30  O   UNL     1      -3.912  13.458  24.742  0.00  0.00    +0.000 OA
ATOM     31  H   UNL     1      -4.588  14.178  24.729  0.00  0.00    +0.000 HD
ENDBRANCH  28  30
ENDBRANCH  25  28
ENDBRANCH  21  24
ENDBRANCH   2  18
TORSDOF 9
ENDMDL
MODEL 4
REMARK VINA RESULT:      -7.6      0.643      1.369
REMARK  Name = 
REMARK  12 active torsions:
REMARK  status: ('A' for Active; 'I' for Inactive)
REMARK    1  A    between atoms: C_1  and  O_2
REMARK    2  A    between atoms: O_2  and  C_3
REMARK    3  A    between atoms: C_3  and  C_5
REMARK    4  A    between atoms: C_7  and  C_8
REMARK    5  A    between atoms: C_9  and  C_10
REMARK    6  A    between atoms: C_13  and  N_14
REMARK    7  A    between atoms: C_15  and  C_17
REMARK    8  A    between atoms: C_17  and  O_19
REMARK    9  A    between atoms: C_22  and  N_23
REMARK   10  A    between atoms: N_23  and  C_24
REMARK   11  A    between atoms: N_23  and  C_25
REMARK   12  A    between atoms: C_27  and  O_28
REMARK                            x       y       z     vdW  Elec       q    Type
REMARK                         _______ _______ _______ _____ _____    ______ ____
ROOT
ATOM      1  C   UNL     1       2.379   6.992  19.551  0.00  0.00    +0.000 C 
ATOM      2  C   UNL     1       1.774   7.832  20.164  0.00  0.00    +0.000 C 
ENDROOT
BRANCH   1   5
ATOM      3  C   UNL     1       4.747   5.561  17.054  0.00  0.00    +0.000 A 
ATOM      4  C   UNL     1       3.958   6.446  17.799  0.00  0.00    +0.000 A 
ATOM      5  C   UNL     1       3.068   5.980  18.795  0.00  0.00    +0.000 A 
ATOM      6  C   UNL     1       2.935   4.595  19.059  0.00  0.00    +0.000 A 
ATOM      7  C   UNL     1       3.731   3.732  18.273  0.00  0.00    +0.000 A 
ATOM      8  C   UNL     1       4.628   4.197  17.304  0.00  0.00    +0.000 A 
BRANCH   6   9
ATOM      9  N   UNL     1       2.077   4.012  19.990  0.00  0.00    +0.000 N 
ATOM     10  C   UNL     1       0.735   3.543  19.667  0.00  0.00    +0.000 C 
ATOM     11  C   UNL     1       2.338   4.180  21.420  0.00  0.00    +0.000 C 
ENDBRANCH   6   9
BRANCH   3  12
ATOM     12  C   UNL     1       5.680   6.062  16.007  0.00  0.00    +0.000 C 
ATOM     13  O   UNL     1       5.815   5.592  14.892  0.00  0.00    +0.000 OA
BRANCH  12  15
ATOM     14  C   UNL     1       7.426   6.745  17.401  0.00  0.00    +0.000 C 
ATOM     15  O   UNL     1       6.378   7.122  16.503  0.00  0.00    +0.000 OA
ENDBRANCH  12  15
ENDBRANCH   3  12
BRANCH   8  16
ATOM     16  O   UNL     1       5.404   3.293  16.632  0.00  0.00    +0.000 OA
ATOM     17  H   UNL     1       4.979   2.420  16.637  0.00  0.00    +0.000 HD
ENDBRANCH   8  16
ENDBRANCH   1   5
BRANCH   2  18
ATOM     18  C   UNL     1       0.962   8.796  20.836  0.00  0.00    +0.000 A 
ATOM     19  C   UNL     1       0.311   9.781  20.099  0.00  0.00    +0.000 A 
ATOM     20  C   UNL     1      -0.415  10.785  20.746  0.00  0.00    +0.000 A 
ATOM     21  C   UNL     1      -0.504  10.817  22.141  0.00  0.00    +0.000 A 
ATOM     22  C   UNL     1       0.130   9.808  22.879  0.00  0.00    +0.000 A 
ATOM     23  C   UNL     1       0.858   8.800  22.229  0.00  0.00    +0.000 A 
BRANCH  21  24
ATOM     24  N   UNL     1      -1.187  11.825  22.845  0.00  0.00    +0.000 N 
ATOM     25  C   UNL     1      -0.813  13.147  22.961  0.00  0.00    +0.000 C 
ATOM     26  O   UNL     1       0.155  13.739  22.493  0.00  0.00    +0.000 OA
ATOM     27  H   UNL     1      -2.037  11.568  23.342  0.00  0.00    +0.000 HD
BRANCH  25  28
ATOM     28  C   UNL     1      -1.767  13.992  23.817  0.00  0.00    +0.000 C 
ATOM     29  O   UNL     1      -2.978  13.918  23.718  0.00  0.00    +0.000 OA
BRANCH  28  30
ATOM     30  O   UNL     1      -1.074  14.788  24.655  0.00  0.00    +0.000 OA
ATOM     31  H   UNL     1      -0.130  14.497  24.651  0.00  0.00    +0.000 HD
ENDBRANCH  28  30
ENDBRANCH  25  28
ENDBRANCH  21  24
ENDBRANCH   2  18
TORSDOF 9
ENDMDL
MODEL 5
REMARK VINA RESULT:      -7.5      2.288      2.521
REMARK  Name = 
REMARK  12 active torsions:
REMARK  status: ('A' for Active; 'I' for Inactive)
REMARK    1  A    between atoms: C_1  and  O_2
REMARK    2  A    between atoms: O_2  and  C_3
REMARK    3  A    between atoms: C_3  and  C_5
REMARK    4  A    between atoms: C_7  and  C_8
REMARK    5  A    between atoms: C_9  and  C_10
REMARK    6  A    between atoms: C_13  and  N_14
REMARK    7  A    between atoms: C_15  and  C_17
REMARK    8  A    between atoms: C_17  and  O_19
REMARK    9  A    between atoms: C_22  and  N_23
REMARK   10  A    between atoms: N_23  and  C_24
REMARK   11  A    between atoms: N_23  and  C_25
REMARK   12  A    between atoms: C_27  and  O_28
REMARK                            x       y       z     vdW  Elec       q    Type
REMARK                         _______ _______ _______ _____ _____    ______ ____
ROOT
ATOM      1  C   UNL     1       2.469   7.801  18.084  0.00  0.00    +0.000 C 
ATOM      2  C   UNL     1       1.671   8.696  18.178  0.00  0.00    +0.000 C 
ENDROOT
BRANCH   1   5
ATOM      3  C   UNL     1       5.691   6.106  17.288  0.00  0.00    +0.000 A 
ATOM      4  C   UNL     1       4.645   7.036  17.350  0.00  0.00    +0.000 A 
ATOM      5  C   UNL     1       3.432   6.734  18.012  0.00  0.00    +0.000 A 
ATOM      6  C   UNL     1       3.229   5.470  18.618  0.00  0.00    +0.000 A 
ATOM      7  C   UNL     1       4.299   4.552  18.515  0.00  0.00    +0.000 A 
ATOM      8  C   UNL     1       5.508   4.861  17.881  0.00  0.00    +0.000 A 
BRANCH   6   9
ATOM      9  N   UNL     1       2.074   5.044  19.271  0.00  0.00    +0.000 N 
ATOM     10  C   UNL     1       1.754   5.387  20.651  0.00  0.00    +0.000 C 
ATOM     11  C   UNL     1       1.304   3.926  18.724  0.00  0.00    +0.000 C 
ENDBRANCH   6   9
BRANCH   3  12
ATOM     12  C   UNL     1       6.965   6.434  16.588  0.00  0.00    +0.000 C 
ATOM     13  O   UNL     1       7.509   5.745  15.744  0.00  0.00    +0.000 OA
BRANCH  12  15
ATOM     14  C   UNL     1       8.136   7.504  18.304  0.00  0.00    +0.000 C 
ATOM     15  O   UNL     1       7.439   7.621  17.060  0.00  0.00    +0.000 OA
ENDBRANCH  12  15
ENDBRANCH   3  12
BRANCH   8  16
ATOM     16  O   UNL     1       6.511   3.932  17.882  0.00  0.00    +0.000 OA
ATOM     17  H   UNL     1       6.733   3.681  18.793  0.00  0.00    +0.000 HD
ENDBRANCH   8  16
ENDBRANCH   1   5
BRANCH   2  18
ATOM     18  C   UNL     1       0.759   9.775  18.397  0.00  0.00    +0.000 A 
ATOM     19  C   UNL     1       1.142  10.847  19.198  0.00  0.00    +0.000 A 
ATOM     20  C   UNL     1       0.235  11.866  19.495  0.00  0.00    +0.000 A 
ATOM     21  C   UNL     1      -1.070  11.833  18.993  0.00  0.00    +0.000 A 
ATOM     22  C   UNL     1      -1.443  10.766  18.164  0.00  0.00    +0.000 A 
ATOM     23  C   UNL     1      -0.531   9.742  17.866  0.00  0.00    +0.000 A 
BRANCH  21  24
ATOM     24  N   UNL     1      -2.035  12.811  19.292  0.00  0.00    +0.000 N 
ATOM     25  C   UNL     1      -2.718  12.957  20.481  0.00  0.00    +0.000 C 
ATOM     26  O   UNL     1      -2.646  12.308  21.519  0.00  0.00    +0.000 OA
ATOM     27  H   UNL     1      -2.282  13.477  18.563  0.00  0.00    +0.000 HD
BRANCH  25  28
ATOM     28  C   UNL     1      -3.723  14.118  20.483  0.00  0.00    +0.000 C 
ATOM     29  O   UNL     1      -3.476  15.200  20.983  0.00  0.00    +0.000 OA
BRANCH  28  30
ATOM     30  O   UNL     1      -4.866  13.757  19.867  0.00  0.00    +0.000 OA
ATOM     31  H   UNL     1      -4.998  14.347  19.085  0.00  0.00    +0.000 HD
ENDBRANCH  28  30
ENDBRANCH  25  28
ENDBRANCH  21  24
ENDBRANCH   2  18
TORSDOF 9
ENDMDL
MODEL 6
REMARK VINA RESULT:      -7.4      3.169      3.608
REMARK  Name = 
REMARK  12 active torsions:
REMARK  status: ('A' for Active; 'I' for Inactive)
REMARK    1  A    between atoms: C_1  and  O_2
REMARK    2  A    between atoms: O_2  and  C_3
REMARK    3  A    between atoms: C_3  and  C_5
REMARK    4  A    between atoms: C_7  and  C_8
REMARK    5  A    between atoms: C_9  and  C_10
REMARK    6  A    between atoms: C_13  and  N_14
REMARK    7  A    between atoms: C_15  and  C_17
REMARK    8  A    between atoms: C_17  and  O_19
REMARK    9  A    between atoms: C_22  and  N_23
REMARK   10  A    between atoms: N_23  and  C_24
REMARK   11  A    between atoms: N_23  and  C_25
REMARK   12  A    between atoms: C_27  and  O_28
REMARK                            x       y       z     vdW  Elec       q    Type
REMARK                         _______ _______ _______ _____ _____    ______ ____
ROOT
ATOM      1  C   UNL     1       2.351   7.778  18.075  0.00  0.00    +0.000 C 
ATOM      2  C   UNL     1       1.483   8.612  18.079  0.00  0.00    +0.000 C 
ENDROOT
BRANCH   1   5
ATOM      3  C   UNL     1       5.653   6.197  17.378  0.00  0.00    +0.000 A 
ATOM      4  C   UNL     1       4.566   7.079  17.391  0.00  0.00    +0.000 A 
ATOM      5  C   UNL     1       3.362   6.754  18.057  0.00  0.00    +0.000 A 
ATOM      6  C   UNL     1       3.211   5.511  18.721  0.00  0.00    +0.000 A 
ATOM      7  C   UNL     1       4.322   4.639  18.667  0.00  0.00    +0.000 A 
ATOM      8  C   UNL     1       5.521   4.972  18.027  0.00  0.00    +0.000 A 
BRANCH   6   9
ATOM      9  N   UNL     1       2.070   5.064  19.385  0.00  0.00    +0.000 N 
ATOM     10  C   UNL     1       1.748   5.418  20.762  0.00  0.00    +0.000 C 
ATOM     11  C   UNL     1       1.329   3.917  18.859  0.00  0.00    +0.000 C 
ENDBRANCH   6   9
BRANCH   3  12
ATOM     12  C   UNL     1       6.917   6.549  16.672  0.00  0.00    +0.000 C 
ATOM     13  O   UNL     1       7.502   5.845  15.869  0.00  0.00    +0.000 OA
BRANCH  12  15
ATOM     14  C   UNL     1       8.152   7.745  18.254  0.00  0.00    +0.000 C 
ATOM     15  O   UNL     1       7.328   7.780  17.085  0.00  0.00    +0.000 OA
ENDBRANCH  12  15
ENDBRANCH   3  12
BRANCH   8  16
ATOM     16  O   UNL     1       6.565   4.091  18.077  0.00  0.00    +0.000 OA
ATOM     17  H   UNL     1       7.141   4.213  17.305  0.00  0.00    +0.000 HD
ENDBRANCH   8  16
ENDBRANCH   1   5
BRANCH   2  18
ATOM     18  C   UNL     1       0.378   9.517  18.064  0.00  0.00    +0.000 A 
ATOM     19  C   UNL     1       0.313  10.538  19.009  0.00  0.00    +0.000 A 
ATOM     20  C   UNL     1      -0.803  11.377  19.066  0.00  0.00    +0.000 A 
ATOM     21  C   UNL     1      -1.870  11.211  18.178  0.00  0.00    +0.000 A 
ATOM     22  C   UNL     1      -1.788  10.201  17.211  0.00  0.00    +0.000 A 
ATOM     23  C   UNL     1      -0.667   9.358  17.153  0.00  0.00    +0.000 A 
BRANCH  21  24
ATOM     24  N   UNL     1      -3.033  12.001  18.217  0.00  0.00    +0.000 N 
ATOM     25  C   UNL     1      -4.335  11.550  18.213  0.00  0.00    +0.000 C 
ATOM     26  O   UNL     1      -4.776  10.405  18.186  0.00  0.00    +0.000 OA
ATOM     27  H   UNL     1      -2.922  13.013  18.230  0.00  0.00    +0.000 HD
BRANCH  25  28
ATOM     28  C   UNL     1      -5.383  12.671  18.243  0.00  0.00    +0.000 C 
ATOM     29  O   UNL     1      -6.235  12.798  17.383  0.00  0.00    +0.000 OA
BRANCH  28  30
ATOM     30  O   UNL     1      -5.212  13.451  19.329  0.00  0.00    +0.000 OA
ATOM     31  H   UNL     1      -4.980  12.871  20.095  0.00  0.00    +0.000 HD
ENDBRANCH  28  30
ENDBRANCH  25  28
ENDBRANCH  21  24
ENDBRANCH   2  18
TORSDOF 9
ENDMDL
MODEL 7
REMARK VINA RESULT:      -7.3      3.083      4.528
REMARK  Name = 
REMARK  12 active torsions:
REMARK  status: ('A' for Active; 'I' for Inactive)
REMARK    1  A    between atoms: C_1  and  O_2
REMARK    2  A    between atoms: O_2  and  C_3
REMARK    3  A    between atoms: C_3  and  C_5
REMARK    4  A    between atoms: C_7  and  C_8
REMARK    5  A    between atoms: C_9  and  C_10
REMARK    6  A    between atoms: C_13  and  N_14
REMARK    7  A    between atoms: C_15  and  C_17
REMARK    8  A    between atoms: C_17  and  O_19
REMARK    9  A    between atoms: C_22  and  N_23
REMARK   10  A    between atoms: N_23  and  C_24
REMARK   11  A    between atoms: N_23  and  C_25
REMARK   12  A    between atoms: C_27  and  O_28
REMARK                            x       y       z     vdW  Elec       q    Type
REMARK                         _______ _______ _______ _____ _____    ______ ____
ROOT
ATOM      1  C   UNL     1       2.474   7.213  18.026  0.00  0.00    +0.000 C 
ATOM      2  C   UNL     1       2.080   8.350  18.071  0.00  0.00    +0.000 C 
ENDROOT
BRANCH   1   5
ATOM      3  C   UNL     1       2.280   3.517  18.460  0.00  0.00    +0.000 A 
ATOM      4  C   UNL     1       2.005   4.889  18.515  0.00  0.00    +0.000 A 
ATOM      5  C   UNL     1       2.909   5.842  17.990  0.00  0.00    +0.000 A 
ATOM      6  C   UNL     1       4.134   5.438  17.405  0.00  0.00    +0.000 A 
ATOM      7  C   UNL     1       4.386   4.047  17.388  0.00  0.00    +0.000 A 
ATOM      8  C   UNL     1       3.479   3.104  17.887  0.00  0.00    +0.000 A 
BRANCH   6   9
ATOM      9  N   UNL     1       5.115   6.277  16.882  0.00  0.00    +0.000 N 
ATOM     10  C   UNL     1       5.197   6.642  15.473  0.00  0.00    +0.000 C 
ATOM     11  C   UNL     1       6.332   6.537  17.652  0.00  0.00    +0.000 C 
ENDBRANCH   6   9
BRANCH   3  12
ATOM     12  C   UNL     1       1.322   2.521  19.017  0.00  0.00    +0.000 C 
ATOM     13  O   UNL     1       0.252   2.213  18.523  0.00  0.00    +0.000 OA
BRANCH  12  15
ATOM     14  C   UNL     1       1.403   2.753  21.341  0.00  0.00    +0.000 C 
ATOM     15  O   UNL     1       1.823   2.026  20.182  0.00  0.00    +0.000 OA
ENDBRANCH  12  15
ENDBRANCH   3  12
BRANCH   8  16
ATOM     16  O   UNL     1       3.778   1.774  17.774  0.00  0.00    +0.000 OA
ATOM     17  H   UNL     1       3.896   1.537  16.840  0.00  0.00    +0.000 HD
ENDBRANCH   8  16
ENDBRANCH   1   5
BRANCH   2  18
ATOM     18  C   UNL     1       1.524   9.661  18.185  0.00  0.00    +0.000 A 
ATOM     19  C   UNL     1       2.363  10.771  18.129  0.00  0.00    +0.000 A 
ATOM     20  C   UNL     1       1.849  12.055  18.327  0.00  0.00    +0.000 A 
ATOM     21  C   UNL     1       0.488  12.250  18.581  0.00  0.00    +0.000 A 
ATOM     22  C   UNL     1      -0.357  11.133  18.609  0.00  0.00    +0.000 A 
ATOM     23  C   UNL     1       0.159   9.843  18.410  0.00  0.00    +0.000 A 
BRANCH  21  24
ATOM     24  N   UNL     1      -0.074  13.516  18.827  0.00  0.00    +0.000 N 
ATOM     25  C   UNL     1      -0.352  14.068  20.059  0.00  0.00    +0.000 C 
ATOM     26  O   UNL     1      -0.176  13.617  21.186  0.00  0.00    +0.000 OA
ATOM     27  H   UNL     1      -0.326  14.090  18.025  0.00  0.00    +0.000 HD
BRANCH  25  28
ATOM     28  C   UNL     1      -0.984  15.466  19.987  0.00  0.00    +0.000 C 
ATOM     29  O   UNL     1      -0.327  16.475  19.809  0.00  0.00    +0.000 OA
BRANCH  28  30
ATOM     30  O   UNL     1      -2.321  15.390  20.143  0.00  0.00    +0.000 OA
ATOM     31  H   UNL     1      -2.554  15.779  21.021  0.00  0.00    +0.000 HD
ENDBRANCH  28  30
ENDBRANCH  25  28
ENDBRANCH  21  24
ENDBRANCH   2  18
TORSDOF 9
ENDMDL
MODEL 8
REMARK VINA RESULT:      -7.2      3.293      4.702
REMARK  Name = 
REMARK  12 active torsions:
REMARK  status: ('A' for Active; 'I' for Inactive)
REMARK    1  A    between atoms: C_1  and  O_2
REMARK    2  A    between atoms: O_2  and  C_3
REMARK    3  A    between atoms: C_3  and  C_5
REMARK    4  A    between atoms: C_7  and  C_8
REMARK    5  A    between atoms: C_9  and  C_10
REMARK    6  A    between atoms: C_13  and  N_14
REMARK    7  A    between atoms: C_15  and  C_17
REMARK    8  A    between atoms: C_17  and  O_19
REMARK    9  A    between atoms: C_22  and  N_23
REMARK   10  A    between atoms: N_23  and  C_24
REMARK   11  A    between atoms: N_23  and  C_25
REMARK   12  A    between atoms: C_27  and  O_28
REMARK                            x       y       z     vdW  Elec       q    Type
REMARK                         _______ _______ _______ _____ _____    ______ ____
ROOT
ATOM      1  C   UNL     1       2.460   7.256  18.079  0.00  0.00    +0.000 C 
ATOM      2  C   UNL     1       2.078   8.396  18.139  0.00  0.00    +0.000 C 
ENDROOT
BRANCH   1   5
ATOM      3  C   UNL     1       2.280   3.562  18.539  0.00  0.00    +0.000 A 
ATOM      4  C   UNL     1       2.005   4.935  18.592  0.00  0.00    +0.000 A 
ATOM      5  C   UNL     1       2.896   5.885  18.041  0.00  0.00    +0.000 A 
ATOM      6  C   UNL     1       4.108   5.478  17.430  0.00  0.00    +0.000 A 
ATOM      7  C   UNL     1       4.360   4.087  17.416  0.00  0.00    +0.000 A 
ATOM      8  C   UNL     1       3.466   3.146  17.941  0.00  0.00    +0.000 A 
BRANCH   6   9
ATOM      9  N   UNL     1       5.075   6.315  16.879  0.00  0.00    +0.000 N 
ATOM     10  C   UNL     1       5.174   6.606  15.454  0.00  0.00    +0.000 C 
ATOM     11  C   UNL     1       6.270   6.650  17.655  0.00  0.00    +0.000 C 
ENDBRANCH   6   9
BRANCH   3  12
ATOM     12  C   UNL     1       1.336   2.570  19.124  0.00  0.00    +0.000 C 
ATOM     13  O   UNL     1       0.241   2.281  18.675  0.00  0.00    +0.000 OA
BRANCH  12  15
ATOM     14  C   UNL     1       1.504   2.747  21.448  0.00  0.00    +0.000 C 
ATOM     15  O   UNL     1       1.883   2.050  20.258  0.00  0.00    +0.000 OA
ENDBRANCH  12  15
ENDBRANCH   3  12
BRANCH   8  16
ATOM     16  O   UNL     1       3.763   1.817  17.829  0.00  0.00    +0.000 OA
ATOM     17  H   UNL     1       4.245   1.515  18.616  0.00  0.00    +0.000 HD
ENDBRANCH   8  16
ENDBRANCH   1   5
BRANCH   2  18
ATOM     18  C   UNL     1       1.579   9.723  18.313  0.00  0.00    +0.000 A 
ATOM     19  C   UNL     1       0.246   9.916  18.663  0.00  0.00    +0.000 A 
ATOM     20  C   UNL     1      -0.282  11.207  18.750  0.00  0.00    +0.000 A 
ATOM     21  C   UNL     1       0.516  12.326  18.492  0.00  0.00    +0.000 A 
ATOM     22  C   UNL     1       1.865  12.128  18.167  0.00  0.00    +0.000 A 
ATOM     23  C   UNL     1       2.395  10.832  18.079  0.00  0.00    +0.000 A 
BRANCH  21  24
ATOM     24  N   UNL     1       0.027  13.644  18.526  0.00  0.00    +0.000 N 
ATOM     25  C   UNL     1       0.356  14.620  19.442  0.00  0.00    +0.000 C 
ATOM     26  O   UNL     1       1.125  14.583  20.398  0.00  0.00    +0.000 OA
ATOM     27  H   UNL     1      -0.654  13.918  17.822  0.00  0.00    +0.000 HD
BRANCH  25  28
ATOM     28  C   UNL     1      -0.368  15.956  19.215  0.00  0.00    +0.000 C 
ATOM     29  O   UNL     1       0.205  16.954  18.817  0.00  0.00    +0.000 OA
BRANCH  28  30
ATOM     30  O   UNL     1      -1.677  15.843  19.515  0.00  0.00    +0.000 OA
ATOM     31  H   UNL     1      -2.201  16.113  18.722  0.00  0.00    +0.000 HD
ENDBRANCH  28  30
ENDBRANCH  25  28
ENDBRANCH  21  24
ENDBRANCH   2  18
TORSDOF 9
ENDMDL
MODEL 9
REMARK VINA RESULT:      -7.2      0.851      1.488
REMARK  Name = 
REMARK  12 active torsions:
REMARK  status: ('A' for Active; 'I' for Inactive)
REMARK    1  A    between atoms: C_1  and  O_2
REMARK    2  A    between atoms: O_2  and  C_3
REMARK    3  A    between atoms: C_3  and  C_5
REMARK    4  A    between atoms: C_7  and  C_8
REMARK    5  A    between atoms: C_9  and  C_10
REMARK    6  A    between atoms: C_13  and  N_14
REMARK    7  A    between atoms: C_15  and  C_17
REMARK    8  A    between atoms: C_17  and  O_19
REMARK    9  A    between atoms: C_22  and  N_23
REMARK   10  A    between atoms: N_23  and  C_24
REMARK   11  A    between atoms: N_23  and  C_25
REMARK   12  A    between atoms: C_27  and  O_28
REMARK                            x       y       z     vdW  Elec       q    Type
REMARK                         _______ _______ _______ _____ _____    ______ ____
ROOT
ATOM      1  C   UNL     1       2.234   7.080  19.763  0.00  0.00    +0.000 C 
ATOM      2  C   UNL     1       1.637   7.965  20.317  0.00  0.00    +0.000 C 
ENDROOT
BRANCH   1   5
ATOM      3  C   UNL     1       4.683   5.575  17.390  0.00  0.00    +0.000 A 
ATOM      4  C   UNL     1       3.865   6.481  18.077  0.00  0.00    +0.000 A 
ATOM      5  C   UNL     1       2.953   6.046  19.067  0.00  0.00    +0.000 A 
ATOM      6  C   UNL     1       2.825   4.671  19.383  0.00  0.00    +0.000 A 
ATOM      7  C   UNL     1       3.650   3.786  18.653  0.00  0.00    +0.000 A 
ATOM      8  C   UNL     1       4.569   4.220  17.691  0.00  0.00    +0.000 A 
BRANCH   6   9
ATOM      9  N   UNL     1       1.947   4.117  20.312  0.00  0.00    +0.000 N 
ATOM     10  C   UNL     1       2.341   3.722  21.659  0.00  0.00    +0.000 C 
ATOM     11  C   UNL     1       0.671   3.560  19.860  0.00  0.00    +0.000 C 
ENDBRANCH   6   9
BRANCH   3  12
ATOM     12  C   UNL     1       5.640   6.044  16.350  0.00  0.00    +0.000 C 
ATOM     13  O   UNL     1       6.490   6.902  16.502  0.00  0.00    +0.000 OA
BRANCH  12  15
ATOM     14  C   UNL     1       6.586   4.992  14.490  0.00  0.00    +0.000 C 
ATOM     15  O   UNL     1       5.398   5.374  15.189  0.00  0.00    +0.000 OA
ENDBRANCH  12  15
ENDBRANCH   3  12
BRANCH   8  16
ATOM     16  O   UNL     1       5.371   3.299  17.078  0.00  0.00    +0.000 OA
ATOM     17  H   UNL     1       5.223   2.419  17.462  0.00  0.00    +0.000 HD
ENDBRANCH   8  16
ENDBRANCH   1   5
BRANCH   2  18
ATOM     18  C   UNL     1       0.928   9.073  20.876  0.00  0.00    +0.000 A 
ATOM     19  C   UNL     1       0.670  10.192  20.090  0.00  0.00    +0.000 A 
ATOM     20  C   UNL     1       0.058  11.319  20.644  0.00  0.00    +0.000 A 
ATOM     21  C   UNL     1      -0.310  11.343  21.993  0.00  0.00    +0.000 A 
ATOM     22  C   UNL     1      -0.074  10.205  22.774  0.00  0.00    +0.000 A 
ATOM     23  C   UNL     1       0.541   9.073  22.218  0.00  0.00    +0.000 A 
BRANCH  21  24
ATOM     24  N   UNL     1      -0.893  12.464  22.611  0.00  0.00    +0.000 N 
ATOM     25  C   UNL     1      -2.146  12.531  23.182  0.00  0.00    +0.000 C 
ATOM     26  O   UNL     1      -3.012  11.669  23.294  0.00  0.00    +0.000 OA
ATOM     27  H   UNL     1      -0.358  13.329  22.632  0.00  0.00    +0.000 HD
BRANCH  25  28
ATOM     28  C   UNL     1      -2.494  13.911  23.760  0.00  0.00    +0.000 C 
ATOM     29  O   UNL     1      -1.686  14.594  24.361  0.00  0.00    +0.000 OA
BRANCH  28  30
ATOM     30  O   UNL     1      -3.780  14.223  23.501  0.00  0.00    +0.000 OA
ATOM     31  H   UNL     1      -4.346  13.462  23.779  0.00  0.00    +0.000 HD
ENDBRANCH  28  30
ENDBRANCH  25  28
ENDBRANCH  21  24
ENDBRANCH   2  18
TORSDOF 9
ENDMDL
