MODEL 1
REMARK VINA RESULT:      -7.1      0.000      0.000
REMARK  Name = 
REMARK  8 active torsions:
REMARK  status: ('A' for Active; 'I' for Inactive)
REMARK    1  A    between atoms: C_1  and  C_2
REMARK    2  A    between atoms: C_2  and  C_3
REMARK    3  A    between atoms: C_3  and  S_4
REMARK    4  A    between atoms: S_4  and  N_7
REMARK    5  A    between atoms: C_8  and  C_10
REMARK    6  A    between atoms: C_10  and  C_11
REMARK    7  A    between atoms: C_16  and  C_18
REMARK    8  A    between atoms: C_21  and  C_22
REMARK                            x       y       z     vdW  Elec       q    Type
REMARK                         _______ _______ _______ _____ _____    ______ ____
ROOT
ATOM      1  C   UNL     1       2.624   5.132  19.249  0.00  0.00    +0.000 C 
ATOM      2  C   UNL     1       2.121   5.466  20.679  0.00  0.00    +0.000 C 
ATOM      3  C   UNL     1       1.698   4.036  18.680  0.00  0.00    +0.000 C 
ATOM      4  C   UNL     1       2.280   3.234  17.515  0.00  0.00    +0.000 C 
ATOM      5  C   UNL     1       3.711   2.788  17.793  0.00  0.00    +0.000 C 
ATOM      6  N   UNL     1       4.533   3.945  18.148  0.00  0.00    +0.000 N 
ATOM      7  C   UNL     1       5.541   4.330  17.252  0.00  0.00    +0.000 C 
ATOM      8  O   UNL     1       5.682   3.772  16.165  0.00  0.00    +0.000 OA
ATOM      9  C   UNL     1       4.079   4.655  19.353  0.00  0.00    +0.000 C 
ENDROOT
BRANCH   7  10
ATOM     10  C   UNL     1       6.411   5.503  17.524  0.00  0.00    +0.000 A 
ATOM     11  C   UNL     1       7.461   5.473  18.447  0.00  0.00    +0.000 A 
ATOM     12  C   UNL     1       8.141   6.647  18.774  0.00  0.00    +0.000 A 
ATOM     13  C   UNL     1       7.837   7.841  18.104  0.00  0.00    +0.000 A 
ATOM     14  C   UNL     1       6.876   7.847  17.096  0.00  0.00    +0.000 A 
ATOM     15  C   UNL     1       6.158   6.684  16.811  0.00  0.00    +0.000 A 
BRANCH  13  16
ATOM     16  C   UNL     1       8.540   9.044  18.445  0.00  0.00    +0.000 C 
ATOM     17  N   UNL     1       9.089  10.024  18.706  0.00  0.00    +0.000 NA
ENDBRANCH  13  16
ENDBRANCH   7  10
BRANCH   1  19
ATOM     18  N   UNL     1       2.046   7.592  19.120  0.00  0.00    +0.000 N 
ATOM     19  C   UNL     1       2.583   6.463  18.482  0.00  0.00    +0.000 C 
ATOM     20  O   UNL     1       3.004   6.552  17.333  0.00  0.00    +0.000 OA
ATOM     21  H   UNL     1       1.702   7.579  20.076  0.00  0.00    +0.000 HD
BRANCH  18  22
ATOM     22  S   UNL     1       1.682   9.005  18.303  0.00  0.00    +0.000 S 
ATOM     23  O   UNL     1       0.579   8.668  17.432  0.00  0.00    +0.000 OA
ATOM     24  O   UNL     1       2.908   9.547  17.769  0.00  0.00    +0.000 OA
BRANCH  22  25
ATOM     25  C   UNL     1       1.064  10.045  19.626  0.00  0.00    +0.000 C 
BRANCH  25  27
ATOM     26  C   UNL     1      -0.301   8.927  21.396  0.00  0.00    +0.000 C 
ATOM     27  C   UNL     1       1.100   9.345  20.976  0.00  0.00    +0.000 C 
ENDBRANCH  25  27
ENDBRANCH  22  25
ENDBRANCH  18  22
ENDBRANCH   1  19
TORSDOF 6
ENDMDL
MODEL 2
REMARK VINA RESULT:      -6.7      0.493      1.077
REMARK  Name = 
REMARK  8 active torsions:
REMARK  status: ('A' for Active; 'I' for Inactive)
REMARK    1  A    between atoms: C_1  and  C_2
REMARK    2  A    between atoms: C_2  and  C_3
REMARK    3  A    between atoms: C_3  and  S_4
REMARK    4  A    between atoms: S_4  and  N_7
REMARK    5  A    between atoms: C_8  and  C_10
REMARK    6  A    between atoms: C_10  and  C_11
REMARK    7  A    between atoms: C_16  and  C_18
REMARK    8  A    between atoms: C_21  and  C_22
REMARK                            x       y       z     vdW  Elec       q    Type
REMARK                         _______ _______ _______ _____ _____    ______ ____
ROOT
ATOM      1  C   UNL     1       2.545   5.343  19.256  0.00  0.00    +0.000 C 
ATOM      2  C   UNL     1       1.947   5.654  20.655  0.00  0.00    +0.000 C 
ATOM      3  C   UNL     1       1.754   4.153  18.673  0.00  0.00    +0.000 C 
ATOM      4  C   UNL     1       2.462   3.388  17.553  0.00  0.00    +0.000 C 
ATOM      5  C   UNL     1       3.914   3.087  17.904  0.00  0.00    +0.000 C 
ATOM      6  N   UNL     1       4.606   4.323  18.267  0.00  0.00    +0.000 N 
ATOM      7  C   UNL     1       5.613   4.786  17.408  0.00  0.00    +0.000 C 
ATOM      8  O   UNL     1       5.856   4.223  16.341  0.00  0.00    +0.000 OA
ATOM      9  C   UNL     1       4.032   5.009  19.434  0.00  0.00    +0.000 C 
ENDROOT
BRANCH   7  10
ATOM     10  C   UNL     1       6.355   6.041  17.691  0.00  0.00    +0.000 A 
ATOM     11  C   UNL     1       5.995   7.278  17.146  0.00  0.00    +0.000 A 
ATOM     12  C   UNL     1       6.821   8.389  17.321  0.00  0.00    +0.000 A 
ATOM     13  C   UNL     1       7.964   8.291  18.127  0.00  0.00    +0.000 A 
ATOM     14  C   UNL     1       8.259   7.091  18.772  0.00  0.00    +0.000 A 
ATOM     15  C   UNL     1       7.463   5.966  18.550  0.00  0.00    +0.000 A 
BRANCH  13  16
ATOM     16  C   UNL     1       8.808   9.437  18.303  0.00  0.00    +0.000 C 
ATOM     17  N   UNL     1       9.496  10.349  18.465  0.00  0.00    +0.000 NA
ENDBRANCH  13  16
ENDBRANCH   7  10
BRANCH   1  19
ATOM     18  N   UNL     1       2.031   7.818  19.136  0.00  0.00    +0.000 N 
ATOM     19  C   UNL     1       2.414   6.649  18.458  0.00  0.00    +0.000 C 
ATOM     20  O   UNL     1       2.631   6.686  17.251  0.00  0.00    +0.000 OA
ATOM     21  H   UNL     1       1.859   7.848  20.136  0.00  0.00    +0.000 HD
BRANCH  18  22
ATOM     22  S   UNL     1       1.576   9.216  18.340  0.00  0.00    +0.000 S 
ATOM     23  O   UNL     1       0.413   8.852  17.563  0.00  0.00    +0.000 OA
ATOM     24  O   UNL     1       2.745   9.777  17.705  0.00  0.00    +0.000 OA
BRANCH  22  25
ATOM     25  C   UNL     1       1.047  10.256  19.702  0.00  0.00    +0.000 C 
BRANCH  25  27
ATOM     26  C   UNL     1      -0.120   9.136  21.607  0.00  0.00    +0.000 C 
ATOM     27  C   UNL     1      -0.300   9.830  20.265  0.00  0.00    +0.000 C 
ENDBRANCH  25  27
ENDBRANCH  22  25
ENDBRANCH  18  22
ENDBRANCH   1  19
TORSDOF 6
ENDMDL
MODEL 3
REMARK VINA RESULT:      -6.3      3.483      6.051
REMARK  Name = 
REMARK  8 active torsions:
REMARK  status: ('A' for Active; 'I' for Inactive)
REMARK    1  A    between atoms: C_1  and  C_2
REMARK    2  A    between atoms: C_2  and  C_3
REMARK    3  A    between atoms: C_3  and  S_4
REMARK    4  A    between atoms: S_4  and  N_7
REMARK    5  A    between atoms: C_8  and  C_10
REMARK    6  A    between atoms: C_10  and  C_11
REMARK    7  A    between atoms: C_16  and  C_18
REMARK    8  A    between atoms: C_21  and  C_22
REMARK                            x       y       z     vdW  Elec       q    Type
REMARK                         _______ _______ _______ _____ _____    ______ ____
ROOT
ATOM      1  C   UNL     1       3.418   3.138  17.702  0.00  0.00    +0.000 C 
ATOM      2  C   UNL     1       3.162   2.662  16.247  0.00  0.00    +0.000 C 
ATOM      3  C   UNL     1       3.728   1.884  18.547  0.00  0.00    +0.000 C 
ATOM      4  C   UNL     1       3.537   2.054  20.056  0.00  0.00    +0.000 C 
ATOM      5  C   UNL     1       2.218   2.744  20.386  0.00  0.00    +0.000 C 
ATOM      6  N   UNL     1       2.122   4.010  19.659  0.00  0.00    +0.000 N 
ATOM      7  C   UNL     1       2.155   5.196  20.406  0.00  0.00    +0.000 C 
ATOM      8  O   UNL     1       2.341   5.185  21.622  0.00  0.00    +0.000 OA
ATOM      9  C   UNL     1       2.159   3.864  18.197  0.00  0.00    +0.000 C 
ENDROOT
BRANCH   7  10
ATOM     10  C   UNL     1       2.081   6.526  19.748  0.00  0.00    +0.000 A 
ATOM     11  C   UNL     1       2.568   6.767  18.460  0.00  0.00    +0.000 A 
ATOM     12  C   UNL     1       2.614   8.068  17.959  0.00  0.00    +0.000 A 
ATOM     13  C   UNL     1       2.079   9.125  18.708  0.00  0.00    +0.000 A 
ATOM     14  C   UNL     1       1.480   8.871  19.941  0.00  0.00    +0.000 A 
ATOM     15  C   UNL     1       1.487   7.577  20.465  0.00  0.00    +0.000 A 
BRANCH  13  16
ATOM     16  C   UNL     1       2.128  10.461  18.187  0.00  0.00    +0.000 C 
ATOM     17  N   UNL     1       2.164  11.543  17.790  0.00  0.00    +0.000 NA
ENDBRANCH  13  16
ENDBRANCH   7  10
BRANCH   1  19
ATOM     18  N   UNL     1       5.120   4.421  16.341  0.00  0.00    +0.000 N 
ATOM     19  C   UNL     1       4.574   4.143  17.604  0.00  0.00    +0.000 C 
ATOM     20  O   UNL     1       5.027   4.697  18.601  0.00  0.00    +0.000 OA
ATOM     21  H   UNL     1       4.771   4.006  15.481  0.00  0.00    +0.000 HD
BRANCH  18  22
ATOM     22  S   UNL     1       6.552   5.261  16.139  0.00  0.00    +0.000 S 
ATOM     23  O   UNL     1       7.517   4.573  16.966  0.00  0.00    +0.000 OA
ATOM     24  O   UNL     1       6.283   6.667  16.329  0.00  0.00    +0.000 OA
BRANCH  22  25
ATOM     25  C   UNL     1       6.934   4.926  14.420  0.00  0.00    +0.000 C 
BRANCH  25  27
ATOM     26  C   UNL     1       6.418   3.559  12.393  0.00  0.00    +0.000 C 
ATOM     27  C   UNL     1       5.960   3.941  13.793  0.00  0.00    +0.000 C 
ENDBRANCH  25  27
ENDBRANCH  22  25
ENDBRANCH  18  22
ENDBRANCH   1  19
TORSDOF 6
ENDMDL
MODEL 4
REMARK VINA RESULT:      -6.3      1.600      1.965
REMARK  Name = 
REMARK  8 active torsions:
REMARK  status: ('A' for Active; 'I' for Inactive)
REMARK    1  A    between atoms: C_1  and  C_2
REMARK    2  A    between atoms: C_2  and  C_3
REMARK    3  A    between atoms: C_3  and  S_4
REMARK    4  A    between atoms: S_4  and  N_7
REMARK    5  A    between atoms: C_8  and  C_10
REMARK    6  A    between atoms: C_10  and  C_11
REMARK    7  A    between atoms: C_16  and  C_18
REMARK    8  A    between atoms: C_21  and  C_22
REMARK                            x       y       z     vdW  Elec       q    Type
REMARK                         _______ _______ _______ _____ _____    ______ ____
ROOT
ATOM      1  C   UNL     1       2.422   3.928  20.266  0.00  0.00    +0.000 C 
ATOM      2  C   UNL     1       2.425   3.922  21.818  0.00  0.00    +0.000 C 
ATOM      3  C   UNL     1       1.438   2.833  19.804  0.00  0.00    +0.000 C 
ATOM      4  C   UNL     1       1.634   2.345  18.367  0.00  0.00    +0.000 C 
ATOM      5  C   UNL     1       3.101   2.064  18.060  0.00  0.00    +0.000 C 
ATOM      6  N   UNL     1       3.910   3.242  18.372  0.00  0.00    +0.000 N 
ATOM      7  C   UNL     1       4.513   3.922  17.304  0.00  0.00    +0.000 C 
ATOM      8  O   UNL     1       4.307   3.595  16.136  0.00  0.00    +0.000 OA
ATOM      9  C   UNL     1       3.853   3.650  19.783  0.00  0.00    +0.000 C 
ENDROOT
BRANCH   7  10
ATOM     10  C   UNL     1       5.338   5.138  17.528  0.00  0.00    +0.000 A 
ATOM     11  C   UNL     1       4.874   6.430  17.265  0.00  0.00    +0.000 A 
ATOM     12  C   UNL     1       5.745   7.517  17.343  0.00  0.00    +0.000 A 
ATOM     13  C   UNL     1       7.063   7.327  17.783  0.00  0.00    +0.000 A 
ATOM     14  C   UNL     1       7.493   6.057  18.165  0.00  0.00    +0.000 A 
ATOM     15  C   UNL     1       6.636   4.963  18.030  0.00  0.00    +0.000 A 
BRANCH  13  16
ATOM     16  C   UNL     1       7.953   8.449  17.863  0.00  0.00    +0.000 C 
ATOM     17  N   UNL     1       8.650   9.366  17.926  0.00  0.00    +0.000 NA
ENDBRANCH  13  16
ENDBRANCH   7  10
BRANCH   1  19
ATOM     18  N   UNL     1       1.939   6.338  20.864  0.00  0.00    +0.000 N 
ATOM     19  C   UNL     1       2.023   5.356  19.864  0.00  0.00    +0.000 C 
ATOM     20  O   UNL     1       1.774   5.647  18.699  0.00  0.00    +0.000 OA
ATOM     21  H   UNL     1       2.152   6.156  21.840  0.00  0.00    +0.000 HD
BRANCH  18  22
ATOM     22  S   UNL     1       1.240   7.835  20.604  0.00  0.00    +0.000 S 
ATOM     23  O   UNL     1      -0.185   7.606  20.660  0.00  0.00    +0.000 OA
ATOM     24  O   UNL     1       1.850   8.422  19.434  0.00  0.00    +0.000 OA
BRANCH  22  25
ATOM     25  C   UNL     1       1.732   8.729  22.078  0.00  0.00    +0.000 C 
BRANCH  25  27
ATOM     26  C   UNL     1       0.080  10.604  22.063  0.00  0.00    +0.000 C 
ATOM     27  C   UNL     1       0.546   9.355  22.796  0.00  0.00    +0.000 C 
ENDBRANCH  25  27
ENDBRANCH  22  25
ENDBRANCH  18  22
ENDBRANCH   1  19
TORSDOF 6
ENDMDL
MODEL 5
REMARK VINA RESULT:      -6.2      1.555      1.761
REMARK  Name = 
REMARK  8 active torsions:
REMARK  status: ('A' for Active; 'I' for Inactive)
REMARK    1  A    between atoms: C_1  and  C_2
REMARK    2  A    between atoms: C_2  and  C_3
REMARK    3  A    between atoms: C_3  and  S_4
REMARK    4  A    between atoms: S_4  and  N_7
REMARK    5  A    between atoms: C_8  and  C_10
REMARK    6  A    between atoms: C_10  and  C_11
REMARK    7  A    between atoms: C_16  and  C_18
REMARK    8  A    between atoms: C_21  and  C_22
REMARK                            x       y       z     vdW  Elec       q    Type
REMARK                         _______ _______ _______ _____ _____    ______ ____
ROOT
ATOM      1  C   UNL     1       2.349   4.070  20.280  0.00  0.00    +0.000 C 
ATOM      2  C   UNL     1       2.463   4.126  21.828  0.00  0.00    +0.000 C 
ATOM      3  C   UNL     1       1.203   3.095  19.939  0.00  0.00    +0.000 C 
ATOM      4  C   UNL     1       1.232   2.529  18.518  0.00  0.00    +0.000 C 
ATOM      5  C   UNL     1       2.625   2.047  18.129  0.00  0.00    +0.000 C 
ATOM      6  N   UNL     1       3.598   3.121  18.329  0.00  0.00    +0.000 N 
ATOM      7  C   UNL     1       4.205   3.673  17.192  0.00  0.00    +0.000 C 
ATOM      8  O   UNL     1       3.876   3.330  16.057  0.00  0.00    +0.000 OA
ATOM      9  C   UNL     1       3.695   3.589  19.719  0.00  0.00    +0.000 C 
ENDROOT
BRANCH   7  10
ATOM     10  C   UNL     1       5.191   4.779  17.301  0.00  0.00    +0.000 A 
ATOM     11  C   UNL     1       6.434   4.632  17.925  0.00  0.00    +0.000 A 
ATOM     12  C   UNL     1       7.249   5.744  18.136  0.00  0.00    +0.000 A 
ATOM     13  C   UNL     1       6.868   6.996  17.633  0.00  0.00    +0.000 A 
ATOM     14  C   UNL     1       5.688   7.122  16.902  0.00  0.00    +0.000 A 
ATOM     15  C   UNL     1       4.846   6.019  16.742  0.00  0.00    +0.000 A 
BRANCH  13  16
ATOM     16  C   UNL     1       7.711   8.136  17.852  0.00  0.00    +0.000 C 
ATOM     17  N   UNL     1       8.378   9.055  18.049  0.00  0.00    +0.000 NA
ENDBRANCH  13  16
ENDBRANCH   7  10
BRANCH   1  19
ATOM     18  N   UNL     1       1.923   6.504  20.821  0.00  0.00    +0.000 N 
ATOM     19  C   UNL     1       2.107   5.521  19.837  0.00  0.00    +0.000 C 
ATOM     20  O   UNL     1       2.068   5.828  18.650  0.00  0.00    +0.000 OA
ATOM     21  H   UNL     1       1.965   6.308  21.817  0.00  0.00    +0.000 HD
BRANCH  18  22
ATOM     22  S   UNL     1       1.368   8.042  20.470  0.00  0.00    +0.000 S 
ATOM     23  O   UNL     1      -0.066   7.911  20.345  0.00  0.00    +0.000 OA
ATOM     24  O   UNL     1       2.159   8.572  19.386  0.00  0.00    +0.000 OA
BRANCH  22  25
ATOM     25  C   UNL     1       1.728   8.918  21.992  0.00  0.00    +0.000 C 
BRANCH  25  27
ATOM     26  C   UNL     1      -0.258   9.578  23.356  0.00  0.00    +0.000 C 
ATOM     27  C   UNL     1       0.720  10.020  22.278  0.00  0.00    +0.000 C 
ENDBRANCH  25  27
ENDBRANCH  22  25
ENDBRANCH  18  22
ENDBRANCH   1  19
TORSDOF 6
ENDMDL
MODEL 6
REMARK VINA RESULT:      -6.2      2.874      5.496
REMARK  Name = 
REMARK  8 active torsions:
REMARK  status: ('A' for Active; 'I' for Inactive)
REMARK    1  A    between atoms: C_1  and  C_2
REMARK    2  A    between atoms: C_2  and  C_3
REMARK    3  A    between atoms: C_3  and  S_4
REMARK    4  A    between atoms: S_4  and  N_7
REMARK    5  A    between atoms: C_8  and  C_10
REMARK    6  A    between atoms: C_10  and  C_11
REMARK    7  A    between atoms: C_16  and  C_18
REMARK    8  A    between atoms: C_21  and  C_22
REMARK                            x       y       z     vdW  Elec       q    Type
REMARK                         _______ _______ _______ _____ _____    ______ ____
ROOT
ATOM      1  C   UNL     1       3.404   3.024  17.785  0.00  0.00    +0.000 C 
ATOM      2  C   UNL     1       3.146   2.538  16.333  0.00  0.00    +0.000 C 
ATOM      3  C   UNL     1       3.695   1.774  18.642  0.00  0.00    +0.000 C 
ATOM      4  C   UNL     1       3.501   1.960  20.149  0.00  0.00    +0.000 C 
ATOM      5  C   UNL     1       2.191   2.671  20.468  0.00  0.00    +0.000 C 
ATOM      6  N   UNL     1       2.115   3.931  19.729  0.00  0.00    +0.000 N 
ATOM      7  C   UNL     1       2.161   5.123  20.465  0.00  0.00    +0.000 C 
ATOM      8  O   UNL     1       2.343   5.121  21.682  0.00  0.00    +0.000 OA
ATOM      9  C   UNL     1       2.154   3.771  18.268  0.00  0.00    +0.000 C 
ENDROOT
BRANCH   7  10
ATOM     10  C   UNL     1       2.107   6.449  19.796  0.00  0.00    +0.000 A 
ATOM     11  C   UNL     1       2.633   6.679  18.521  0.00  0.00    +0.000 A 
ATOM     12  C   UNL     1       2.694   7.977  18.011  0.00  0.00    +0.000 A 
ATOM     13  C   UNL     1       2.136   9.040  18.736  0.00  0.00    +0.000 A 
ATOM     14  C   UNL     1       1.501   8.795  19.952  0.00  0.00    +0.000 A 
ATOM     15  C   UNL     1       1.492   7.505  20.486  0.00  0.00    +0.000 A 
BRANCH  13  16
ATOM     16  C   UNL     1       2.201  10.371  18.206  0.00  0.00    +0.000 C 
ATOM     17  N   UNL     1       2.267  11.433  17.762  0.00  0.00    +0.000 NA
ENDBRANCH  13  16
ENDBRANCH   7  10
BRANCH   1  19
ATOM     18  N   UNL     1       4.931   4.506  16.415  0.00  0.00    +0.000 N 
ATOM     19  C   UNL     1       4.575   4.013  17.681  0.00  0.00    +0.000 C 
ATOM     20  O   UNL     1       5.199   4.372  18.675  0.00  0.00    +0.000 OA
ATOM     21  H   UNL     1       4.436   4.257  15.564  0.00  0.00    +0.000 HD
BRANCH  18  22
ATOM     22  S   UNL     1       6.350   5.346  16.139  0.00  0.00    +0.000 S 
ATOM     23  O   UNL     1       6.238   5.850  14.790  0.00  0.00    +0.000 OA
ATOM     24  O   UNL     1       7.457   4.503  16.524  0.00  0.00    +0.000 OA
BRANCH  22  25
ATOM     25  C   UNL     1       6.188   6.722  17.277  0.00  0.00    +0.000 C 
BRANCH  25  27
ATOM     26  C   UNL     1       7.843   8.552  17.673  0.00  0.00    +0.000 C 
ATOM     27  C   UNL     1       7.511   7.090  17.930  0.00  0.00    +0.000 C 
ENDBRANCH  25  27
ENDBRANCH  22  25
ENDBRANCH  18  22
ENDBRANCH   1  19
TORSDOF 6
ENDMDL
MODEL 7
REMARK VINA RESULT:      -6.1      1.810      2.264
REMARK  Name = 
REMARK  8 active torsions:
REMARK  status: ('A' for Active; 'I' for Inactive)
REMARK    1  A    between atoms: C_1  and  C_2
REMARK    2  A    between atoms: C_2  and  C_3
REMARK    3  A    between atoms: C_3  and  S_4
REMARK    4  A    between atoms: S_4  and  N_7
REMARK    5  A    between atoms: C_8  and  C_10
REMARK    6  A    between atoms: C_10  and  C_11
REMARK    7  A    between atoms: C_16  and  C_18
REMARK    8  A    between atoms: C_21  and  C_22
REMARK                            x       y       z     vdW  Elec       q    Type
REMARK                         _______ _______ _______ _____ _____    ______ ____
ROOT
ATOM      1  C   UNL     1       2.421   3.810  20.217  0.00  0.00    +0.000 C 
ATOM      2  C   UNL     1       2.412   3.784  21.769  0.00  0.00    +0.000 C 
ATOM      3  C   UNL     1       1.443   2.718  19.734  0.00  0.00    +0.000 C 
ATOM      4  C   UNL     1       1.652   2.249  18.292  0.00  0.00    +0.000 C 
ATOM      5  C   UNL     1       3.122   1.977  17.992  0.00  0.00    +0.000 C 
ATOM      6  N   UNL     1       3.925   3.154  18.326  0.00  0.00    +0.000 N 
ATOM      7  C   UNL     1       4.533   3.849  17.271  0.00  0.00    +0.000 C 
ATOM      8  O   UNL     1       4.337   3.537  16.098  0.00  0.00    +0.000 OA
ATOM      9  C   UNL     1       3.856   3.543  19.742  0.00  0.00    +0.000 C 
ENDROOT
BRANCH   7  10
ATOM     10  C   UNL     1       5.352   5.065  17.517  0.00  0.00    +0.000 A 
ATOM     11  C   UNL     1       4.892   6.358  17.253  0.00  0.00    +0.000 A 
ATOM     12  C   UNL     1       5.760   7.446  17.353  0.00  0.00    +0.000 A 
ATOM     13  C   UNL     1       7.070   7.255  17.816  0.00  0.00    +0.000 A 
ATOM     14  C   UNL     1       7.494   5.983  18.199  0.00  0.00    +0.000 A 
ATOM     15  C   UNL     1       6.641   4.889  18.042  0.00  0.00    +0.000 A 
BRANCH  13  16
ATOM     16  C   UNL     1       7.957   8.377  17.919  0.00  0.00    +0.000 C 
ATOM     17  N   UNL     1       8.682   9.271  17.983  0.00  0.00    +0.000 NA
ENDBRANCH  13  16
ENDBRANCH   7  10
BRANCH   1  19
ATOM     18  N   UNL     1       2.125   6.254  20.797  0.00  0.00    +0.000 N 
ATOM     19  C   UNL     1       2.019   5.242  19.831  0.00  0.00    +0.000 C 
ATOM     20  O   UNL     1       1.608   5.510  18.706  0.00  0.00    +0.000 OA
ATOM     21  H   UNL     1       2.477   6.092  21.736  0.00  0.00    +0.000 HD
BRANCH  18  22
ATOM     22  S   UNL     1       1.453   7.772  20.594  0.00  0.00    +0.000 S 
ATOM     23  O   UNL     1       2.049   8.594  21.621  0.00  0.00    +0.000 OA
ATOM     24  O   UNL     1       0.019   7.623  20.504  0.00  0.00    +0.000 OA
BRANCH  22  25
ATOM     25  C   UNL     1       2.129   8.262  19.007  0.00  0.00    +0.000 C 
BRANCH  25  27
ATOM     26  C   UNL     1       1.217  10.582  18.829  0.00  0.00    +0.000 C 
ATOM     27  C   UNL     1       1.192   9.180  18.238  0.00  0.00    +0.000 C 
ENDBRANCH  25  27
ENDBRANCH  22  25
ENDBRANCH  18  22
ENDBRANCH   1  19
TORSDOF 6
ENDMDL
MODEL 8
REMARK VINA RESULT:      -6.1      1.158      1.292
REMARK  Name = 
REMARK  8 active torsions:
REMARK  status: ('A' for Active; 'I' for Inactive)
REMARK    1  A    between atoms: C_1  and  C_2
REMARK    2  A    between atoms: C_2  and  C_3
REMARK    3  A    between atoms: C_3  and  S_4
REMARK    4  A    between atoms: S_4  and  N_7
REMARK    5  A    between atoms: C_8  and  C_10
REMARK    6  A    between atoms: C_10  and  C_11
REMARK    7  A    between atoms: C_16  and  C_18
REMARK    8  A    between atoms: C_21  and  C_22
REMARK                            x       y       z     vdW  Elec       q    Type
REMARK                         _______ _______ _______ _____ _____    ______ ____
ROOT
ATOM      1  C   UNL     1       2.439   5.314  19.449  0.00  0.00    +0.000 C 
ATOM      2  C   UNL     1       1.994   5.713  20.882  0.00  0.00    +0.000 C 
ATOM      3  C   UNL     1       1.458   4.234  18.947  0.00  0.00    +0.000 C 
ATOM      4  C   UNL     1       1.973   3.373  17.792  0.00  0.00    +0.000 C 
ATOM      5  C   UNL     1       3.395   2.885  18.041  0.00  0.00    +0.000 C 
ATOM      6  N   UNL     1       4.269   4.022  18.331  0.00  0.00    +0.000 N 
ATOM      7  C   UNL     1       5.260   4.340  17.391  0.00  0.00    +0.000 C 
ATOM      8  O   UNL     1       5.346   3.742  16.320  0.00  0.00    +0.000 OA
ATOM      9  C   UNL     1       3.879   4.787  19.524  0.00  0.00    +0.000 C 
ENDROOT
BRANCH   7  10
ATOM     10  C   UNL     1       6.180   5.489  17.596  0.00  0.00    +0.000 A 
ATOM     11  C   UNL     1       7.292   5.431  18.442  0.00  0.00    +0.000 A 
ATOM     12  C   UNL     1       8.025   6.587  18.716  0.00  0.00    +0.000 A 
ATOM     13  C   UNL     1       7.708   7.787  18.065  0.00  0.00    +0.000 A 
ATOM     14  C   UNL     1       6.677   7.819  17.127  0.00  0.00    +0.000 A 
ATOM     15  C   UNL     1       5.909   6.675  16.898  0.00  0.00    +0.000 A 
BRANCH  13  16
ATOM     16  C   UNL     1       8.466   8.971  18.349  0.00  0.00    +0.000 C 
ATOM     17  N   UNL     1       9.070   9.920  18.601  0.00  0.00    +0.000 NA
ENDBRANCH  13  16
ENDBRANCH   7  10
BRANCH   1  19
ATOM     18  N   UNL     1       2.103   7.817  19.299  0.00  0.00    +0.000 N 
ATOM     19  C   UNL     1       2.421   6.619  18.639  0.00  0.00    +0.000 C 
ATOM     20  O   UNL     1       2.673   6.630  17.438  0.00  0.00    +0.000 OA
ATOM     21  H   UNL     1       1.906   7.867  20.294  0.00  0.00    +0.000 HD
BRANCH  18  22
ATOM     22  S   UNL     1       1.768   9.237  18.482  0.00  0.00    +0.000 S 
ATOM     23  O   UNL     1       2.720   9.286  17.396  0.00  0.00    +0.000 OA
ATOM     24  O   UNL     1       1.690  10.307  19.448  0.00  0.00    +0.000 OA
BRANCH  22  25
ATOM     25  C   UNL     1       0.145   8.893  17.801  0.00  0.00    +0.000 C 
BRANCH  25  27
ATOM     26  C   UNL     1      -1.754  10.243  18.704  0.00  0.00    +0.000 C 
ATOM     27  C   UNL     1      -0.686  10.154  17.624  0.00  0.00    +0.000 C 
ENDBRANCH  25  27
ENDBRANCH  22  25
ENDBRANCH  18  22
ENDBRANCH   1  19
TORSDOF 6
ENDMDL
MODEL 9
REMARK VINA RESULT:      -6.1      2.918      5.512
REMARK  Name = 
REMARK  8 active torsions:
REMARK  status: ('A' for Active; 'I' for Inactive)
REMARK    1  A    between atoms: C_1  and  C_2
REMARK    2  A    between atoms: C_2  and  C_3
REMARK    3  A    between atoms: C_3  and  S_4
REMARK    4  A    between atoms: S_4  and  N_7
REMARK    5  A    between atoms: C_8  and  C_10
REMARK    6  A    between atoms: C_10  and  C_11
REMARK    7  A    between atoms: C_16  and  C_18
REMARK    8  A    between atoms: C_21  and  C_22
REMARK                            x       y       z     vdW  Elec       q    Type
REMARK                         _______ _______ _______ _____ _____    ______ ____
ROOT
ATOM      1  C   UNL     1       3.412   3.129  17.481  0.00  0.00    +0.000 C 
ATOM      2  C   UNL     1       3.223   2.833  15.969  0.00  0.00    +0.000 C 
ATOM      3  C   UNL     1       3.574   1.773  18.199  0.00  0.00    +0.000 C 
ATOM      4  C   UNL     1       3.292   1.795  19.703  0.00  0.00    +0.000 C 
ATOM      5  C   UNL     1       2.007   2.547  20.027  0.00  0.00    +0.000 C 
ATOM      6  N   UNL     1       2.051   3.886  19.442  0.00  0.00    +0.000 N 
ATOM      7  C   UNL     1       2.117   4.980  20.317  0.00  0.00    +0.000 C 
ATOM      8  O   UNL     1       2.218   4.825  21.533  0.00  0.00    +0.000 OA
ATOM      9  C   UNL     1       2.178   3.895  17.977  0.00  0.00    +0.000 C 
ENDROOT
BRANCH   7  10
ATOM     10  C   UNL     1       2.183   6.375  19.808  0.00  0.00    +0.000 A 
ATOM     11  C   UNL     1       1.656   7.465  20.508  0.00  0.00    +0.000 A 
ATOM     12  C   UNL     1       1.607   8.724  19.909  0.00  0.00    +0.000 A 
ATOM     13  C   UNL     1       2.176   8.920  18.643  0.00  0.00    +0.000 A 
ATOM     14  C   UNL     1       2.812   7.862  17.996  0.00  0.00    +0.000 A 
ATOM     15  C   UNL     1       2.809   6.590  18.572  0.00  0.00    +0.000 A 
BRANCH  13  16
ATOM     16  C   UNL     1       2.123  10.217  18.034  0.00  0.00    +0.000 C 
ATOM     17  N   UNL     1       2.063  11.253  17.531  0.00  0.00    +0.000 NA
ENDBRANCH  13  16
ENDBRANCH   7  10
BRANCH   1  19
ATOM     18  N   UNL     1       5.173   4.573  16.378  0.00  0.00    +0.000 N 
ATOM     19  C   UNL     1       4.642   4.046  17.566  0.00  0.00    +0.000 C 
ATOM     20  O   UNL     1       5.164   4.319  18.642  0.00  0.00    +0.000 OA
ATOM     21  H   UNL     1       4.769   4.396  15.463  0.00  0.00    +0.000 HD
BRANCH  18  22
ATOM     22  S   UNL     1       6.660   5.333  16.312  0.00  0.00    +0.000 S 
ATOM     23  O   UNL     1       6.792   5.795  14.949  0.00  0.00    +0.000 OA
ATOM     24  O   UNL     1       7.645   4.452  16.893  0.00  0.00    +0.000 OA
BRANCH  22  25
ATOM     25  C   UNL     1       6.392   6.755  17.371  0.00  0.00    +0.000 C 
BRANCH  25  27
ATOM     26  C   UNL     1       7.988   8.642  17.741  0.00  0.00    +0.000 C 
ATOM     27  C   UNL     1       7.664   7.195  18.080  0.00  0.00    +0.000 C 
ENDBRANCH  25  27
ENDBRANCH  22  25
ENDBRANCH  18  22
ENDBRANCH   1  19
TORSDOF 6
ENDMDL
