MODEL 1
REMARK VINA RESULT:      -7.7      0.000      0.000
REMARK  Name = 
REMARK  4 active torsions:
REMARK  status: ('A' for Active; 'I' for Inactive)
REMARK    1  A    between atoms: C_8  and  O_9
REMARK    2  A    between atoms: O_9  and  C_10
REMARK    3  A    between atoms: C_10  and  C_11
REMARK    4  A    between atoms: C_11  and  C_12
REMARK                            x       y       z     vdW  Elec       q    Type
REMARK                         _______ _______ _______ _____ _____    ______ ____
ROOT
ATOM      1 CL   UNL     1       1.574   4.977  17.788  0.00  0.00    +0.000 Cl
ATOM      2  C   UNL     1       3.170   4.593  18.339  0.00  0.00    +0.000 A 
ATOM      3  C   UNL     1       3.299   3.497  19.183  0.00  0.00    +0.000 A 
ATOM      4  C   UNL     1       4.560   3.189  19.635  0.00  0.00    +0.000 A 
ATOM      5  N   UNL     1       5.666   3.891  19.307  0.00  0.00    +0.000 NA
ATOM      6  C   UNL     1       5.539   4.953  18.489  0.00  0.00    +0.000 A 
ATOM      7  C   UNL     1       6.677   5.684  18.169  0.00  0.00    +0.000 A 
ATOM      8  C   UNL     1       6.628   6.817  17.350  0.00  0.00    +0.000 A 
ATOM      9  C   UNL     1       5.415   7.192  16.787  0.00  0.00    +0.000 A 
ATOM     10  C   UNL     1       4.256   6.478  17.098  0.00  0.00    +0.000 A 
ATOM     11  C   UNL     1       4.297   5.355  17.959  0.00  0.00    +0.000 A 
ENDROOT
BRANCH   8  12
ATOM     12  O   UNL     1       7.815   7.474  17.168  0.00  0.00    +0.000 OA
BRANCH  12  13
ATOM     13  C   UNL     1       8.223   8.316  18.251  0.00  0.00    +0.000 C 
BRANCH  13  14
ATOM     14  C   UNL     1       8.302   9.767  17.768  0.00  0.00    +0.000 C 
BRANCH  14  15
ATOM     15  C   UNL     1       9.357  10.534  18.529  0.00  0.00    +0.000 A 
ATOM     16  C   UNL     1       9.266  10.661  19.923  0.00  0.00    +0.000 A 
ATOM     17  C   UNL     1      10.187  11.441  20.626  0.00  0.00    +0.000 A 
ATOM     18  C   UNL     1      11.210  12.094  19.944  0.00  0.00    +0.000 A 
ATOM     19  C   UNL     1      11.323  11.958  18.562  0.00  0.00    +0.000 A 
ATOM     20  C   UNL     1      10.399  11.183  17.854  0.00  0.00    +0.000 A 
ENDBRANCH  14  15
ENDBRANCH  13  14
ENDBRANCH  12  13
ENDBRANCH   8  12
TORSDOF 4
ENDMDL
MODEL 2
REMARK VINA RESULT:      -7.5      1.409      2.207
REMARK  Name = 
REMARK  4 active torsions:
REMARK  status: ('A' for Active; 'I' for Inactive)
REMARK    1  A    between atoms: C_8  and  O_9
REMARK    2  A    between atoms: O_9  and  C_10
REMARK    3  A    between atoms: C_10  and  C_11
REMARK    4  A    between atoms: C_11  and  C_12
REMARK                            x       y       z     vdW  Elec       q    Type
REMARK                         _______ _______ _______ _____ _____    ______ ____
ROOT
ATOM      1 CL   UNL     1       4.559   2.415  19.855  0.00  0.00    +0.000 Cl
ATOM      2  C   UNL     1       4.069   3.836  18.994  0.00  0.00    +0.000 A 
ATOM      3  C   UNL     1       2.715   3.967  18.713  0.00  0.00    +0.000 A 
ATOM      4  C   UNL     1       2.316   5.086  18.022  0.00  0.00    +0.000 A 
ATOM      5  N   UNL     1       3.163   6.051  17.604  0.00  0.00    +0.000 NA
ATOM      6  C   UNL     1       4.475   5.922  17.877  0.00  0.00    +0.000 A 
ATOM      7  C   UNL     1       5.347   6.908  17.429  0.00  0.00    +0.000 A 
ATOM      8  C   UNL     1       6.726   6.835  17.645  0.00  0.00    +0.000 A 
ATOM      9  C   UNL     1       7.241   5.777  18.384  0.00  0.00    +0.000 A 
ATOM     10  C   UNL     1       6.388   4.771  18.840  0.00  0.00    +0.000 A 
ATOM     11  C   UNL     1       4.995   4.821  18.587  0.00  0.00    +0.000 A 
ENDROOT
BRANCH   8  12
ATOM     12  O   UNL     1       7.471   7.845  17.097  0.00  0.00    +0.000 OA
BRANCH  12  13
ATOM     13  C   UNL     1       8.378   8.495  17.993  0.00  0.00    +0.000 C 
BRANCH  13  14
ATOM     14  C   UNL     1       8.147  10.009  17.943  0.00  0.00    +0.000 C 
BRANCH  14  15
ATOM     15  C   UNL     1       9.298  10.753  18.576  0.00  0.00    +0.000 A 
ATOM     16  C   UNL     1      10.352  11.226  17.781  0.00  0.00    +0.000 A 
ATOM     17  C   UNL     1      11.463  11.838  18.367  0.00  0.00    +0.000 A 
ATOM     18  C   UNL     1      11.526  11.989  19.749  0.00  0.00    +0.000 A 
ATOM     19  C   UNL     1      10.476  11.542  20.547  0.00  0.00    +0.000 A 
ATOM     20  C   UNL     1       9.365  10.923  19.965  0.00  0.00    +0.000 A 
ENDBRANCH  14  15
ENDBRANCH  13  14
ENDBRANCH  12  13
ENDBRANCH   8  12
TORSDOF 4
ENDMDL
MODEL 3
REMARK VINA RESULT:      -7.5      4.836      6.489
REMARK  Name = 
REMARK  4 active torsions:
REMARK  status: ('A' for Active; 'I' for Inactive)
REMARK    1  A    between atoms: C_8  and  O_9
REMARK    2  A    between atoms: O_9  and  C_10
REMARK    3  A    between atoms: C_10  and  C_11
REMARK    4  A    between atoms: C_11  and  C_12
REMARK                            x       y       z     vdW  Elec       q    Type
REMARK                         _______ _______ _______ _____ _____    ______ ____
ROOT
ATOM      1 CL   UNL     1       5.868   3.822  14.576  0.00  0.00    +0.000 Cl
ATOM      2  C   UNL     1       6.153   4.186  16.245  0.00  0.00    +0.000 A 
ATOM      3  C   UNL     1       7.452   4.520  16.605  0.00  0.00    +0.000 A 
ATOM      4  C   UNL     1       7.693   4.801  17.928  0.00  0.00    +0.000 A 
ATOM      5  N   UNL     1       6.741   4.766  18.886  0.00  0.00    +0.000 NA
ATOM      6  C   UNL     1       5.483   4.441  18.536  0.00  0.00    +0.000 A 
ATOM      7  C   UNL     1       4.510   4.388  19.528  0.00  0.00    +0.000 A 
ATOM      8  C   UNL     1       3.186   4.032  19.253  0.00  0.00    +0.000 A 
ATOM      9  C   UNL     1       2.811   3.782  17.939  0.00  0.00    +0.000 A 
ATOM     10  C   UNL     1       3.770   3.822  16.926  0.00  0.00    +0.000 A 
ATOM     11  C   UNL     1       5.120   4.143  17.207  0.00  0.00    +0.000 A 
ENDROOT
BRANCH   8  12
ATOM     12  O   UNL     1       2.350   3.962  20.335  0.00  0.00    +0.000 OA
BRANCH  12  13
ATOM     13  C   UNL     1       1.320   4.955  20.380  0.00  0.00    +0.000 C 
BRANCH  13  14
ATOM     14  C   UNL     1       1.886   6.250  20.970  0.00  0.00    +0.000 C 
BRANCH  14  15
ATOM     15  C   UNL     1       1.784   7.385  19.979  0.00  0.00    +0.000 A 
ATOM     16  C   UNL     1       2.375   7.268  18.712  0.00  0.00    +0.000 A 
ATOM     17  C   UNL     1       2.363   8.344  17.821  0.00  0.00    +0.000 A 
ATOM     18  C   UNL     1       1.754   9.541  18.185  0.00  0.00    +0.000 A 
ATOM     19  C   UNL     1       1.145   9.663  19.432  0.00  0.00    +0.000 A 
ATOM     20  C   UNL     1       1.162   8.590  20.329  0.00  0.00    +0.000 A 
ENDBRANCH  14  15
ENDBRANCH  13  14
ENDBRANCH  12  13
ENDBRANCH   8  12
TORSDOF 4
ENDMDL
MODEL 4
REMARK VINA RESULT:      -7.5      5.060      7.541
REMARK  Name = 
REMARK  4 active torsions:
REMARK  status: ('A' for Active; 'I' for Inactive)
REMARK    1  A    between atoms: C_8  and  O_9
REMARK    2  A    between atoms: O_9  and  C_10
REMARK    3  A    between atoms: C_10  and  C_11
REMARK    4  A    between atoms: C_11  and  C_12
REMARK                            x       y       z     vdW  Elec       q    Type
REMARK                         _______ _______ _______ _____ _____    ______ ____
ROOT
ATOM      1 CL   UNL     1       5.484   2.617  11.782  0.00  0.00    +0.000 Cl
ATOM      2  C   UNL     1       6.394   3.755  12.718  0.00  0.00    +0.000 A 
ATOM      3  C   UNL     1       7.407   4.444  12.062  0.00  0.00    +0.000 A 
ATOM      4  C   UNL     1       8.143   5.343  12.797  0.00  0.00    +0.000 A 
ATOM      5  N   UNL     1       7.936   5.584  14.109  0.00  0.00    +0.000 NA
ATOM      6  C   UNL     1       6.956   4.915  14.744  0.00  0.00    +0.000 A 
ATOM      7  C   UNL     1       6.758   5.152  16.099  0.00  0.00    +0.000 A 
ATOM      8  C   UNL     1       5.781   4.478  16.838  0.00  0.00    +0.000 A 
ATOM      9  C   UNL     1       4.936   3.587  16.189  0.00  0.00    +0.000 A 
ATOM     10  C   UNL     1       5.117   3.326  14.829  0.00  0.00    +0.000 A 
ATOM     11  C   UNL     1       6.133   3.977  14.088  0.00  0.00    +0.000 A 
ENDROOT
BRANCH   8  12
ATOM     12  O   UNL     1       5.739   4.767  18.176  0.00  0.00    +0.000 OA
BRANCH  12  13
ATOM     13  C   UNL     1       5.126   6.015  18.516  0.00  0.00    +0.000 C 
BRANCH  13  14
ATOM     14  C   UNL     1       3.723   6.077  17.904  0.00  0.00    +0.000 C 
BRANCH  14  15
ATOM     15  C   UNL     1       2.748   5.243  18.701  0.00  0.00    +0.000 A 
ATOM     16  C   UNL     1       2.696   5.366  20.097  0.00  0.00    +0.000 A 
ATOM     17  C   UNL     1       1.862   4.538  20.852  0.00  0.00    +0.000 A 
ATOM     18  C   UNL     1       1.066   3.588  20.217  0.00  0.00    +0.000 A 
ATOM     19  C   UNL     1       1.093   3.472  18.830  0.00  0.00    +0.000 A 
ATOM     20  C   UNL     1       1.933   4.294  18.072  0.00  0.00    +0.000 A 
ENDBRANCH  14  15
ENDBRANCH  13  14
ENDBRANCH  12  13
ENDBRANCH   8  12
TORSDOF 4
ENDMDL
MODEL 5
REMARK VINA RESULT:      -7.5      3.314      4.595
REMARK  Name = 
REMARK  4 active torsions:
REMARK  status: ('A' for Active; 'I' for Inactive)
REMARK    1  A    between atoms: C_8  and  O_9
REMARK    2  A    between atoms: O_9  and  C_10
REMARK    3  A    between atoms: C_10  and  C_11
REMARK    4  A    between atoms: C_11  and  C_12
REMARK                            x       y       z     vdW  Elec       q    Type
REMARK                         _______ _______ _______ _____ _____    ______ ____
ROOT
ATOM      1 CL   UNL     1       1.546   6.448  21.119  0.00  0.00    +0.000 Cl
ATOM      2  C   UNL     1       1.762   4.933  20.309  0.00  0.00    +0.000 A 
ATOM      3  C   UNL     1       1.207   3.811  20.911  0.00  0.00    +0.000 A 
ATOM      4  C   UNL     1       1.381   2.601  20.282  0.00  0.00    +0.000 A 
ATOM      5  N   UNL     1       2.059   2.449  19.124  0.00  0.00    +0.000 NA
ATOM      6  C   UNL     1       2.598   3.537  18.542  0.00  0.00    +0.000 A 
ATOM      7  C   UNL     1       3.311   3.374  17.361  0.00  0.00    +0.000 A 
ATOM      8  C   UNL     1       3.925   4.447  16.708  0.00  0.00    +0.000 A 
ATOM      9  C   UNL     1       3.769   5.729  17.220  0.00  0.00    +0.000 A 
ATOM     10  C   UNL     1       3.063   5.919  18.409  0.00  0.00    +0.000 A 
ATOM     11  C   UNL     1       2.474   4.828  19.093  0.00  0.00    +0.000 A 
ENDROOT
BRANCH   8  12
ATOM     12  O   UNL     1       4.645   4.132  15.587  0.00  0.00    +0.000 OA
BRANCH  12  13
ATOM     13  C   UNL     1       5.951   3.598  15.826  0.00  0.00    +0.000 C 
BRANCH  13  14
ATOM     14  C   UNL     1       7.003   4.667  15.515  0.00  0.00    +0.000 C 
BRANCH  14  15
ATOM     15  C   UNL     1       7.320   5.487  16.743  0.00  0.00    +0.000 A 
ATOM     16  C   UNL     1       7.376   6.886  16.659  0.00  0.00    +0.000 A 
ATOM     17  C   UNL     1       7.755   7.649  17.766  0.00  0.00    +0.000 A 
ATOM     18  C   UNL     1       8.072   7.021  18.967  0.00  0.00    +0.000 A 
ATOM     19  C   UNL     1       8.000   5.634  19.068  0.00  0.00    +0.000 A 
ATOM     20  C   UNL     1       7.629   4.867  17.960  0.00  0.00    +0.000 A 
ENDBRANCH  14  15
ENDBRANCH  13  14
ENDBRANCH  12  13
ENDBRANCH   8  12
TORSDOF 4
ENDMDL
MODEL 6
REMARK VINA RESULT:      -7.4      5.017      7.751
REMARK  Name = 
REMARK  4 active torsions:
REMARK  status: ('A' for Active; 'I' for Inactive)
REMARK    1  A    between atoms: C_8  and  O_9
REMARK    2  A    between atoms: O_9  and  C_10
REMARK    3  A    between atoms: C_10  and  C_11
REMARK    4  A    between atoms: C_11  and  C_12
REMARK                            x       y       z     vdW  Elec       q    Type
REMARK                         _______ _______ _______ _____ _____    ______ ____
ROOT
ATOM      1 CL   UNL     1       5.320   2.665  11.730  0.00  0.00    +0.000 Cl
ATOM      2  C   UNL     1       6.321   3.769  12.613  0.00  0.00    +0.000 A 
ATOM      3  C   UNL     1       7.302   4.443  11.896  0.00  0.00    +0.000 A 
ATOM      4  C   UNL     1       8.109   5.314  12.587  0.00  0.00    +0.000 A 
ATOM      5  N   UNL     1       8.000   5.543  13.914  0.00  0.00    +0.000 NA
ATOM      6  C   UNL     1       7.050   4.889  14.608  0.00  0.00    +0.000 A 
ATOM      7  C   UNL     1       6.953   5.113  15.976  0.00  0.00    +0.000 A 
ATOM      8  C   UNL     1       6.013   4.454  16.773  0.00  0.00    +0.000 A 
ATOM      9  C   UNL     1       5.104   3.591  16.175  0.00  0.00    +0.000 A 
ATOM     10  C   UNL     1       5.184   3.344  14.803  0.00  0.00    +0.000 A 
ATOM     11  C   UNL     1       6.161   3.980  14.000  0.00  0.00    +0.000 A 
ENDROOT
BRANCH   8  12
ATOM     12  O   UNL     1       6.071   4.726  18.114  0.00  0.00    +0.000 OA
BRANCH  12  13
ATOM     13  C   UNL     1       5.301   5.853  18.546  0.00  0.00    +0.000 C 
BRANCH  13  14
ATOM     14  C   UNL     1       4.362   5.425  19.677  0.00  0.00    +0.000 C 
BRANCH  14  15
ATOM     15  C   UNL     1       3.349   4.417  19.187  0.00  0.00    +0.000 A 
ATOM     16  C   UNL     1       2.334   4.813  18.303  0.00  0.00    +0.000 A 
ATOM     17  C   UNL     1       1.341   3.912  17.914  0.00  0.00    +0.000 A 
ATOM     18  C   UNL     1       1.359   2.606  18.395  0.00  0.00    +0.000 A 
ATOM     19  C   UNL     1       2.374   2.195  19.256  0.00  0.00    +0.000 A 
ATOM     20  C   UNL     1       3.365   3.097  19.654  0.00  0.00    +0.000 A 
ENDBRANCH  14  15
ENDBRANCH  13  14
ENDBRANCH  12  13
ENDBRANCH   8  12
TORSDOF 4
ENDMDL
MODEL 7
REMARK VINA RESULT:      -7.4      4.773      7.344
REMARK  Name = 
REMARK  4 active torsions:
REMARK  status: ('A' for Active; 'I' for Inactive)
REMARK    1  A    between atoms: C_8  and  O_9
REMARK    2  A    between atoms: O_9  and  C_10
REMARK    3  A    between atoms: C_10  and  C_11
REMARK    4  A    between atoms: C_11  and  C_12
REMARK                            x       y       z     vdW  Elec       q    Type
REMARK                         _______ _______ _______ _____ _____    ______ ____
ROOT
ATOM      1 CL   UNL     1       7.726   7.148  17.514  0.00  0.00    +0.000 Cl
ATOM      2  C   UNL     1       6.852   5.879  16.723  0.00  0.00    +0.000 A 
ATOM      3  C   UNL     1       6.986   5.787  15.343  0.00  0.00    +0.000 A 
ATOM      4  C   UNL     1       6.289   4.790  14.703  0.00  0.00    +0.000 A 
ATOM      5  N   UNL     1       5.488   3.908  15.339  0.00  0.00    +0.000 NA
ATOM      6  C   UNL     1       5.359   3.999  16.676  0.00  0.00    +0.000 A 
ATOM      7  C   UNL     1       4.519   3.102  17.325  0.00  0.00    +0.000 A 
ATOM      8  C   UNL     1       4.307   3.146  18.706  0.00  0.00    +0.000 A 
ATOM      9  C   UNL     1       5.004   4.076  19.468  0.00  0.00    +0.000 A 
ATOM     10  C   UNL     1       5.848   4.993  18.840  0.00  0.00    +0.000 A 
ATOM     11  C   UNL     1       6.033   4.976  17.436  0.00  0.00    +0.000 A 
ENDROOT
BRANCH   8  12
ATOM     12  O   UNL     1       3.408   2.241  19.202  0.00  0.00    +0.000 OA
BRANCH  12  13
ATOM     13  C   UNL     1       2.234   2.043  18.408  0.00  0.00    +0.000 C 
BRANCH  13  14
ATOM     14  C   UNL     1       1.071   2.835  19.012  0.00  0.00    +0.000 C 
BRANCH  14  15
ATOM     15  C   UNL     1       1.438   4.291  19.181  0.00  0.00    +0.000 A 
ATOM     16  C   UNL     1       1.771   5.066  18.061  0.00  0.00    +0.000 A 
ATOM     17  C   UNL     1       2.196   6.388  18.214  0.00  0.00    +0.000 A 
ATOM     18  C   UNL     1       2.284   6.947  19.486  0.00  0.00    +0.000 A 
ATOM     19  C   UNL     1       1.935   6.193  20.604  0.00  0.00    +0.000 A 
ATOM     20  C   UNL     1       1.516   4.868  20.455  0.00  0.00    +0.000 A 
ENDBRANCH  14  15
ENDBRANCH  13  14
ENDBRANCH  12  13
ENDBRANCH   8  12
TORSDOF 4
ENDMDL
MODEL 8
REMARK VINA RESULT:      -7.3      4.875      7.623
REMARK  Name = 
REMARK  4 active torsions:
REMARK  status: ('A' for Active; 'I' for Inactive)
REMARK    1  A    between atoms: C_8  and  O_9
REMARK    2  A    between atoms: O_9  and  C_10
REMARK    3  A    between atoms: C_10  and  C_11
REMARK    4  A    between atoms: C_11  and  C_12
REMARK                            x       y       z     vdW  Elec       q    Type
REMARK                         _______ _______ _______ _____ _____    ______ ____
ROOT
ATOM      1 CL   UNL     1       5.574   5.764  14.623  0.00  0.00    +0.000 Cl
ATOM      2  C   UNL     1       5.954   5.378  16.268  0.00  0.00    +0.000 A 
ATOM      3  C   UNL     1       7.219   4.860  16.519  0.00  0.00    +0.000 A 
ATOM      4  C   UNL     1       7.528   4.540  17.819  0.00  0.00    +0.000 A 
ATOM      5  N   UNL     1       6.673   4.698  18.853  0.00  0.00    +0.000 NA
ATOM      6  C   UNL     1       5.448   5.198  18.609  0.00  0.00    +0.000 A 
ATOM      7  C   UNL     1       4.564   5.341  19.672  0.00  0.00    +0.000 A 
ATOM      8  C   UNL     1       3.264   5.826  19.500  0.00  0.00    +0.000 A 
ATOM      9  C   UNL     1       2.857   6.237  18.237  0.00  0.00    +0.000 A 
ATOM     10  C   UNL     1       3.723   6.098  17.150  0.00  0.00    +0.000 A 
ATOM     11  C   UNL     1       5.026   5.569  17.316  0.00  0.00    +0.000 A 
ENDROOT
BRANCH   8  12
ATOM     12  O   UNL     1       2.484   5.857  20.624  0.00  0.00    +0.000 OA
BRANCH  12  13
ATOM     13  C   UNL     1       1.186   5.270  20.487  0.00  0.00    +0.000 C 
BRANCH  13  14
ATOM     14  C   UNL     1       1.244   3.799  20.908  0.00  0.00    +0.000 C 
BRANCH  14  15
ATOM     15  C   UNL     1       2.037   2.983  19.914  0.00  0.00    +0.000 A 
ATOM     16  C   UNL     1       3.248   2.389  20.299  0.00  0.00    +0.000 A 
ATOM     17  C   UNL     1       4.032   1.708  19.365  0.00  0.00    +0.000 A 
ATOM     18  C   UNL     1       3.609   1.607  18.043  0.00  0.00    +0.000 A 
ATOM     19  C   UNL     1       2.398   2.174  17.654  0.00  0.00    +0.000 A 
ATOM     20  C   UNL     1       1.614   2.864  18.584  0.00  0.00    +0.000 A 
ENDBRANCH  14  15
ENDBRANCH  13  14
ENDBRANCH  12  13
ENDBRANCH   8  12
TORSDOF 4
ENDMDL
MODEL 9
REMARK VINA RESULT:      -7.3      5.740      8.463
REMARK  Name = 
REMARK  4 active torsions:
REMARK  status: ('A' for Active; 'I' for Inactive)
REMARK    1  A    between atoms: C_8  and  O_9
REMARK    2  A    between atoms: O_9  and  C_10
REMARK    3  A    between atoms: C_10  and  C_11
REMARK    4  A    between atoms: C_11  and  C_12
REMARK                            x       y       z     vdW  Elec       q    Type
REMARK                         _______ _______ _______ _____ _____    ______ ____
ROOT
ATOM      1 CL   UNL     1      -0.026   9.653  23.136  0.00  0.00    +0.000 Cl
ATOM      2  C   UNL     1       0.295  10.080  21.489  0.00  0.00    +0.000 A 
ATOM      3  C   UNL     1      -0.147  11.326  21.062  0.00  0.00    +0.000 A 
ATOM      4  C   UNL     1       0.093  11.672  19.754  0.00  0.00    +0.000 A 
ATOM      5  N   UNL     1       0.726  10.870  18.872  0.00  0.00    +0.000 NA
ATOM      6  C   UNL     1       1.153   9.662  19.286  0.00  0.00    +0.000 A 
ATOM      7  C   UNL     1       1.788   8.832  18.370  0.00  0.00    +0.000 A 
ATOM      8  C   UNL     1       2.236   7.552  18.711  0.00  0.00    +0.000 A 
ATOM      9  C   UNL     1       2.100   7.115  20.022  0.00  0.00    +0.000 A 
ATOM     10  C   UNL     1       1.460   7.927  20.960  0.00  0.00    +0.000 A 
ATOM     11  C   UNL     1       0.970   9.208  20.607  0.00  0.00    +0.000 A 
ENDROOT
BRANCH   8  12
ATOM     12  O   UNL     1       2.789   6.821  17.693  0.00  0.00    +0.000 OA
BRANCH  12  13
ATOM     13  C   UNL     1       3.976   6.098  18.032  0.00  0.00    +0.000 C 
BRANCH  13  14
ATOM     14  C   UNL     1       3.801   4.625  17.651  0.00  0.00    +0.000 C 
BRANCH  14  15
ATOM     15  C   UNL     1       2.941   3.904  18.661  0.00  0.00    +0.000 A 
ATOM     16  C   UNL     1       1.614   3.573  18.348  0.00  0.00    +0.000 A 
ATOM     17  C   UNL     1       0.784   2.986  19.305  0.00  0.00    +0.000 A 
ATOM     18  C   UNL     1       1.274   2.716  20.580  0.00  0.00    +0.000 A 
ATOM     19  C   UNL     1       2.596   3.021  20.896  0.00  0.00    +0.000 A 
ATOM     20  C   UNL     1       3.428   3.615  19.943  0.00  0.00    +0.000 A 
ENDBRANCH  14  15
ENDBRANCH  13  14
ENDBRANCH  12  13
ENDBRANCH   8  12
TORSDOF 4
ENDMDL
