MODEL 1
REMARK VINA RESULT:      -8.3      0.000      0.000
REMARK  Name = 
REMARK  5 active torsions:
REMARK  status: ('A' for Active; 'I' for Inactive)
REMARK    1  A    between atoms: C_1  and  C_2
REMARK    2  A    between atoms: C_7  and  C_8
REMARK    3  A    between atoms: C_11  and  N_12
REMARK    4  A    between atoms: N_12  and  C_13
REMARK    5  A    between atoms: N_12  and  C_14
REMARK                            x       y       z     vdW  Elec       q    Type
REMARK                         _______ _______ _______ _____ _____    ______ ____
ROOT
ATOM      1  C   UNL     1       6.210   7.493  17.119  0.00  0.00    +0.000 C 
ATOM      2  C   UNL     1       6.154   6.307  18.007  0.00  0.00    +0.000 A 
ATOM      3  N   UNL     1       7.229   5.947  18.731  0.00  0.00    +0.000 NA
ATOM      4  N   UNL     1       6.823   4.861  19.423  0.00  0.00    +0.000 N 
ATOM      5  C   UNL     1       5.536   4.522  19.154  0.00  0.00    +0.000 A 
ATOM      6  C   UNL     1       5.057   5.438  18.239  0.00  0.00    +0.000 A 
ATOM      7  C   UNL     1       3.639   5.352  17.708  0.00  0.00    +0.000 C 
ATOM      8  C   UNL     1       2.968   4.158  18.314  0.00  0.00    +0.000 C 
ATOM      9  C   UNL     1       3.523   3.332  19.206  0.00  0.00    +0.000 C 
ATOM     10  C   UNL     1       2.569   2.276  19.601  0.00  0.00    +0.000 C 
ATOM     11  O   UNL     1       1.406   2.555  18.810  0.00  0.00    +0.000 OA
ATOM     12  C   UNL     1       1.636   3.654  18.031  0.00  0.00    +0.000 C 
ATOM     13  O   UNL     1       0.859   4.120  17.218  0.00  0.00    +0.000 OA
ATOM     14  N   UNL     1       4.822   3.486  19.668  0.00  0.00    +0.000 N 
ATOM     15  H   UNL     1       7.481   4.417  20.050  0.00  0.00    +0.000 HD
ATOM     16  H   UNL     1       5.185   2.806  20.326  0.00  0.00    +0.000 HD
ENDROOT
BRANCH   7  17
ATOM     17  C   UNL     1       2.975   6.665  18.088  0.00  0.00    +0.000 A 
ATOM     18  C   UNL     1       2.800   7.710  17.176  0.00  0.00    +0.000 A 
ATOM     19  C   UNL     1       2.162   8.898  17.557  0.00  0.00    +0.000 A 
ATOM     20  C   UNL     1       1.644   9.108  18.850  0.00  0.00    +0.000 A 
ATOM     21  C   UNL     1       1.832   8.040  19.760  0.00  0.00    +0.000 A 
ATOM     22 BR   UNL     1       1.057   7.993  21.508  0.00  0.00    +0.000 Br
ATOM     23  C   UNL     1       2.505   6.859  19.392  0.00  0.00    +0.000 A 
BRANCH  20  24
ATOM     24  N   UNL     1       0.942  10.277  19.147  0.00  0.00    +0.000 N 
ATOM     25  C   UNL     1      -0.519  10.290  19.175  0.00  0.00    +0.000 C 
ATOM     26  C   UNL     1       1.556  11.583  18.913  0.00  0.00    +0.000 C 
ENDBRANCH  20  24
ENDBRANCH   7  17
TORSDOF 2
ENDMDL
MODEL 2
REMARK VINA RESULT:      -8.0      1.366      1.849
REMARK  Name = 
REMARK  5 active torsions:
REMARK  status: ('A' for Active; 'I' for Inactive)
REMARK    1  A    between atoms: C_1  and  C_2
REMARK    2  A    between atoms: C_7  and  C_8
REMARK    3  A    between atoms: C_11  and  N_12
REMARK    4  A    between atoms: N_12  and  C_13
REMARK    5  A    between atoms: N_12  and  C_14
REMARK                            x       y       z     vdW  Elec       q    Type
REMARK                         _______ _______ _______ _____ _____    ______ ____
ROOT
ATOM      1  C   UNL     1       5.690   7.804  17.372  0.00  0.00    +0.000 C 
ATOM      2  C   UNL     1       5.945   6.442  17.901  0.00  0.00    +0.000 A 
ATOM      3  N   UNL     1       7.179   6.090  18.306  0.00  0.00    +0.000 NA
ATOM      4  N   UNL     1       7.042   4.817  18.735  0.00  0.00    +0.000 N 
ATOM      5  C   UNL     1       5.772   4.355  18.605  0.00  0.00    +0.000 A 
ATOM      6  C   UNL     1       5.020   5.380  18.069  0.00  0.00    +0.000 A 
ATOM      7  C   UNL     1       3.541   5.205  17.782  0.00  0.00    +0.000 C 
ATOM      8  C   UNL     1       3.142   3.808  18.144  0.00  0.00    +0.000 C 
ATOM      9  C   UNL     1       3.953   2.885  18.671  0.00  0.00    +0.000 C 
ATOM     10  C   UNL     1       3.220   1.628  18.919  0.00  0.00    +0.000 C 
ATOM     11  O   UNL     1       1.897   1.906  18.441  0.00  0.00    +0.000 OA
ATOM     12  C   UNL     1       1.842   3.185  17.964  0.00  0.00    +0.000 C 
ATOM     13  O   UNL     1       0.870   3.708  17.451  0.00  0.00    +0.000 OA
ATOM     14  N   UNL     1       5.295   3.125  18.931  0.00  0.00    +0.000 N 
ATOM     15  H   UNL     1       7.859   4.341  19.097  0.00  0.00    +0.000 HD
ATOM     16  H   UNL     1       5.856   2.370  19.309  0.00  0.00    +0.000 HD
ENDROOT
BRANCH   7  17
ATOM     17  C   UNL     1       2.831   6.262  18.611  0.00  0.00    +0.000 A 
ATOM     18  C   UNL     1       2.464   6.051  19.943  0.00  0.00    +0.000 A 
ATOM     19  C   UNL     1       1.830   7.058  20.683  0.00  0.00    +0.000 A 
ATOM     20  C   UNL     1       1.545   8.332  20.154  0.00  0.00    +0.000 A 
ATOM     21  C   UNL     1       1.922   8.527  18.803  0.00  0.00    +0.000 A 
ATOM     22 BR   UNL     1       1.825  10.217  17.913  0.00  0.00    +0.000 Br
ATOM     23  C   UNL     1       2.526   7.505  18.045  0.00  0.00    +0.000 A 
BRANCH  20  24
ATOM     24  N   UNL     1       0.991   9.324  20.964  0.00  0.00    +0.000 N 
ATOM     25  C   UNL     1       1.316   9.401  22.387  0.00  0.00    +0.000 C 
ATOM     26  C   UNL     1      -0.279   9.948  20.598  0.00  0.00    +0.000 C 
ENDBRANCH  20  24
ENDBRANCH   7  17
TORSDOF 2
ENDMDL
MODEL 3
REMARK VINA RESULT:      -7.7      2.490      3.787
REMARK  Name = 
REMARK  5 active torsions:
REMARK  status: ('A' for Active; 'I' for Inactive)
REMARK    1  A    between atoms: C_1  and  C_2
REMARK    2  A    between atoms: C_7  and  C_8
REMARK    3  A    between atoms: C_11  and  N_12
REMARK    4  A    between atoms: N_12  and  C_13
REMARK    5  A    between atoms: N_12  and  C_14
REMARK                            x       y       z     vdW  Elec       q    Type
REMARK                         _______ _______ _______ _____ _____    ______ ____
ROOT
ATOM      1  C   UNL     1       1.105   4.175  20.615  0.00  0.00    +0.000 C 
ATOM      2  C   UNL     1       1.721   3.549  19.419  0.00  0.00    +0.000 A 
ATOM      3  N   UNL     1       1.140   2.488  18.832  0.00  0.00    +0.000 NA
ATOM      4  N   UNL     1       1.943   2.199  17.786  0.00  0.00    +0.000 N 
ATOM      5  C   UNL     1       3.011   3.033  17.701  0.00  0.00    +0.000 A 
ATOM      6  C   UNL     1       2.907   3.933  18.742  0.00  0.00    +0.000 A 
ATOM      7  C   UNL     1       3.948   5.016  18.955  0.00  0.00    +0.000 C 
ATOM      8  C   UNL     1       5.011   4.874  17.909  0.00  0.00    +0.000 C 
ATOM      9  C   UNL     1       5.013   3.966  16.929  0.00  0.00    +0.000 C 
ATOM     10  C   UNL     1       6.203   4.129  16.070  0.00  0.00    +0.000 C 
ATOM     11  O   UNL     1       6.917   5.212  16.681  0.00  0.00    +0.000 OA
ATOM     12  C   UNL     1       6.232   5.649  17.780  0.00  0.00    +0.000 C 
ATOM     13  O   UNL     1       6.598   6.528  18.538  0.00  0.00    +0.000 OA
ATOM     14  N   UNL     1       4.010   3.018  16.780  0.00  0.00    +0.000 N 
ATOM     15  H   UNL     1       1.693   1.423  17.186  0.00  0.00    +0.000 HD
ATOM     16  H   UNL     1       4.091   2.343  16.028  0.00  0.00    +0.000 HD
ENDROOT
BRANCH   7  17
ATOM     17  C   UNL     1       3.197   6.334  18.867  0.00  0.00    +0.000 A 
ATOM     18  C   UNL     1       3.072   7.050  17.673  0.00  0.00    +0.000 A 
ATOM     19  C   UNL     1       2.352   8.251  17.626  0.00  0.00    +0.000 A 
ATOM     20  C   UNL     1       1.701   8.797  18.750  0.00  0.00    +0.000 A 
ATOM     21  C   UNL     1       1.841   8.060  19.951  0.00  0.00    +0.000 A 
ATOM     22 BR   UNL     1       0.900   8.478  21.563  0.00  0.00    +0.000 Br
ATOM     23  C   UNL     1       2.594   6.871  20.010  0.00  0.00    +0.000 A 
BRANCH  20  24
ATOM     24  N   UNL     1       0.927   9.952  18.625  0.00  0.00    +0.000 N 
ATOM     25  C   UNL     1      -0.385   9.911  17.982  0.00  0.00    +0.000 C 
ATOM     26  C   UNL     1       1.564  11.267  18.619  0.00  0.00    +0.000 C 
ENDBRANCH  20  24
ENDBRANCH   7  17
TORSDOF 2
ENDMDL
MODEL 4
REMARK VINA RESULT:      -7.2      1.006      1.045
REMARK  Name = 
REMARK  5 active torsions:
REMARK  status: ('A' for Active; 'I' for Inactive)
REMARK    1  A    between atoms: C_1  and  C_2
REMARK    2  A    between atoms: C_7  and  C_8
REMARK    3  A    between atoms: C_11  and  N_12
REMARK    4  A    between atoms: N_12  and  C_13
REMARK    5  A    between atoms: N_12  and  C_14
REMARK                            x       y       z     vdW  Elec       q    Type
REMARK                         _______ _______ _______ _____ _____    ______ ____
ROOT
ATOM      1  C   UNL     1       5.159   6.551  15.852  0.00  0.00    +0.000 C 
ATOM      2  C   UNL     1       5.545   5.630  16.948  0.00  0.00    +0.000 A 
ATOM      3  N   UNL     1       6.842   5.383  17.205  0.00  0.00    +0.000 NA
ATOM      4  N   UNL     1       6.823   4.536  18.256  0.00  0.00    +0.000 N 
ATOM      5  C   UNL     1       5.563   4.235  18.662  0.00  0.00    +0.000 A 
ATOM      6  C   UNL     1       4.696   4.927  17.841  0.00  0.00    +0.000 A 
ATOM      7  C   UNL     1       3.193   4.816  18.012  0.00  0.00    +0.000 C 
ATOM      8  C   UNL     1       2.903   3.861  19.129  0.00  0.00    +0.000 C 
ATOM      9  C   UNL     1       3.825   3.244  19.875  0.00  0.00    +0.000 C 
ATOM     10  C   UNL     1       3.183   2.392  20.895  0.00  0.00    +0.000 C 
ATOM     11  O   UNL     1       1.782   2.550  20.637  0.00  0.00    +0.000 OA
ATOM     12  C   UNL     1       1.603   3.401  19.584  0.00  0.00    +0.000 C 
ATOM     13  O   UNL     1       0.532   3.706  19.094  0.00  0.00    +0.000 OA
ATOM     14  N   UNL     1       5.188   3.414  19.678  0.00  0.00    +0.000 N 
ATOM     15  H   UNL     1       7.707   4.214  18.630  0.00  0.00    +0.000 HD
ATOM     16  H   UNL     1       5.829   2.894  20.266  0.00  0.00    +0.000 HD
ENDROOT
BRANCH   7  17
ATOM     17  C   UNL     1       2.702   6.227  18.291  0.00  0.00    +0.000 A 
ATOM     18  C   UNL     1       2.502   7.167  17.276  0.00  0.00    +0.000 A 
ATOM     19  C   UNL     1       2.027   8.453  17.570  0.00  0.00    +0.000 A 
ATOM     20  C   UNL     1       1.702   8.868  18.876  0.00  0.00    +0.000 A 
ATOM     21  C   UNL     1       1.913   7.903  19.891  0.00  0.00    +0.000 A 
ATOM     22 BR   UNL     1       1.372   8.146  21.710  0.00  0.00    +0.000 Br
ATOM     23  C   UNL     1       2.426   6.623  19.605  0.00  0.00    +0.000 A 
BRANCH  20  24
ATOM     24  N   UNL     1       1.151  10.131  19.098  0.00  0.00    +0.000 N 
ATOM     25  C   UNL     1      -0.285  10.296  19.317  0.00  0.00    +0.000 C 
ATOM     26  C   UNL     1       1.831  11.327  18.606  0.00  0.00    +0.000 C 
ENDBRANCH  20  24
ENDBRANCH   7  17
TORSDOF 2
ENDMDL
MODEL 5
REMARK VINA RESULT:      -6.6      2.754      4.294
REMARK  Name = 
REMARK  5 active torsions:
REMARK  status: ('A' for Active; 'I' for Inactive)
REMARK    1  A    between atoms: C_1  and  C_2
REMARK    2  A    between atoms: C_7  and  C_8
REMARK    3  A    between atoms: C_11  and  N_12
REMARK    4  A    between atoms: N_12  and  C_13
REMARK    5  A    between atoms: N_12  and  C_14
REMARK                            x       y       z     vdW  Elec       q    Type
REMARK                         _______ _______ _______ _____ _____    ______ ____
ROOT
ATOM      1  C   UNL     1       0.936   2.962  20.793  0.00  0.00    +0.000 C 
ATOM      2  C   UNL     1       1.621   2.705  19.503  0.00  0.00    +0.000 A 
ATOM      3  N   UNL     1       1.104   1.830  18.621  0.00  0.00    +0.000 NA
ATOM      4  N   UNL     1       1.958   1.861  17.575  0.00  0.00    +0.000 N 
ATOM      5  C   UNL     1       2.995   2.715  17.773  0.00  0.00    +0.000 A 
ATOM      6  C   UNL     1       2.816   3.291  19.014  0.00  0.00    +0.000 A 
ATOM      7  C   UNL     1       3.805   4.301  19.563  0.00  0.00    +0.000 C 
ATOM      8  C   UNL     1       4.913   4.480  18.571  0.00  0.00    +0.000 C 
ATOM      9  C   UNL     1       4.988   3.876  17.381  0.00  0.00    +0.000 C 
ATOM     10  C   UNL     1       6.203   4.300  16.657  0.00  0.00    +0.000 C 
ATOM     11  O   UNL     1       6.850   5.192  17.574  0.00  0.00    +0.000 OA
ATOM     12  C   UNL     1       6.107   5.293  18.717  0.00  0.00    +0.000 C 
ATOM     13  O   UNL     1       6.409   5.940  19.702  0.00  0.00    +0.000 OA
ATOM     14  N   UNL     1       4.029   2.979  16.932  0.00  0.00    +0.000 N 
ATOM     15  H   UNL     1       1.761   1.272  16.776  0.00  0.00    +0.000 HD
ATOM     16  H   UNL     1       4.165   2.539  16.028  0.00  0.00    +0.000 HD
ENDROOT
BRANCH   7  17
ATOM     17  C   UNL     1       3.009   5.572  19.804  0.00  0.00    +0.000 A 
ATOM     18  C   UNL     1       2.355   5.832  21.011  0.00  0.00    +0.000 A 
ATOM     19  C   UNL     1       1.648   7.027  21.205  0.00  0.00    +0.000 A 
ATOM     20  C   UNL     1       1.568   8.036  20.225  0.00  0.00    +0.000 A 
ATOM     21  C   UNL     1       2.235   7.754  19.007  0.00  0.00    +0.000 A 
ATOM     22 BR   UNL     1       2.443   9.030  17.597  0.00  0.00    +0.000 Br
ATOM     23  C   UNL     1       2.915   6.539  18.796  0.00  0.00    +0.000 A 
BRANCH  20  24
ATOM     24  N   UNL     1       0.924   9.241  20.504  0.00  0.00    +0.000 N 
ATOM     25  C   UNL     1       0.985   9.835  21.839  0.00  0.00    +0.000 C 
ATOM     26  C   UNL     1      -0.225   9.663  19.705  0.00  0.00    +0.000 C 
ENDBRANCH  20  24
ENDBRANCH   7  17
TORSDOF 2
ENDMDL
MODEL 6
REMARK VINA RESULT:      -6.3      7.033      9.036
REMARK  Name = 
REMARK  5 active torsions:
REMARK  status: ('A' for Active; 'I' for Inactive)
REMARK    1  A    between atoms: C_1  and  C_2
REMARK    2  A    between atoms: C_7  and  C_8
REMARK    3  A    between atoms: C_11  and  N_12
REMARK    4  A    between atoms: N_12  and  C_13
REMARK    5  A    between atoms: N_12  and  C_14
REMARK                            x       y       z     vdW  Elec       q    Type
REMARK                         _______ _______ _______ _____ _____    ______ ____
ROOT
ATOM      1  C   UNL     1      -2.727  11.792  23.437  0.00  0.00    +0.000 C 
ATOM      2  C   UNL     1      -1.442  11.313  22.872  0.00  0.00    +0.000 A 
ATOM      3  N   UNL     1      -0.800  10.270  23.429  0.00  0.00    +0.000 NA
ATOM      4  N   UNL     1       0.299  10.101  22.662  0.00  0.00    +0.000 N 
ATOM      5  C   UNL     1       0.374  11.005  21.651  0.00  0.00    +0.000 A 
ATOM      6  C   UNL     1      -0.740  11.813  21.745  0.00  0.00    +0.000 A 
ATOM      7  C   UNL     1      -0.975  12.947  20.765  0.00  0.00    +0.000 C 
ATOM      8  C   UNL     1       0.172  12.999  19.804  0.00  0.00    +0.000 C 
ATOM      9  C   UNL     1       1.209  12.155  19.793  0.00  0.00    +0.000 C 
ATOM     10  C   UNL     1       2.141  12.489  18.698  0.00  0.00    +0.000 C 
ATOM     11  O   UNL     1       1.552  13.648  18.093  0.00  0.00    +0.000 OA
ATOM     12  C   UNL     1       0.398  13.971  18.749  0.00  0.00    +0.000 C 
ATOM     13  O   UNL     1      -0.311  14.929  18.503  0.00  0.00    +0.000 OA
ATOM     14  N   UNL     1       1.345  11.120  20.708  0.00  0.00    +0.000 N 
ATOM     15  H   UNL     1       0.939   9.353  22.897  0.00  0.00    +0.000 HD
ATOM     16  H   UNL     1       2.171  10.534  20.654  0.00  0.00    +0.000 HD
ENDROOT
BRANCH   7  17
ATOM     17  C   UNL     1      -2.303  12.645  20.093  0.00  0.00    +0.000 A 
ATOM     18  C   UNL     1      -3.501  13.247  20.489  0.00  0.00    +0.000 A 
ATOM     19  C   UNL     1      -4.704  12.961  19.829  0.00  0.00    +0.000 A 
ATOM     20  C   UNL     1      -4.783  12.083  18.731  0.00  0.00    +0.000 A 
ATOM     21  C   UNL     1      -3.562  11.480  18.345  0.00  0.00    +0.000 A 
ATOM     22 BR   UNL     1      -3.362  10.408  16.774  0.00  0.00    +0.000 Br
ATOM     23  C   UNL     1      -2.357  11.737  19.028  0.00  0.00    +0.000 A 
BRANCH  20  24
ATOM     24  N   UNL     1      -5.993  11.902  18.059  0.00  0.00    +0.000 N 
ATOM     25  C   UNL     1      -6.550  12.959  17.217  0.00  0.00    +0.000 C 
ATOM     26  C   UNL     1      -6.977  10.944  18.560  0.00  0.00    +0.000 C 
ENDBRANCH  20  24
ENDBRANCH   7  17
TORSDOF 2
ENDMDL
MODEL 7
REMARK VINA RESULT:      -6.2      5.253      7.318
REMARK  Name = 
REMARK  5 active torsions:
REMARK  status: ('A' for Active; 'I' for Inactive)
REMARK    1  A    between atoms: C_1  and  C_2
REMARK    2  A    between atoms: C_7  and  C_8
REMARK    3  A    between atoms: C_11  and  N_12
REMARK    4  A    between atoms: N_12  and  C_13
REMARK    5  A    between atoms: N_12  and  C_14
REMARK                            x       y       z     vdW  Elec       q    Type
REMARK                         _______ _______ _______ _____ _____    ______ ____
ROOT
ATOM      1  C   UNL     1       1.989   9.173  17.945  0.00  0.00    +0.000 C 
ATOM      2  C   UNL     1       1.553   8.969  19.348  0.00  0.00    +0.000 A 
ATOM      3  N   UNL     1       1.970   7.894  20.041  0.00  0.00    +0.000 NA
ATOM      4  N   UNL     1       1.407   8.039  21.260  0.00  0.00    +0.000 N 
ATOM      5  C   UNL     1       0.645   9.159  21.353  0.00  0.00    +0.000 A 
ATOM      6  C   UNL     1       0.712   9.799  20.133  0.00  0.00    +0.000 A 
ATOM      7  C   UNL     1      -0.036  11.094  19.881  0.00  0.00    +0.000 C 
ATOM      8  C   UNL     1      -0.804  11.456  21.115  0.00  0.00    +0.000 C 
ATOM      9  C   UNL     1      -0.794  10.766  22.260  0.00  0.00    +0.000 C 
ATOM     10  C   UNL     1      -1.649  11.420  23.270  0.00  0.00    +0.000 C 
ATOM     11  O   UNL     1      -2.191  12.551  22.575  0.00  0.00    +0.000 OA
ATOM     12  C   UNL     1      -1.714  12.573  21.294  0.00  0.00    +0.000 C 
ATOM     13  O   UNL     1      -2.020  13.383  20.439  0.00  0.00    +0.000 OA
ATOM     14  N   UNL     1      -0.063   9.598  22.427  0.00  0.00    +0.000 N 
ATOM     15  H   UNL     1       1.592   7.334  21.962  0.00  0.00    +0.000 HD
ATOM     16  H   UNL     1      -0.123   9.114  23.316  0.00  0.00    +0.000 HD
ENDROOT
BRANCH   7  17
ATOM     17  C   UNL     1       1.024  12.120  19.517  0.00  0.00    +0.000 A 
ATOM     18  C   UNL     1       1.220  12.566  18.207  0.00  0.00    +0.000 A 
ATOM     19  C   UNL     1       2.192  13.531  17.912  0.00  0.00    +0.000 A 
ATOM     20  C   UNL     1       3.007  14.122  18.898  0.00  0.00    +0.000 A 
ATOM     21  C   UNL     1       2.796  13.657  20.219  0.00  0.00    +0.000 A 
ATOM     22 BR   UNL     1       3.629  14.431  21.757  0.00  0.00    +0.000 Br
ATOM     23  C   UNL     1       1.845  12.661  20.514  0.00  0.00    +0.000 A 
BRANCH  20  24
ATOM     24  N   UNL     1       3.898  15.140  18.559  0.00  0.00    +0.000 N 
ATOM     25  C   UNL     1       3.427  16.501  18.310  0.00  0.00    +0.000 C 
ATOM     26  C   UNL     1       5.178  14.818  17.929  0.00  0.00    +0.000 C 
ENDBRANCH  20  24
ENDBRANCH   7  17
TORSDOF 2
ENDMDL
MODEL 8
REMARK VINA RESULT:      -6.2      7.144      9.160
REMARK  Name = 
REMARK  5 active torsions:
REMARK  status: ('A' for Active; 'I' for Inactive)
REMARK    1  A    between atoms: C_1  and  C_2
REMARK    2  A    between atoms: C_7  and  C_8
REMARK    3  A    between atoms: C_11  and  N_12
REMARK    4  A    between atoms: N_12  and  C_13
REMARK    5  A    between atoms: N_12  and  C_14
REMARK                            x       y       z     vdW  Elec       q    Type
REMARK                         _______ _______ _______ _____ _____    ______ ____
ROOT
ATOM      1  C   UNL     1      -2.740  11.866  23.491  0.00  0.00    +0.000 C 
ATOM      2  C   UNL     1      -1.492  11.341  22.885  0.00  0.00    +0.000 A 
ATOM      3  N   UNL     1      -0.882  10.262  23.410  0.00  0.00    +0.000 NA
ATOM      4  N   UNL     1       0.187  10.057  22.611  0.00  0.00    +0.000 N 
ATOM      5  C   UNL     1       0.276  10.972  21.612  0.00  0.00    +0.000 A 
ATOM      6  C   UNL     1      -0.799  11.827  21.747  0.00  0.00    +0.000 A 
ATOM      7  C   UNL     1      -1.009  12.985  20.790  0.00  0.00    +0.000 C 
ATOM      8  C   UNL     1       0.114  13.001  19.799  0.00  0.00    +0.000 C 
ATOM      9  C   UNL     1       1.111  12.113  19.748  0.00  0.00    +0.000 C 
ATOM     10  C   UNL     1       2.029  12.423  18.633  0.00  0.00    +0.000 C 
ATOM     11  O   UNL     1       1.476  13.616  18.061  0.00  0.00    +0.000 OA
ATOM     12  C   UNL     1       0.355  13.978  18.752  0.00  0.00    +0.000 C 
ATOM     13  O   UNL     1      -0.318  14.970  18.539  0.00  0.00    +0.000 OA
ATOM     14  N   UNL     1       1.226  11.060  20.644  0.00  0.00    +0.000 N 
ATOM     15  H   UNL     1       0.800   9.279  22.819  0.00  0.00    +0.000 HD
ATOM     16  H   UNL     1       2.024  10.439  20.561  0.00  0.00    +0.000 HD
ENDROOT
BRANCH   7  17
ATOM     17  C   UNL     1      -2.366  12.751  20.149  0.00  0.00    +0.000 A 
ATOM     18  C   UNL     1      -2.559  11.840  19.107  0.00  0.00    +0.000 A 
ATOM     19  C   UNL     1      -3.831  11.635  18.556  0.00  0.00    +0.000 A 
ATOM     20  C   UNL     1      -4.982  12.301  19.019  0.00  0.00    +0.000 A 
ATOM     21  C   UNL     1      -4.768  13.222  20.073  0.00  0.00    +0.000 A 
ATOM     22 BR   UNL     1      -6.183  14.106  21.008  0.00  0.00    +0.000 Br
ATOM     23  C   UNL     1      -3.485  13.458  20.605  0.00  0.00    +0.000 A 
BRANCH  20  24
ATOM     24  N   UNL     1      -6.236  11.993  18.490  0.00  0.00    +0.000 N 
ATOM     25  C   UNL     1      -6.819  10.664  18.663  0.00  0.00    +0.000 C 
ATOM     26  C   UNL     1      -6.754  12.738  17.344  0.00  0.00    +0.000 C 
ENDBRANCH  20  24
ENDBRANCH   7  17
TORSDOF 2
ENDMDL
MODEL 9
REMARK VINA RESULT:      -6.1      3.933      8.454
REMARK  Name = 
REMARK  5 active torsions:
REMARK  status: ('A' for Active; 'I' for Inactive)
REMARK    1  A    between atoms: C_1  and  C_2
REMARK    2  A    between atoms: C_7  and  C_8
REMARK    3  A    between atoms: C_11  and  N_12
REMARK    4  A    between atoms: N_12  and  C_13
REMARK    5  A    between atoms: N_12  and  C_14
REMARK                            x       y       z     vdW  Elec       q    Type
REMARK                         _______ _______ _______ _____ _____    ______ ____
ROOT
ATOM      1  C   UNL     1      -2.232   9.839  16.846  0.00  0.00    +0.000 C 
ATOM      2  C   UNL     1      -2.381  10.974  17.789  0.00  0.00    +0.000 A 
ATOM      3  N   UNL     1      -3.594  11.311  18.263  0.00  0.00    +0.000 NA
ATOM      4  N   UNL     1      -3.357  12.351  19.090  0.00  0.00    +0.000 N 
ATOM      5  C   UNL     1      -2.042  12.685  19.146  0.00  0.00    +0.000 A 
ATOM      6  C   UNL     1      -1.366  11.813  18.317  0.00  0.00    +0.000 A 
ATOM      7  C   UNL     1       0.137  11.905  18.135  0.00  0.00    +0.000 C 
ATOM      8  C   UNL     1       0.652  13.054  18.946  0.00  0.00    +0.000 C 
ATOM      9  C   UNL     1      -0.093  13.839  19.731  0.00  0.00    +0.000 C 
ATOM     10  C   UNL     1       0.746  14.857  20.395  0.00  0.00    +0.000 C 
ATOM     11  O   UNL     1       2.060  14.603  19.880  0.00  0.00    +0.000 OA
ATOM     12  C   UNL     1       2.014  13.552  19.008  0.00  0.00    +0.000 C 
ATOM     13  O   UNL     1       2.958  13.119  18.372  0.00  0.00    +0.000 OA
ATOM     14  N   UNL     1      -1.464  13.679  19.869  0.00  0.00    +0.000 N 
ATOM     15  H   UNL     1      -4.141  12.771  19.572  0.00  0.00    +0.000 HD
ATOM     16  H   UNL     1      -1.968  14.329  20.463  0.00  0.00    +0.000 HD
ENDROOT
BRANCH   7  17
ATOM     17  C   UNL     1       0.692  10.563  18.583  0.00  0.00    +0.000 A 
ATOM     18  C   UNL     1       1.316   9.676  17.702  0.00  0.00    +0.000 A 
ATOM     19  C   UNL     1       1.836   8.457  18.156  0.00  0.00    +0.000 A 
ATOM     20  C   UNL     1       1.787   8.060  19.507  0.00  0.00    +0.000 A 
ATOM     21  C   UNL     1       1.150   8.970  20.385  0.00  0.00    +0.000 A 
ATOM     22 BR   UNL     1       1.123   8.763  22.286  0.00  0.00    +0.000 Br
ATOM     23  C   UNL     1       0.593  10.180  19.926  0.00  0.00    +0.000 A 
BRANCH  20  24
ATOM     24  N   UNL     1       2.398   6.874  19.917  0.00  0.00    +0.000 N 
ATOM     25  C   UNL     1       3.602   6.380  19.251  0.00  0.00    +0.000 C 
ATOM     26  C   UNL     1       1.621   5.846  20.605  0.00  0.00    +0.000 C 
ENDBRANCH  20  24
ENDBRANCH   7  17
TORSDOF 2
ENDMDL
