MODEL 1
REMARK VINA RESULT:      -7.1      0.000      0.000
REMARK  Name = 
REMARK  5 active torsions:
REMARK  status: ('A' for Active; 'I' for Inactive)
REMARK    1  A    between atoms: C_1  and  C_2
REMARK    2  A    between atoms: N_4  and  C_5
REMARK    3  A    between atoms: C_5  and  C_6
REMARK    4  A    between atoms: C_6  and  C_7
REMARK    5  A    between atoms: C_10  and  C_12
REMARK                            x       y       z     vdW  Elec       q    Type
REMARK                         _______ _______ _______ _____ _____    ______ ____
ROOT
ATOM      1  C   UNL     1       5.764   5.136  15.435  0.00  0.00    +0.000 C 
ATOM      2  C   UNL     1       4.348   4.606  15.708  0.00  0.00    +0.000 C 
ATOM      3  N   UNL     1       4.275   4.235  17.129  0.00  0.00    +0.000 N 
ATOM      4  C   UNL     1       3.195   3.492  17.557  0.00  0.00    +0.000 C 
ATOM      5  O   UNL     1       2.283   3.173  16.789  0.00  0.00    +0.000 OA
ATOM      6  C   UNL     1       5.358   4.848  17.791  0.00  0.00    +0.000 A 
ATOM      7  C   UNL     1       5.642   4.977  19.141  0.00  0.00    +0.000 A 
ATOM      8  C   UNL     1       6.829   5.613  19.528  0.00  0.00    +0.000 A 
ATOM      9  C   UNL     1       7.699   6.154  18.573  0.00  0.00    +0.000 A 
ATOM     10  C   UNL     1       7.394   6.064  17.218  0.00  0.00    +0.000 A 
ATOM     11  C   UNL     1       6.230   5.401  16.843  0.00  0.00    +0.000 A 
ENDROOT
BRANCH   4  12
ATOM     12  C   UNL     1       3.142   3.023  18.957  0.00  0.00    +0.000 C 
ATOM     13  C   UNL     1       2.050   3.284  19.689  0.00  0.00    +0.000 C 
ATOM     14  I   UNL     1       1.878   2.719  21.646  0.00  0.00    +0.000 I 
ENDBRANCH   4  12
BRANCH   1  15
ATOM     15  C   UNL     1       6.683   4.127  14.727  0.00  0.00    +0.000 C 
BRANCH  15  16
ATOM     16  C   UNL     1       6.797   4.377  13.224  0.00  0.00    +0.000 C 
BRANCH  16  20
ATOM     17  C   UNL     1       5.899   1.351  11.141  0.00  0.00    +0.000 C 
ATOM     18  C   UNL     1       5.688   2.671  11.824  0.00  0.00    +0.000 C 
ATOM     19  O   UNL     1       4.608   3.260  11.811  0.00  0.00    +0.000 OA
ATOM     20  N   UNL     1       6.808   3.143  12.465  0.00  0.00    +0.000 N 
ATOM     21  H   UNL     1       7.676   2.627  12.389  0.00  0.00    +0.000 HD
ENDBRANCH  16  20
ENDBRANCH  15  16
ENDBRANCH   1  15
TORSDOF 4
ENDMDL
MODEL 2
REMARK VINA RESULT:      -6.5      3.543      6.119
REMARK  Name = 
REMARK  5 active torsions:
REMARK  status: ('A' for Active; 'I' for Inactive)
REMARK    1  A    between atoms: C_1  and  C_2
REMARK    2  A    between atoms: N_4  and  C_5
REMARK    3  A    between atoms: C_5  and  C_6
REMARK    4  A    between atoms: C_6  and  C_7
REMARK    5  A    between atoms: C_10  and  C_12
REMARK                            x       y       z     vdW  Elec       q    Type
REMARK                         _______ _______ _______ _____ _____    ______ ____
ROOT
ATOM      1  C   UNL     1       5.370   5.567  19.112  0.00  0.00    +0.000 C 
ATOM      2  C   UNL     1       5.311   6.230  17.726  0.00  0.00    +0.000 C 
ATOM      3  N   UNL     1       5.061   5.173  16.735  0.00  0.00    +0.000 N 
ATOM      4  C   UNL     1       5.228   5.476  15.400  0.00  0.00    +0.000 C 
ATOM      5  O   UNL     1       5.538   6.611  15.027  0.00  0.00    +0.000 OA
ATOM      6  C   UNL     1       4.586   4.039  17.424  0.00  0.00    +0.000 A 
ATOM      7  C   UNL     1       4.031   2.859  16.956  0.00  0.00    +0.000 A 
ATOM      8  C   UNL     1       3.673   1.865  17.877  0.00  0.00    +0.000 A 
ATOM      9  C   UNL     1       3.827   2.070  19.253  0.00  0.00    +0.000 A 
ATOM     10  C   UNL     1       4.343   3.273  19.728  0.00  0.00    +0.000 A 
ATOM     11  C   UNL     1       4.727   4.240  18.804  0.00  0.00    +0.000 A 
ENDROOT
BRANCH   4  12
ATOM     12  C   UNL     1       5.077   4.411  14.387  0.00  0.00    +0.000 C 
ATOM     13  C   UNL     1       6.065   4.208  13.505  0.00  0.00    +0.000 C 
ATOM     14  I   UNL     1       5.952   2.791  12.035  0.00  0.00    +0.000 I 
ENDBRANCH   4  12
BRANCH   1  15
ATOM     15  C   UNL     1       6.796   5.381  19.656  0.00  0.00    +0.000 C 
BRANCH  15  16
ATOM     16  C   UNL     1       7.872   5.876  18.690  0.00  0.00    +0.000 C 
BRANCH  16  20
ATOM     17  C   UNL     1       8.860   9.526  18.705  0.00  0.00    +0.000 C 
ATOM     18  C   UNL     1       8.259   8.259  18.170  0.00  0.00    +0.000 C 
ATOM     19  O   UNL     1       7.743   8.188  17.055  0.00  0.00    +0.000 OA
ATOM     20  N   UNL     1       8.350   7.198  19.039  0.00  0.00    +0.000 N 
ATOM     21  H   UNL     1       8.742   7.346  19.960  0.00  0.00    +0.000 HD
ENDBRANCH  16  20
ENDBRANCH  15  16
ENDBRANCH   1  15
TORSDOF 4
ENDMDL
MODEL 3
REMARK VINA RESULT:      -6.3      3.374      4.519
REMARK  Name = 
REMARK  5 active torsions:
REMARK  status: ('A' for Active; 'I' for Inactive)
REMARK    1  A    between atoms: C_1  and  C_2
REMARK    2  A    between atoms: N_4  and  C_5
REMARK    3  A    between atoms: C_5  and  C_6
REMARK    4  A    between atoms: C_6  and  C_7
REMARK    5  A    between atoms: C_10  and  C_12
REMARK                            x       y       z     vdW  Elec       q    Type
REMARK                         _______ _______ _______ _____ _____    ______ ____
ROOT
ATOM      1  C   UNL     1       4.918   4.535  18.171  0.00  0.00    +0.000 C 
ATOM      2  C   UNL     1       4.831   6.062  18.013  0.00  0.00    +0.000 C 
ATOM      3  N   UNL     1       3.456   6.468  18.338  0.00  0.00    +0.000 N 
ATOM      4  C   UNL     1       3.058   7.748  18.018  0.00  0.00    +0.000 C 
ATOM      5  O   UNL     1       3.836   8.559  17.508  0.00  0.00    +0.000 OA
ATOM      6  C   UNL     1       2.847   5.405  19.037  0.00  0.00    +0.000 A 
ATOM      7  C   UNL     1       1.646   5.341  19.725  0.00  0.00    +0.000 A 
ATOM      8  C   UNL     1       1.260   4.125  20.306  0.00  0.00    +0.000 A 
ATOM      9  C   UNL     1       2.090   3.000  20.237  0.00  0.00    +0.000 A 
ATOM     10  C   UNL     1       3.317   3.074  19.583  0.00  0.00    +0.000 A 
ATOM     11  C   UNL     1       3.676   4.276  18.981  0.00  0.00    +0.000 A 
ENDROOT
BRANCH   4  12
ATOM     12  C   UNL     1       1.655   8.154  18.246  0.00  0.00    +0.000 C 
ATOM     13  C   UNL     1       1.329   9.450  18.144  0.00  0.00    +0.000 C 
ATOM     14  I   UNL     1      -0.568  10.134  18.474  0.00  0.00    +0.000 I 
ENDBRANCH   4  12
BRANCH   1  15
ATOM     15  C   UNL     1       4.885   3.766  16.840  0.00  0.00    +0.000 C 
BRANCH  15  16
ATOM     16  C   UNL     1       6.166   3.930  16.024  0.00  0.00    +0.000 C 
BRANCH  16  20
ATOM     17  C   UNL     1       6.233   3.479  12.270  0.00  0.00    +0.000 C 
ATOM     18  C   UNL     1       6.554   4.114  13.592  0.00  0.00    +0.000 C 
ATOM     19  O   UNL     1       7.231   5.136  13.691  0.00  0.00    +0.000 OA
ATOM     20  N   UNL     1       6.012   3.449  14.666  0.00  0.00    +0.000 N 
ATOM     21  H   UNL     1       5.510   2.584  14.510  0.00  0.00    +0.000 HD
ENDBRANCH  16  20
ENDBRANCH  15  16
ENDBRANCH   1  15
TORSDOF 4
ENDMDL
MODEL 4
REMARK VINA RESULT:      -6.3      2.933      4.160
REMARK  Name = 
REMARK  5 active torsions:
REMARK  status: ('A' for Active; 'I' for Inactive)
REMARK    1  A    between atoms: C_1  and  C_2
REMARK    2  A    between atoms: N_4  and  C_5
REMARK    3  A    between atoms: C_5  and  C_6
REMARK    4  A    between atoms: C_6  and  C_7
REMARK    5  A    between atoms: C_10  and  C_12
REMARK                            x       y       z     vdW  Elec       q    Type
REMARK                         _______ _______ _______ _____ _____    ______ ____
ROOT
ATOM      1  C   UNL     1       5.050   3.762  17.056  0.00  0.00    +0.000 C 
ATOM      2  C   UNL     1       5.203   5.272  17.299  0.00  0.00    +0.000 C 
ATOM      3  N   UNL     1       3.875   5.809  17.631  0.00  0.00    +0.000 N 
ATOM      4  C   UNL     1       3.705   7.177  17.634  0.00  0.00    +0.000 C 
ATOM      5  O   UNL     1       4.642   7.947  17.407  0.00  0.00    +0.000 OA
ATOM      6  C   UNL     1       3.048   4.725  17.985  0.00  0.00    +0.000 A 
ATOM      7  C   UNL     1       1.784   4.693  18.553  0.00  0.00    +0.000 A 
ATOM      8  C   UNL     1       1.166   3.454  18.767  0.00  0.00    +0.000 A 
ATOM      9  C   UNL     1       1.825   2.259  18.458  0.00  0.00    +0.000 A 
ATOM     10  C   UNL     1       3.112   2.286  17.928  0.00  0.00    +0.000 A 
ATOM     11  C   UNL     1       3.704   3.521  17.687  0.00  0.00    +0.000 A 
ENDROOT
BRANCH   4  12
ATOM     12  C   UNL     1       2.360   7.743  17.870  0.00  0.00    +0.000 C 
ATOM     13  C   UNL     1       2.224   9.073  17.971  0.00  0.00    +0.000 C 
ATOM     14  I   UNL     1       0.422   9.967  18.334  0.00  0.00    +0.000 I 
ENDBRANCH   4  12
BRANCH   1  15
ATOM     15  C   UNL     1       5.045   3.367  15.570  0.00  0.00    +0.000 C 
BRANCH  15  16
ATOM     16  C   UNL     1       5.604   4.459  14.660  0.00  0.00    +0.000 C 
BRANCH  16  20
ATOM     17  C   UNL     1       6.961   2.871  11.508  0.00  0.00    +0.000 C 
ATOM     18  C   UNL     1       5.924   3.433  12.437  0.00  0.00    +0.000 C 
ATOM     19  O   UNL     1       4.725   3.446  12.163  0.00  0.00    +0.000 OA
ATOM     20  N   UNL     1       6.445   3.919  13.612  0.00  0.00    +0.000 N 
ATOM     21  H   UNL     1       7.449   3.922  13.744  0.00  0.00    +0.000 HD
ENDBRANCH  16  20
ENDBRANCH  15  16
ENDBRANCH   1  15
TORSDOF 4
ENDMDL
MODEL 5
REMARK VINA RESULT:      -6.2      3.691      5.942
REMARK  Name = 
REMARK  5 active torsions:
REMARK  status: ('A' for Active; 'I' for Inactive)
REMARK    1  A    between atoms: C_1  and  C_2
REMARK    2  A    between atoms: N_4  and  C_5
REMARK    3  A    between atoms: C_5  and  C_6
REMARK    4  A    between atoms: C_6  and  C_7
REMARK    5  A    between atoms: C_10  and  C_12
REMARK                            x       y       z     vdW  Elec       q    Type
REMARK                         _______ _______ _______ _____ _____    ______ ____
ROOT
ATOM      1  C   UNL     1       7.702   6.003  17.363  0.00  0.00    +0.000 C 
ATOM      2  C   UNL     1       7.117   5.264  18.577  0.00  0.00    +0.000 C 
ATOM      3  N   UNL     1       5.933   4.521  18.121  0.00  0.00    +0.000 N 
ATOM      4  C   UNL     1       5.086   3.993  19.071  0.00  0.00    +0.000 C 
ATOM      5  O   UNL     1       5.321   4.096  20.279  0.00  0.00    +0.000 OA
ATOM      6  C   UNL     1       5.993   4.436  16.716  0.00  0.00    +0.000 A 
ATOM      7  C   UNL     1       5.242   3.693  15.818  0.00  0.00    +0.000 A 
ATOM      8  C   UNL     1       5.494   3.830  14.446  0.00  0.00    +0.000 A 
ATOM      9  C   UNL     1       6.516   4.666  13.982  0.00  0.00    +0.000 A 
ATOM     10  C   UNL     1       7.301   5.379  14.884  0.00  0.00    +0.000 A 
ATOM     11  C   UNL     1       7.021   5.263  16.242  0.00  0.00    +0.000 A 
ENDROOT
BRANCH   4  12
ATOM     12  C   UNL     1       3.839   3.324  18.645  0.00  0.00    +0.000 C 
ATOM     13  C   UNL     1       2.746   3.435  19.413  0.00  0.00    +0.000 C 
ATOM     14  I   UNL     1       0.978   2.523  18.946  0.00  0.00    +0.000 I 
ENDBRANCH   4  12
BRANCH   1  15
ATOM     15  C   UNL     1       7.367   7.503  17.324  0.00  0.00    +0.000 C 
BRANCH  15  16
ATOM     16  C   UNL     1       8.203   8.327  18.302  0.00  0.00    +0.000 C 
BRANCH  16  20
ATOM     17  C   UNL     1       9.160  11.966  17.932  0.00  0.00    +0.000 C 
ATOM     18  C   UNL     1       9.110  10.608  18.570  0.00  0.00    +0.000 C 
ATOM     19  O   UNL     1       9.644  10.361  19.650  0.00  0.00    +0.000 OA
ATOM     20  N   UNL     1       8.408   9.683  17.835  0.00  0.00    +0.000 N 
ATOM     21  H   UNL     1       8.040   9.946  16.929  0.00  0.00    +0.000 HD
ENDBRANCH  16  20
ENDBRANCH  15  16
ENDBRANCH   1  15
TORSDOF 4
ENDMDL
MODEL 6
REMARK VINA RESULT:      -6.2      8.552     10.756
REMARK  Name = 
REMARK  5 active torsions:
REMARK  status: ('A' for Active; 'I' for Inactive)
REMARK    1  A    between atoms: C_1  and  C_2
REMARK    2  A    between atoms: N_4  and  C_5
REMARK    3  A    between atoms: C_5  and  C_6
REMARK    4  A    between atoms: C_6  and  C_7
REMARK    5  A    between atoms: C_10  and  C_12
REMARK                            x       y       z     vdW  Elec       q    Type
REMARK                         _______ _______ _______ _____ _____    ______ ____
ROOT
ATOM      1  C   UNL     1       9.929  10.884  19.185  0.00  0.00    +0.000 C 
ATOM      2  C   UNL     1      10.701  11.582  18.054  0.00  0.00    +0.000 C 
ATOM      3  N   UNL     1      10.632  13.031  18.294  0.00  0.00    +0.000 N 
ATOM      4  C   UNL     1      11.021  13.881  17.281  0.00  0.00    +0.000 C 
ATOM      5  O   UNL     1      11.458  13.454  16.209  0.00  0.00    +0.000 OA
ATOM      6  C   UNL     1      10.242  13.228  19.634  0.00  0.00    +0.000 A 
ATOM      7  C   UNL     1      10.212  14.374  20.412  0.00  0.00    +0.000 A 
ATOM      8  C   UNL     1       9.735  14.291  21.728  0.00  0.00    +0.000 A 
ATOM      9  C   UNL     1       9.337  13.064  22.271  0.00  0.00    +0.000 A 
ATOM     10  C   UNL     1       9.408  11.903  21.506  0.00  0.00    +0.000 A 
ATOM     11  C   UNL     1       9.850  12.002  20.191  0.00  0.00    +0.000 A 
ENDROOT
BRANCH   4  12
ATOM     12  C   UNL     1      10.874  15.341  17.458  0.00  0.00    +0.000 C 
ATOM     13  C   UNL     1      11.975  16.099  17.549  0.00  0.00    +0.000 C 
ATOM     14  I   UNL     1      11.895  18.122  17.832  0.00  0.00    +0.000 I 
ENDBRANCH   4  12
BRANCH   1  15
ATOM     15  C   UNL     1       8.526  10.401  18.779  0.00  0.00    +0.000 C 
BRANCH  15  16
ATOM     16  C   UNL     1       8.557   9.179  17.863  0.00  0.00    +0.000 C 
BRANCH  16  20
ATOM     17  C   UNL     1       7.627   5.674  18.934  0.00  0.00    +0.000 C 
ATOM     18  C   UNL     1       7.821   6.825  17.990  0.00  0.00    +0.000 C 
ATOM     19  O   UNL     1       7.532   6.762  16.797  0.00  0.00    +0.000 OA
ATOM     20  N   UNL     1       8.341   7.946  18.592  0.00  0.00    +0.000 N 
ATOM     21  H   UNL     1       8.604   7.907  19.569  0.00  0.00    +0.000 HD
ENDBRANCH  16  20
ENDBRANCH  15  16
ENDBRANCH   1  15
TORSDOF 4
ENDMDL
MODEL 7
REMARK VINA RESULT:      -6.2      3.829      6.214
REMARK  Name = 
REMARK  5 active torsions:
REMARK  status: ('A' for Active; 'I' for Inactive)
REMARK    1  A    between atoms: C_1  and  C_2
REMARK    2  A    between atoms: N_4  and  C_5
REMARK    3  A    between atoms: C_5  and  C_6
REMARK    4  A    between atoms: C_6  and  C_7
REMARK    5  A    between atoms: C_10  and  C_12
REMARK                            x       y       z     vdW  Elec       q    Type
REMARK                         _______ _______ _______ _____ _____    ______ ____
ROOT
ATOM      1  C   UNL     1       2.312   5.562  20.706  0.00  0.00    +0.000 C 
ATOM      2  C   UNL     1       3.617   4.820  20.376  0.00  0.00    +0.000 C 
ATOM      3  N   UNL     1       4.061   5.266  19.047  0.00  0.00    +0.000 N 
ATOM      4  C   UNL     1       5.060   4.555  18.418  0.00  0.00    +0.000 C 
ATOM      5  O   UNL     1       5.608   3.591  18.959  0.00  0.00    +0.000 OA
ATOM      6  C   UNL     1       3.376   6.459  18.742  0.00  0.00    +0.000 A 
ATOM      7  C   UNL     1       3.559   7.376  17.719  0.00  0.00    +0.000 A 
ATOM      8  C   UNL     1       2.694   8.476  17.628  0.00  0.00    +0.000 A 
ATOM      9  C   UNL     1       1.687   8.678  18.579  0.00  0.00    +0.000 A 
ATOM     10  C   UNL     1       1.529   7.782  19.633  0.00  0.00    +0.000 A 
ATOM     11  C   UNL     1       2.370   6.676  19.695  0.00  0.00    +0.000 A 
ENDROOT
BRANCH   4  12
ATOM     12  C   UNL     1       5.461   4.921  17.043  0.00  0.00    +0.000 C 
ATOM     13  C   UNL     1       5.647   3.949  16.140  0.00  0.00    +0.000 C 
ATOM     14  I   UNL     1       6.238   4.332  14.221  0.00  0.00    +0.000 I 
ENDBRANCH   4  12
BRANCH   1  15
ATOM     15  C   UNL     1       1.046   4.710  20.524  0.00  0.00    +0.000 C 
BRANCH  15  16
ATOM     16  C   UNL     1       1.250   3.246  20.911  0.00  0.00    +0.000 C 
BRANCH  16  20
ATOM     17  C   UNL     1       2.970   1.531  18.013  0.00  0.00    +0.000 C 
ATOM     18  C   UNL     1       1.879   2.272  18.731  0.00  0.00    +0.000 C 
ATOM     19  O   UNL     1       0.812   2.566  18.195  0.00  0.00    +0.000 OA
ATOM     20  N   UNL     1       2.189   2.576  20.035  0.00  0.00    +0.000 N 
ATOM     21  H   UNL     1       3.108   2.348  20.391  0.00  0.00    +0.000 HD
ENDBRANCH  16  20
ENDBRANCH  15  16
ENDBRANCH   1  15
TORSDOF 4
ENDMDL
MODEL 8
REMARK VINA RESULT:      -6.1     10.237     11.549
REMARK  Name = 
REMARK  5 active torsions:
REMARK  status: ('A' for Active; 'I' for Inactive)
REMARK    1  A    between atoms: C_1  and  C_2
REMARK    2  A    between atoms: N_4  and  C_5
REMARK    3  A    between atoms: C_5  and  C_6
REMARK    4  A    between atoms: C_6  and  C_7
REMARK    5  A    between atoms: C_10  and  C_12
REMARK                            x       y       z     vdW  Elec       q    Type
REMARK                         _______ _______ _______ _____ _____    ______ ____
ROOT
ATOM      1  C   UNL     1      -3.368  10.184  16.576  0.00  0.00    +0.000 C 
ATOM      2  C   UNL     1      -2.084   9.870  17.361  0.00  0.00    +0.000 C 
ATOM      3  N   UNL     1      -1.976  10.848  18.453  0.00  0.00    +0.000 N 
ATOM      4  C   UNL     1      -0.782  10.939  19.134  0.00  0.00    +0.000 C 
ATOM      5  O   UNL     1       0.170  10.198  18.875  0.00  0.00    +0.000 OA
ATOM      6  C   UNL     1      -3.242  11.445  18.623  0.00  0.00    +0.000 A 
ATOM      7  C   UNL     1      -3.727  12.276  19.620  0.00  0.00    +0.000 A 
ATOM      8  C   UNL     1      -5.037  12.764  19.519  0.00  0.00    +0.000 A 
ATOM      9  C   UNL     1      -5.865  12.387  18.456  0.00  0.00    +0.000 A 
ATOM     10  C   UNL     1      -5.394  11.517  17.476  0.00  0.00    +0.000 A 
ATOM     11  C   UNL     1      -4.082  11.065  17.567  0.00  0.00    +0.000 A 
ENDROOT
BRANCH   4  12
ATOM     12  C   UNL     1      -0.612  11.977  20.173  0.00  0.00    +0.000 C 
ATOM     13  C   UNL     1       0.006  13.122  19.852  0.00  0.00    +0.000 C 
ATOM     14  I   UNL     1       0.332  14.612  21.213  0.00  0.00    +0.000 I 
ENDBRANCH   4  12
BRANCH   1  15
ATOM     15  C   UNL     1      -3.124  10.923  15.250  0.00  0.00    +0.000 C 
BRANCH  15  16
ATOM     16  C   UNL     1      -3.138   9.994  14.037  0.00  0.00    +0.000 C 
BRANCH  16  20
ATOM     17  C   UNL     1      -6.054   9.669  11.652  0.00  0.00    +0.000 C 
ATOM     18  C   UNL     1      -4.618   9.658  12.089  0.00  0.00    +0.000 C 
ATOM     19  O   UNL     1      -3.689   9.448  11.311  0.00  0.00    +0.000 OA
ATOM     20  N   UNL     1      -4.450   9.913  13.429  0.00  0.00    +0.000 N 
ATOM     21  H   UNL     1      -5.267  10.025  14.017  0.00  0.00    +0.000 HD
ENDBRANCH  16  20
ENDBRANCH  15  16
ENDBRANCH   1  15
TORSDOF 4
ENDMDL
MODEL 9
REMARK VINA RESULT:      -6.1      8.044     10.149
REMARK  Name = 
REMARK  5 active torsions:
REMARK  status: ('A' for Active; 'I' for Inactive)
REMARK    1  A    between atoms: C_1  and  C_2
REMARK    2  A    between atoms: N_4  and  C_5
REMARK    3  A    between atoms: C_5  and  C_6
REMARK    4  A    between atoms: C_6  and  C_7
REMARK    5  A    between atoms: C_10  and  C_12
REMARK                            x       y       z     vdW  Elec       q    Type
REMARK                         _______ _______ _______ _____ _____    ______ ____
ROOT
ATOM      1  C   UNL     1       9.874  10.563  18.767  0.00  0.00    +0.000 C 
ATOM      2  C   UNL     1      10.671  11.530  17.878  0.00  0.00    +0.000 C 
ATOM      3  N   UNL     1      10.495  12.885  18.422  0.00  0.00    +0.000 N 
ATOM      4  C   UNL     1      10.894  13.956  17.651  0.00  0.00    +0.000 C 
ATOM      5  O   UNL     1      11.425  13.799  16.548  0.00  0.00    +0.000 OA
ATOM      6  C   UNL     1      10.009  12.761  19.739  0.00  0.00    +0.000 A 
ATOM      7  C   UNL     1       9.857  13.704  20.743  0.00  0.00    +0.000 A 
ATOM      8  C   UNL     1       9.303  13.308  21.968  0.00  0.00    +0.000 A 
ATOM      9  C   UNL     1       8.949  11.973  22.199  0.00  0.00    +0.000 A 
ATOM     10  C   UNL     1       9.142  11.016  21.207  0.00  0.00    +0.000 A 
ATOM     11  C   UNL     1       9.661  11.425  19.983  0.00  0.00    +0.000 A 
ENDROOT
BRANCH   4  12
ATOM     12  C   UNL     1      10.643  15.332  18.129  0.00  0.00    +0.000 C 
ATOM     13  C   UNL     1       9.482  15.926  17.821  0.00  0.00    +0.000 C 
ATOM     14  I   UNL     1       9.040  17.838  18.395  0.00  0.00    +0.000 I 
ENDBRANCH   4  12
BRANCH   1  15
ATOM     15  C   UNL     1       8.534  10.116  18.160  0.00  0.00    +0.000 C 
BRANCH  15  16
ATOM     16  C   UNL     1       8.375   8.597  18.116  0.00  0.00    +0.000 C 
BRANCH  16  20
ATOM     17  C   UNL     1       5.548   6.691  16.483  0.00  0.00    +0.000 C 
ATOM     18  C   UNL     1       6.712   6.917  17.402  0.00  0.00    +0.000 C 
ATOM     19  O   UNL     1       7.164   6.034  18.130  0.00  0.00    +0.000 OA
ATOM     20  N   UNL     1       7.220   8.192  17.342  0.00  0.00    +0.000 N 
ATOM     21  H   UNL     1       6.762   8.880  16.757  0.00  0.00    +0.000 HD
ENDBRANCH  16  20
ENDBRANCH  15  16
ENDBRANCH   1  15
TORSDOF 4
ENDMDL
