MODEL 1
REMARK VINA RESULT:      -7.5      0.000      0.000
REMARK  Name = 
REMARK  9 active torsions:
REMARK  status: ('A' for Active; 'I' for Inactive)
REMARK    1  A    between atoms: C_1  and  N_2
REMARK    2  A    between atoms: N_2  and  C_3
REMARK    3  A    between atoms: N_2  and  C_4
REMARK    4  A    between atoms: C_4  and  C_5
REMARK    5  A    between atoms: C_8  and  C_9
REMARK    6  A    between atoms: N_11  and  C_12
REMARK    7  A    between atoms: N_11  and  C_13
REMARK    8  A    between atoms: C_13  and  C_14
REMARK    9  A    between atoms: C_17  and  C_18
REMARK                            x       y       z     vdW  Elec       q    Type
REMARK                         _______ _______ _______ _____ _____    ______ ____
ROOT
ATOM      1  C   UNL     1       7.217   4.997  16.206  0.00  0.00    +0.000 C 
ATOM      2  O   UNL     1       7.952   4.328  16.942  0.00  0.00    +0.000 OA
ATOM      3  N   UNL     1       6.186   5.765  16.785  0.00  0.00    +0.000 N 
ATOM      4  C   UNL     1       5.298   6.676  16.072  0.00  0.00    +0.000 C 
ENDROOT
BRANCH   1   8
ATOM      5  C   UNL     1       7.194   4.414  12.732  0.00  0.00    +0.000 A 
ATOM      6  N   UNL     1       8.018   5.441  12.722  0.00  0.00    +0.000 NA
ATOM      7  N   UNL     1       8.159   5.837  14.037  0.00  0.00    +0.000 NA
ATOM      8  C   UNL     1       7.431   5.012  14.763  0.00  0.00    +0.000 A 
ATOM      9  O   UNL     1       6.782   4.076  13.993  0.00  0.00    +0.000 OA
BRANCH   5  10
ATOM     10  C   UNL     1       6.653   3.618  11.587  0.00  0.00    +0.000 C 
BRANCH  10  12
ATOM     11  C   UNL     1       4.259   3.177  11.535  0.00  0.00    +0.000 C 
ATOM     12  N   UNL     1       5.570   2.682  11.964  0.00  0.00    +0.000 NA
ATOM     13  C   UNL     1       5.820   1.361  11.386  0.00  0.00    +0.000 C 
ENDBRANCH  10  12
ENDBRANCH   5  10
ENDBRANCH   1   8
BRANCH   3  14
ATOM     14  C   UNL     1       5.980   5.658  18.228  0.00  0.00    +0.000 C 
BRANCH  14  15
ATOM     15  C   UNL     1       4.692   4.957  18.593  0.00  0.00    +0.000 A 
ATOM     16  C   UNL     1       4.678   3.570  18.801  0.00  0.00    +0.000 A 
ATOM     17  C   UNL     1       3.493   2.911  19.139  0.00  0.00    +0.000 A 
ATOM     18  C   UNL     1       2.295   3.623  19.271  0.00  0.00    +0.000 A 
ATOM     19  C   UNL     1       2.308   5.011  19.064  0.00  0.00    +0.000 A 
ATOM     20  C   UNL     1       3.494   5.671  18.729  0.00  0.00    +0.000 A 
BRANCH  18  21
ATOM     21  C   UNL     1       1.005   2.924  19.623  0.00  0.00    +0.000 C 
ATOM     22  F   UNL     1       0.074   3.742  20.188  0.00  0.00    +0.000 F 
ATOM     23  F   UNL     1       0.400   2.367  18.537  0.00  0.00    +0.000 F 
ATOM     24  F   UNL     1       1.190   1.906  20.509  0.00  0.00    +0.000 F 
ENDBRANCH  18  21
ENDBRANCH  14  15
ENDBRANCH   3  14
TORSDOF 6
ENDMDL
MODEL 2
REMARK VINA RESULT:      -7.5      0.370      1.333
REMARK  Name = 
REMARK  9 active torsions:
REMARK  status: ('A' for Active; 'I' for Inactive)
REMARK    1  A    between atoms: C_1  and  N_2
REMARK    2  A    between atoms: N_2  and  C_3
REMARK    3  A    between atoms: N_2  and  C_4
REMARK    4  A    between atoms: C_4  and  C_5
REMARK    5  A    between atoms: C_8  and  C_9
REMARK    6  A    between atoms: N_11  and  C_12
REMARK    7  A    between atoms: N_11  and  C_13
REMARK    8  A    between atoms: C_13  and  C_14
REMARK    9  A    between atoms: C_17  and  C_18
REMARK                            x       y       z     vdW  Elec       q    Type
REMARK                         _______ _______ _______ _____ _____    ______ ____
ROOT
ATOM      1  C   UNL     1       7.105   5.033  16.208  0.00  0.00    +0.000 C 
ATOM      2  O   UNL     1       7.788   4.353  16.983  0.00  0.00    +0.000 OA
ATOM      3  N   UNL     1       6.077   5.842  16.731  0.00  0.00    +0.000 N 
ATOM      4  C   UNL     1       5.249   6.769  15.969  0.00  0.00    +0.000 C 
ENDROOT
BRANCH   1   8
ATOM      5  C   UNL     1       7.232   4.372  12.749  0.00  0.00    +0.000 A 
ATOM      6  N   UNL     1       8.046   5.407  12.750  0.00  0.00    +0.000 NA
ATOM      7  N   UNL     1       8.129   5.834  14.061  0.00  0.00    +0.000 NA
ATOM      8  C   UNL     1       7.379   5.018  14.774  0.00  0.00    +0.000 A 
ATOM      9  O   UNL     1       6.771   4.059  13.999  0.00  0.00    +0.000 OA
BRANCH   5  10
ATOM     10  C   UNL     1       6.746   3.545  11.601  0.00  0.00    +0.000 C 
BRANCH  10  12
ATOM     11  C   UNL     1       4.338   3.197  11.506  0.00  0.00    +0.000 C 
ATOM     12  N   UNL     1       5.623   2.643  11.943  0.00  0.00    +0.000 NA
ATOM     13  C   UNL     1       5.832   1.326  11.340  0.00  0.00    +0.000 C 
ENDBRANCH  10  12
ENDBRANCH   5  10
ENDBRANCH   1   8
BRANCH   3  14
ATOM     14  C   UNL     1       5.808   5.765  18.166  0.00  0.00    +0.000 C 
BRANCH  14  15
ATOM     15  C   UNL     1       4.604   4.914  18.500  0.00  0.00    +0.000 A 
ATOM     16  C   UNL     1       3.325   5.488  18.542  0.00  0.00    +0.000 A 
ATOM     17  C   UNL     1       2.205   4.712  18.850  0.00  0.00    +0.000 A 
ATOM     18  C   UNL     1       2.339   3.346  19.129  0.00  0.00    +0.000 A 
ATOM     19  C   UNL     1       3.619   2.772  19.086  0.00  0.00    +0.000 A 
ATOM     20  C   UNL     1       4.739   3.548  18.775  0.00  0.00    +0.000 A 
BRANCH  18  21
ATOM     21  C   UNL     1       1.141   2.498  19.476  0.00  0.00    +0.000 C 
ATOM     22  F   UNL     1       1.436   1.180  19.655  0.00  0.00    +0.000 F 
ATOM     23  F   UNL     1       0.530   2.902  20.624  0.00  0.00    +0.000 F 
ATOM     24  F   UNL     1       0.180   2.535  18.510  0.00  0.00    +0.000 F 
ENDBRANCH  18  21
ENDBRANCH  14  15
ENDBRANCH   3  14
TORSDOF 6
ENDMDL
MODEL 3
REMARK VINA RESULT:      -7.5      0.889      1.118
REMARK  Name = 
REMARK  9 active torsions:
REMARK  status: ('A' for Active; 'I' for Inactive)
REMARK    1  A    between atoms: C_1  and  N_2
REMARK    2  A    between atoms: N_2  and  C_3
REMARK    3  A    between atoms: N_2  and  C_4
REMARK    4  A    between atoms: C_4  and  C_5
REMARK    5  A    between atoms: C_8  and  C_9
REMARK    6  A    between atoms: N_11  and  C_12
REMARK    7  A    between atoms: N_11  and  C_13
REMARK    8  A    between atoms: C_13  and  C_14
REMARK    9  A    between atoms: C_17  and  C_18
REMARK                            x       y       z     vdW  Elec       q    Type
REMARK                         _______ _______ _______ _____ _____    ______ ____
ROOT
ATOM      1  C   UNL     1       7.080   4.926  16.320  0.00  0.00    +0.000 C 
ATOM      2  O   UNL     1       7.922   4.358  17.026  0.00  0.00    +0.000 OA
ATOM      3  N   UNL     1       6.111   5.743  16.937  0.00  0.00    +0.000 N 
ATOM      4  C   UNL     1       5.113   6.552  16.246  0.00  0.00    +0.000 C 
ENDROOT
BRANCH   1   8
ATOM      5  C   UNL     1       6.588   3.974  12.964  0.00  0.00    +0.000 A 
ATOM      6  N   UNL     1       7.442   4.951  12.736  0.00  0.00    +0.000 NA
ATOM      7  N   UNL     1       7.765   5.478  13.970  0.00  0.00    +0.000 NA
ATOM      8  C   UNL     1       7.107   4.774  14.869  0.00  0.00    +0.000 A 
ATOM      9  O   UNL     1       6.330   3.796  14.296  0.00  0.00    +0.000 OA
BRANCH   5  10
ATOM     10  C   UNL     1       5.876   3.088  11.992  0.00  0.00    +0.000 C 
BRANCH  10  12
ATOM     11  C   UNL     1       5.712   0.849  11.048  0.00  0.00    +0.000 C 
ATOM     12  N   UNL     1       6.593   1.828  11.692  0.00  0.00    +0.000 NA
ATOM     13  C   UNL     1       7.750   2.098  10.836  0.00  0.00    +0.000 C 
ENDBRANCH  10  12
ENDBRANCH   5  10
ENDBRANCH   1   8
BRANCH   3  14
ATOM     14  C   UNL     1       6.094   5.803  18.397  0.00  0.00    +0.000 C 
BRANCH  14  15
ATOM     15  C   UNL     1       4.941   5.041  19.010  0.00  0.00    +0.000 A 
ATOM     16  C   UNL     1       4.980   3.641  19.082  0.00  0.00    +0.000 A 
ATOM     17  C   UNL     1       3.920   2.926  19.646  0.00  0.00    +0.000 A 
ATOM     18  C   UNL     1       2.795   3.595  20.145  0.00  0.00    +0.000 A 
ATOM     19  C   UNL     1       2.756   4.996  20.073  0.00  0.00    +0.000 A 
ATOM     20  C   UNL     1       3.818   5.711  19.511  0.00  0.00    +0.000 A 
BRANCH  18  21
ATOM     21  C   UNL     1       1.638   2.836  20.745  0.00  0.00    +0.000 C 
ATOM     22  F   UNL     1       0.494   3.570  20.844  0.00  0.00    +0.000 F 
ATOM     23  F   UNL     1       1.309   1.729  20.023  0.00  0.00    +0.000 F 
ATOM     24  F   UNL     1       1.904   2.393  22.005  0.00  0.00    +0.000 F 
ENDBRANCH  18  21
ENDBRANCH  14  15
ENDBRANCH   3  14
TORSDOF 6
ENDMDL
MODEL 4
REMARK VINA RESULT:      -7.2      3.535      5.867
REMARK  Name = 
REMARK  9 active torsions:
REMARK  status: ('A' for Active; 'I' for Inactive)
REMARK    1  A    between atoms: C_1  and  N_2
REMARK    2  A    between atoms: N_2  and  C_3
REMARK    3  A    between atoms: N_2  and  C_4
REMARK    4  A    between atoms: C_4  and  C_5
REMARK    5  A    between atoms: C_8  and  C_9
REMARK    6  A    between atoms: N_11  and  C_12
REMARK    7  A    between atoms: N_11  and  C_13
REMARK    8  A    between atoms: C_13  and  C_14
REMARK    9  A    between atoms: C_17  and  C_18
REMARK                            x       y       z     vdW  Elec       q    Type
REMARK                         _______ _______ _______ _____ _____    ______ ____
ROOT
ATOM      1  C   UNL     1       6.437   6.514  16.998  0.00  0.00    +0.000 C 
ATOM      2  O   UNL     1       5.482   6.953  16.347  0.00  0.00    +0.000 OA
ATOM      3  N   UNL     1       6.624   5.120  17.082  0.00  0.00    +0.000 N 
ATOM      4  C   UNL     1       7.746   4.446  17.725  0.00  0.00    +0.000 C 
ENDROOT
BRANCH   1   8
ATOM      5  C   UNL     1       8.361   9.271  18.052  0.00  0.00    +0.000 A 
ATOM      6  N   UNL     1       8.855   8.391  18.898  0.00  0.00    +0.000 NA
ATOM      7  N   UNL     1       8.204   7.200  18.643  0.00  0.00    +0.000 NA
ATOM      8  C   UNL     1       7.374   7.427  17.645  0.00  0.00    +0.000 A 
ATOM      9  O   UNL     1       7.418   8.733  17.218  0.00  0.00    +0.000 OA
BRANCH   5  10
ATOM     10  C   UNL     1       8.667  10.728  17.909  0.00  0.00    +0.000 C 
BRANCH  10  12
ATOM     11  C   UNL     1      10.730  12.009  17.728  0.00  0.00    +0.000 C 
ATOM     12  N   UNL     1       9.913  11.148  18.588  0.00  0.00    +0.000 NA
ATOM     13  C   UNL     1       9.598  11.845  19.837  0.00  0.00    +0.000 C 
ENDBRANCH  10  12
ENDBRANCH   5  10
ENDBRANCH   1   8
BRANCH   3  14
ATOM     14  C   UNL     1       5.617   4.256  16.468  0.00  0.00    +0.000 C 
BRANCH  14  15
ATOM     15  C   UNL     1       4.460   3.945  17.389  0.00  0.00    +0.000 A 
ATOM     16  C   UNL     1       3.180   3.716  16.862  0.00  0.00    +0.000 A 
ATOM     17  C   UNL     1       2.103   3.428  17.704  0.00  0.00    +0.000 A 
ATOM     18  C   UNL     1       2.280   3.368  19.092  0.00  0.00    +0.000 A 
ATOM     19  C   UNL     1       3.560   3.595  19.619  0.00  0.00    +0.000 A 
ATOM     20  C   UNL     1       4.639   3.881  18.777  0.00  0.00    +0.000 A 
BRANCH  18  21
ATOM     21  C   UNL     1       1.124   3.071  20.014  0.00  0.00    +0.000 C 
ATOM     22  F   UNL     1       0.048   2.519  19.386  0.00  0.00    +0.000 F 
ATOM     23  F   UNL     1       1.459   2.202  21.008  0.00  0.00    +0.000 F 
ATOM     24  F   UNL     1       0.656   4.187  20.639  0.00  0.00    +0.000 F 
ENDBRANCH  18  21
ENDBRANCH  14  15
ENDBRANCH   3  14
TORSDOF 6
ENDMDL
MODEL 5
REMARK VINA RESULT:      -7.1      1.002      1.345
REMARK  Name = 
REMARK  9 active torsions:
REMARK  status: ('A' for Active; 'I' for Inactive)
REMARK    1  A    between atoms: C_1  and  N_2
REMARK    2  A    between atoms: N_2  and  C_3
REMARK    3  A    between atoms: N_2  and  C_4
REMARK    4  A    between atoms: C_4  and  C_5
REMARK    5  A    between atoms: C_8  and  C_9
REMARK    6  A    between atoms: N_11  and  C_12
REMARK    7  A    between atoms: N_11  and  C_13
REMARK    8  A    between atoms: C_13  and  C_14
REMARK    9  A    between atoms: C_17  and  C_18
REMARK                            x       y       z     vdW  Elec       q    Type
REMARK                         _______ _______ _______ _____ _____    ______ ____
ROOT
ATOM      1  C   UNL     1       7.011   4.841  16.057  0.00  0.00    +0.000 C 
ATOM      2  O   UNL     1       7.880   4.306  16.757  0.00  0.00    +0.000 OA
ATOM      3  N   UNL     1       6.080   5.706  16.666  0.00  0.00    +0.000 N 
ATOM      4  C   UNL     1       5.059   6.485  15.975  0.00  0.00    +0.000 C 
ENDROOT
BRANCH   1   8
ATOM      5  C   UNL     1       6.333   3.712  12.790  0.00  0.00    +0.000 A 
ATOM      6  N   UNL     1       7.218   4.633  12.466  0.00  0.00    +0.000 NA
ATOM      7  N   UNL     1       7.618   5.218  13.652  0.00  0.00    +0.000 NA
ATOM      8  C   UNL     1       6.969   4.601  14.618  0.00  0.00    +0.000 A 
ATOM      9  O   UNL     1       6.125   3.627  14.139  0.00  0.00    +0.000 OA
BRANCH   5  10
ATOM     10  C   UNL     1       5.541   2.803  11.904  0.00  0.00    +0.000 C 
BRANCH  10  12
ATOM     11  C   UNL     1       7.800   2.124  11.301  0.00  0.00    +0.000 C 
ATOM     12  N   UNL     1       6.370   1.939  11.035  0.00  0.00    +0.000 NA
ATOM     13  C   UNL     1       6.005   0.534  11.222  0.00  0.00    +0.000 C 
ENDBRANCH  10  12
ENDBRANCH   5  10
ENDBRANCH   1   8
BRANCH   3  14
ATOM     14  C   UNL     1       6.132   5.855  18.119  0.00  0.00    +0.000 C 
BRANCH  14  15
ATOM     15  C   UNL     1       4.975   5.189  18.827  0.00  0.00    +0.000 A 
ATOM     16  C   UNL     1       4.973   3.800  19.022  0.00  0.00    +0.000 A 
ATOM     17  C   UNL     1       3.908   3.173  19.675  0.00  0.00    +0.000 A 
ATOM     18  C   UNL     1       2.819   3.920  20.142  0.00  0.00    +0.000 A 
ATOM     19  C   UNL     1       2.822   5.309  19.947  0.00  0.00    +0.000 A 
ATOM     20  C   UNL     1       3.888   5.937  19.297  0.00  0.00    +0.000 A 
BRANCH  18  21
ATOM     21  C   UNL     1       1.657   3.256  20.836  0.00  0.00    +0.000 C 
ATOM     22  F   UNL     1       1.815   3.143  22.185  0.00  0.00    +0.000 F 
ATOM     23  F   UNL     1       0.486   3.928  20.655  0.00  0.00    +0.000 F 
ATOM     24  F   UNL     1       1.433   1.991  20.383  0.00  0.00    +0.000 F 
ENDBRANCH  18  21
ENDBRANCH  14  15
ENDBRANCH   3  14
TORSDOF 6
ENDMDL
MODEL 6
REMARK VINA RESULT:      -7.0      1.054      1.837
REMARK  Name = 
REMARK  9 active torsions:
REMARK  status: ('A' for Active; 'I' for Inactive)
REMARK    1  A    between atoms: C_1  and  N_2
REMARK    2  A    between atoms: N_2  and  C_3
REMARK    3  A    between atoms: N_2  and  C_4
REMARK    4  A    between atoms: C_4  and  C_5
REMARK    5  A    between atoms: C_8  and  C_9
REMARK    6  A    between atoms: N_11  and  C_12
REMARK    7  A    between atoms: N_11  and  C_13
REMARK    8  A    between atoms: C_13  and  C_14
REMARK    9  A    between atoms: C_17  and  C_18
REMARK                            x       y       z     vdW  Elec       q    Type
REMARK                         _______ _______ _______ _____ _____    ______ ____
ROOT
ATOM      1  C   UNL     1       6.944   4.851  15.806  0.00  0.00    +0.000 C 
ATOM      2  O   UNL     1       7.807   4.329  16.521  0.00  0.00    +0.000 OA
ATOM      3  N   UNL     1       6.031   5.754  16.385  0.00  0.00    +0.000 N 
ATOM      4  C   UNL     1       5.020   6.523  15.668  0.00  0.00    +0.000 C 
ENDROOT
BRANCH   1   8
ATOM      5  C   UNL     1       6.269   3.571  12.594  0.00  0.00    +0.000 A 
ATOM      6  N   UNL     1       7.103   4.520  12.222  0.00  0.00    +0.000 NA
ATOM      7  N   UNL     1       7.493   5.167  13.378  0.00  0.00    +0.000 NA
ATOM      8  C   UNL     1       6.891   4.556  14.377  0.00  0.00    +0.000 A 
ATOM      9  O   UNL     1       6.088   3.525  13.949  0.00  0.00    +0.000 OA
BRANCH   5  10
ATOM     10  C   UNL     1       5.508   2.593  11.756  0.00  0.00    +0.000 C 
BRANCH  10  12
ATOM     11  C   UNL     1       7.789   1.921  11.229  0.00  0.00    +0.000 C 
ATOM     12  N   UNL     1       6.368   1.698  10.949  0.00  0.00    +0.000 NA
ATOM     13  C   UNL     1       6.021   0.299  11.205  0.00  0.00    +0.000 C 
ENDBRANCH  10  12
ENDBRANCH   5  10
ENDBRANCH   1   8
BRANCH   3  14
ATOM     14  C   UNL     1       6.093   5.959  17.831  0.00  0.00    +0.000 C 
BRANCH  14  15
ATOM     15  C   UNL     1       4.977   5.264  18.578  0.00  0.00    +0.000 A 
ATOM     16  C   UNL     1       3.822   5.972  18.937  0.00  0.00    +0.000 A 
ATOM     17  C   UNL     1       2.784   5.341  19.628  0.00  0.00    +0.000 A 
ATOM     18  C   UNL     1       2.882   3.989  19.980  0.00  0.00    +0.000 A 
ATOM     19  C   UNL     1       4.038   3.280  19.620  0.00  0.00    +0.000 A 
ATOM     20  C   UNL     1       5.075   3.911  18.926  0.00  0.00    +0.000 A 
BRANCH  18  21
ATOM     21  C   UNL     1       1.776   3.297  20.738  0.00  0.00    +0.000 C 
ATOM     22  F   UNL     1       1.394   2.110  20.187  0.00  0.00    +0.000 F 
ATOM     23  F   UNL     1       2.121   3.015  22.025  0.00  0.00    +0.000 F 
ATOM     24  F   UNL     1       0.645   4.052  20.813  0.00  0.00    +0.000 F 
ENDBRANCH  18  21
ENDBRANCH  14  15
ENDBRANCH   3  14
TORSDOF 6
ENDMDL
MODEL 7
REMARK VINA RESULT:      -7.0      3.686      6.008
REMARK  Name = 
REMARK  9 active torsions:
REMARK  status: ('A' for Active; 'I' for Inactive)
REMARK    1  A    between atoms: C_1  and  N_2
REMARK    2  A    between atoms: N_2  and  C_3
REMARK    3  A    between atoms: N_2  and  C_4
REMARK    4  A    between atoms: C_4  and  C_5
REMARK    5  A    between atoms: C_8  and  C_9
REMARK    6  A    between atoms: N_11  and  C_12
REMARK    7  A    between atoms: N_11  and  C_13
REMARK    8  A    between atoms: C_13  and  C_14
REMARK    9  A    between atoms: C_17  and  C_18
REMARK                            x       y       z     vdW  Elec       q    Type
REMARK                         _______ _______ _______ _____ _____    ______ ____
ROOT
ATOM      1  C   UNL     1       7.465   6.289  18.076  0.00  0.00    +0.000 C 
ATOM      2  O   UNL     1       8.053   5.498  18.823  0.00  0.00    +0.000 OA
ATOM      3  N   UNL     1       6.410   5.814  17.271  0.00  0.00    +0.000 N 
ATOM      4  C   UNL     1       5.558   6.628  16.412  0.00  0.00    +0.000 C 
ENDROOT
BRANCH   1   8
ATOM      5  C   UNL     1       8.789   9.495  18.693  0.00  0.00    +0.000 A 
ATOM      6  N   UNL     1       8.155   9.790  17.576  0.00  0.00    +0.000 NA
ATOM      7  N   UNL     1       7.553   8.621  17.153  0.00  0.00    +0.000 NA
ATOM      8  C   UNL     1       7.839   7.700  18.051  0.00  0.00    +0.000 A 
ATOM      9  O   UNL     1       8.631   8.188  19.063  0.00  0.00    +0.000 OA
BRANCH   5  10
ATOM     10  C   UNL     1       9.644  10.365  19.558  0.00  0.00    +0.000 C 
BRANCH  10  12
ATOM     11  C   UNL     1       9.462  12.790  19.423  0.00  0.00    +0.000 C 
ATOM     12  N   UNL     1      10.121  11.596  18.887  0.00  0.00    +0.000 NA
ATOM     13  C   UNL     1      11.572  11.719  19.030  0.00  0.00    +0.000 C 
ENDBRANCH  10  12
ENDBRANCH   5  10
ENDBRANCH   1   8
BRANCH   3  14
ATOM     14  C   UNL     1       6.126   4.380  17.292  0.00  0.00    +0.000 C 
BRANCH  14  15
ATOM     15  C   UNL     1       4.806   4.046  17.949  0.00  0.00    +0.000 A 
ATOM     16  C   UNL     1       4.565   4.421  19.279  0.00  0.00    +0.000 A 
ATOM     17  C   UNL     1       3.350   4.117  19.897  0.00  0.00    +0.000 A 
ATOM     18  C   UNL     1       2.350   3.426  19.201  0.00  0.00    +0.000 A 
ATOM     19  C   UNL     1       2.590   3.051  17.870  0.00  0.00    +0.000 A 
ATOM     20  C   UNL     1       3.806   3.358  17.251  0.00  0.00    +0.000 A 
BRANCH  18  21
ATOM     21  C   UNL     1       1.037   3.079  19.858  0.00  0.00    +0.000 C 
ATOM     22  F   UNL     1       0.381   4.156  20.375  0.00  0.00    +0.000 F 
ATOM     23  F   UNL     1       0.162   2.488  18.998  0.00  0.00    +0.000 F 
ATOM     24  F   UNL     1       1.188   2.206  20.893  0.00  0.00    +0.000 F 
ENDBRANCH  18  21
ENDBRANCH  14  15
ENDBRANCH   3  14
TORSDOF 6
ENDMDL
MODEL 8
REMARK VINA RESULT:      -7.0      2.260      2.991
REMARK  Name = 
REMARK  9 active torsions:
REMARK  status: ('A' for Active; 'I' for Inactive)
REMARK    1  A    between atoms: C_1  and  N_2
REMARK    2  A    between atoms: N_2  and  C_3
REMARK    3  A    between atoms: N_2  and  C_4
REMARK    4  A    between atoms: C_4  and  C_5
REMARK    5  A    between atoms: C_8  and  C_9
REMARK    6  A    between atoms: N_11  and  C_12
REMARK    7  A    between atoms: N_11  and  C_13
REMARK    8  A    between atoms: C_13  and  C_14
REMARK    9  A    between atoms: C_17  and  C_18
REMARK                            x       y       z     vdW  Elec       q    Type
REMARK                         _______ _______ _______ _____ _____    ______ ____
ROOT
ATOM      1  C   UNL     1       6.173   4.361  17.097  0.00  0.00    +0.000 C 
ATOM      2  O   UNL     1       6.925   4.416  18.078  0.00  0.00    +0.000 OA
ATOM      3  N   UNL     1       4.809   4.067  17.297  0.00  0.00    +0.000 N 
ATOM      4  C   UNL     1       3.778   4.058  16.265  0.00  0.00    +0.000 C 
ENDROOT
BRANCH   1   8
ATOM      5  C   UNL     1       6.961   4.337  13.664  0.00  0.00    +0.000 A 
ATOM      6  N   UNL     1       7.636   5.423  13.981  0.00  0.00    +0.000 NA
ATOM      7  N   UNL     1       7.444   5.616  15.334  0.00  0.00    +0.000 NA
ATOM      8  C   UNL     1       6.686   4.624  15.757  0.00  0.00    +0.000 A 
ATOM      9  O   UNL     1       6.336   3.768  14.740  0.00  0.00    +0.000 OA
BRANCH   5  10
ATOM     10  C   UNL     1       6.779   3.687  12.329  0.00  0.00    +0.000 C 
BRANCH  10  12
ATOM     11  C   UNL     1       4.436   3.448  11.710  0.00  0.00    +0.000 C 
ATOM     12  N   UNL     1       5.615   2.774  12.260  0.00  0.00    +0.000 NA
ATOM     13  C   UNL     1       5.943   1.600  11.450  0.00  0.00    +0.000 C 
ENDBRANCH  10  12
ENDBRANCH   5  10
ENDBRANCH   1   8
BRANCH   3  14
ATOM     14  C   UNL     1       4.369   3.750  18.654  0.00  0.00    +0.000 C 
BRANCH  14  15
ATOM     15  C   UNL     1       3.499   4.825  19.263  0.00  0.00    +0.000 A 
ATOM     16  C   UNL     1       2.608   4.509  20.299  0.00  0.00    +0.000 A 
ATOM     17  C   UNL     1       1.798   5.494  20.870  0.00  0.00    +0.000 A 
ATOM     18  C   UNL     1       1.858   6.817  20.414  0.00  0.00    +0.000 A 
ATOM     19  C   UNL     1       2.750   7.134  19.378  0.00  0.00    +0.000 A 
ATOM     20  C   UNL     1       3.562   6.148  18.809  0.00  0.00    +0.000 A 
BRANCH  18  21
ATOM     21  C   UNL     1       0.981   7.889  21.012  0.00  0.00    +0.000 C 
ATOM     22  F   UNL     1      -0.255   7.447  21.377  0.00  0.00    +0.000 F 
ATOM     23  F   UNL     1       1.524   8.443  22.132  0.00  0.00    +0.000 F 
ATOM     24  F   UNL     1       0.766   8.924  20.152  0.00  0.00    +0.000 F 
ENDBRANCH  18  21
ENDBRANCH  14  15
ENDBRANCH   3  14
TORSDOF 6
ENDMDL
MODEL 9
REMARK VINA RESULT:      -6.9      1.043      1.283
REMARK  Name = 
REMARK  9 active torsions:
REMARK  status: ('A' for Active; 'I' for Inactive)
REMARK    1  A    between atoms: C_1  and  N_2
REMARK    2  A    between atoms: N_2  and  C_3
REMARK    3  A    between atoms: N_2  and  C_4
REMARK    4  A    between atoms: C_4  and  C_5
REMARK    5  A    between atoms: C_8  and  C_9
REMARK    6  A    between atoms: N_11  and  C_12
REMARK    7  A    between atoms: N_11  and  C_13
REMARK    8  A    between atoms: C_13  and  C_14
REMARK    9  A    between atoms: C_17  and  C_18
REMARK                            x       y       z     vdW  Elec       q    Type
REMARK                         _______ _______ _______ _____ _____    ______ ____
ROOT
ATOM      1  C   UNL     1       6.056   5.771  16.181  0.00  0.00    +0.000 C 
ATOM      2  O   UNL     1       4.994   6.403  16.132  0.00  0.00    +0.000 OA
ATOM      3  N   UNL     1       6.573   5.399  17.438  0.00  0.00    +0.000 N 
ATOM      4  C   UNL     1       7.755   4.576  17.664  0.00  0.00    +0.000 C 
ENDROOT
BRANCH   1   8
ATOM      5  C   UNL     1       7.012   4.490  13.041  0.00  0.00    +0.000 A 
ATOM      6  N   UNL     1       8.134   5.127  13.308  0.00  0.00    +0.000 NA
ATOM      7  N   UNL     1       7.955   5.724  14.541  0.00  0.00    +0.000 NA
ATOM      8  C   UNL     1       6.748   5.392  14.953  0.00  0.00    +0.000 A 
ATOM      9  O   UNL     1       6.085   4.606  14.041  0.00  0.00    +0.000 OA
BRANCH   5  10
ATOM     10  C   UNL     1       6.629   3.709  11.824  0.00  0.00    +0.000 C 
BRANCH  10  12
ATOM     11  C   UNL     1       4.262   3.249  11.490  0.00  0.00    +0.000 C 
ATOM     12  N   UNL     1       5.522   2.752  12.048  0.00  0.00    +0.000 NA
ATOM     13  C   UNL     1       5.852   1.452  11.461  0.00  0.00    +0.000 C 
ENDBRANCH  10  12
ENDBRANCH   5  10
ENDBRANCH   1   8
BRANCH   3  14
ATOM     14  C   UNL     1       5.870   5.863  18.632  0.00  0.00    +0.000 C 
BRANCH  14  15
ATOM     15  C   UNL     1       4.677   5.007  18.989  0.00  0.00    +0.000 A 
ATOM     16  C   UNL     1       4.719   3.619  18.792  0.00  0.00    +0.000 A 
ATOM     17  C   UNL     1       3.622   2.817  19.118  0.00  0.00    +0.000 A 
ATOM     18  C   UNL     1       2.456   3.386  19.644  0.00  0.00    +0.000 A 
ATOM     19  C   UNL     1       2.413   4.775  19.842  0.00  0.00    +0.000 A 
ATOM     20  C   UNL     1       3.512   5.576  19.518  0.00  0.00    +0.000 A 
BRANCH  18  21
ATOM     21  C   UNL     1       1.259   2.536  19.989  0.00  0.00    +0.000 C 
ATOM     22  F   UNL     1       0.093   2.981  19.441  0.00  0.00    +0.000 F 
ATOM     23  F   UNL     1       1.397   1.246  19.573  0.00  0.00    +0.000 F 
ATOM     24  F   UNL     1       1.036   2.471  21.331  0.00  0.00    +0.000 F 
ENDBRANCH  18  21
ENDBRANCH  14  15
ENDBRANCH   3  14
TORSDOF 6
ENDMDL
