MODEL 1
REMARK VINA RESULT:      -4.6      0.000      0.000
REMARK  Name = 
REMARK  3 active torsions:
REMARK  status: ('A' for Active; 'I' for Inactive)
REMARK    1  A    between atoms: C_1  and  C_2
REMARK    2  A    between atoms: C_4  and  C_5
REMARK    3  A    between atoms: C_5  and  O_6
REMARK                            x       y       z     vdW  Elec       q    Type
REMARK                         _______ _______ _______ _____ _____    ______ ____
ROOT
ATOM      1  C   UNL     1       6.271   4.198  14.509  0.00  0.00    +0.000 C 
ATOM      2  C   UNL     1       6.145   4.030  16.021  0.00  0.00    +0.000 C 
ATOM      3  C   UNL     1       7.099   4.977  16.765  0.00  0.00    +0.000 C 
ATOM      4  C   UNL     1       6.932   4.841  18.288  0.00  0.00    +0.000 C 
ATOM      5  C   UNL     1       5.455   4.989  18.675  0.00  0.00    +0.000 C 
ATOM      6  C   UNL     1       4.571   4.057  17.851  0.00  0.00    +0.000 C 
ATOM      7  N   UNL     1       4.752   4.273  16.416  0.00  0.00    +0.000 NA
ATOM      8  H   UNL     1       4.502   5.236  16.187  0.00  0.00    +0.000 HD
ENDROOT
BRANCH   4   9
ATOM      9  C   UNL     1       7.791   5.854  19.049  0.00  0.00    +0.000 C 
BRANCH   9  10
ATOM     10  O   UNL     1       7.943   5.463  20.407  0.00  0.00    +0.000 OA
ATOM     11  H   UNL     1       7.921   6.269  20.949  0.00  0.00    +0.000 HD
ENDBRANCH   9  10
ENDBRANCH   4   9
TORSDOF 2
ENDMDL
MODEL 2
REMARK VINA RESULT:      -4.6      1.834      2.557
REMARK  Name = 
REMARK  3 active torsions:
REMARK  status: ('A' for Active; 'I' for Inactive)
REMARK    1  A    between atoms: C_1  and  C_2
REMARK    2  A    between atoms: C_4  and  C_5
REMARK    3  A    between atoms: C_5  and  O_6
REMARK                            x       y       z     vdW  Elec       q    Type
REMARK                         _______ _______ _______ _____ _____    ______ ____
ROOT
ATOM      1  C   UNL     1       6.251   4.142  14.070  0.00  0.00    +0.000 C 
ATOM      2  C   UNL     1       6.021   4.977  15.327  0.00  0.00    +0.000 C 
ATOM      3  C   UNL     1       5.309   4.157  16.414  0.00  0.00    +0.000 C 
ATOM      4  C   UNL     1       5.124   4.986  17.696  0.00  0.00    +0.000 C 
ATOM      5  C   UNL     1       6.464   5.595  18.130  0.00  0.00    +0.000 C 
ATOM      6  C   UNL     1       7.132   6.341  16.979  0.00  0.00    +0.000 C 
ATOM      7  N   UNL     1       7.312   5.479  15.812  0.00  0.00    +0.000 NA
ATOM      8  H   UNL     1       7.905   4.688  16.066  0.00  0.00    +0.000 HD
ENDROOT
BRANCH   4   9
ATOM      9  C   UNL     1       4.518   4.156  18.830  0.00  0.00    +0.000 C 
BRANCH   9  10
ATOM     10  O   UNL     1       5.403   3.113  19.217  0.00  0.00    +0.000 OA
ATOM     11  H   UNL     1       5.473   2.494  18.472  0.00  0.00    +0.000 HD
ENDBRANCH   9  10
ENDBRANCH   4   9
TORSDOF 2
ENDMDL
MODEL 3
REMARK VINA RESULT:      -4.6      2.331      3.608
REMARK  Name = 
REMARK  3 active torsions:
REMARK  status: ('A' for Active; 'I' for Inactive)
REMARK    1  A    between atoms: C_1  and  C_2
REMARK    2  A    between atoms: C_4  and  C_5
REMARK    3  A    between atoms: C_5  and  O_6
REMARK                            x       y       z     vdW  Elec       q    Type
REMARK                         _______ _______ _______ _____ _____    ______ ____
ROOT
ATOM      1  C   UNL     1       7.832   5.632  19.312  0.00  0.00    +0.000 C 
ATOM      2  C   UNL     1       6.706   5.386  18.311  0.00  0.00    +0.000 C 
ATOM      3  C   UNL     1       7.255   5.250  16.882  0.00  0.00    +0.000 C 
ATOM      4  C   UNL     1       6.124   4.951  15.884  0.00  0.00    +0.000 C 
ATOM      5  C   UNL     1       5.295   3.754  16.366  0.00  0.00    +0.000 C 
ATOM      6  C   UNL     1       4.839   3.941  17.810  0.00  0.00    +0.000 C 
ATOM      7  N   UNL     1       5.970   4.178  18.705  0.00  0.00    +0.000 NA
ATOM      8  H   UNL     1       6.599   3.375  18.671  0.00  0.00    +0.000 HD
ENDROOT
BRANCH   4   9
ATOM      9  C   UNL     1       6.660   4.702  14.473  0.00  0.00    +0.000 C 
BRANCH   9  10
ATOM     10  O   UNL     1       7.795   5.517  14.215  0.00  0.00    +0.000 OA
ATOM     11  H   UNL     1       7.474   6.394  13.949  0.00  0.00    +0.000 HD
ENDBRANCH   9  10
ENDBRANCH   4   9
TORSDOF 2
ENDMDL
MODEL 4
REMARK VINA RESULT:      -4.5      4.194      5.441
REMARK  Name = 
REMARK  3 active torsions:
REMARK  status: ('A' for Active; 'I' for Inactive)
REMARK    1  A    between atoms: C_1  and  C_2
REMARK    2  A    between atoms: C_4  and  C_5
REMARK    3  A    between atoms: C_5  and  O_6
REMARK                            x       y       z     vdW  Elec       q    Type
REMARK                         _______ _______ _______ _____ _____    ______ ____
ROOT
ATOM      1  C   UNL     1       3.890   6.394  17.708  0.00  0.00    +0.000 C 
ATOM      2  C   UNL     1       2.693   5.838  18.476  0.00  0.00    +0.000 C 
ATOM      3  C   UNL     1       2.451   4.361  18.130  0.00  0.00    +0.000 C 
ATOM      4  C   UNL     1       1.277   3.791  18.943  0.00  0.00    +0.000 C 
ATOM      5  C   UNL     1       1.482   4.071  20.437  0.00  0.00    +0.000 C 
ATOM      6  C   UNL     1       1.774   5.548  20.689  0.00  0.00    +0.000 C 
ATOM      7  N   UNL     1       2.927   6.007  19.916  0.00  0.00    +0.000 NA
ATOM      8  H   UNL     1       3.750   5.468  20.187  0.00  0.00    +0.000 HD
ENDROOT
BRANCH   4   9
ATOM      9  C   UNL     1       1.087   2.293  18.698  0.00  0.00    +0.000 C 
BRANCH   9  10
ATOM     10  O   UNL     1       2.176   1.765  17.951  0.00  0.00    +0.000 OA
ATOM     11  H   UNL     1       2.994   2.140  18.317  0.00  0.00    +0.000 HD
ENDBRANCH   9  10
ENDBRANCH   4   9
TORSDOF 2
ENDMDL
MODEL 5
REMARK VINA RESULT:      -4.5      0.908      2.551
REMARK  Name = 
REMARK  3 active torsions:
REMARK  status: ('A' for Active; 'I' for Inactive)
REMARK    1  A    between atoms: C_1  and  C_2
REMARK    2  A    between atoms: C_4  and  C_5
REMARK    3  A    between atoms: C_5  and  O_6
REMARK                            x       y       z     vdW  Elec       q    Type
REMARK                         _______ _______ _______ _____ _____    ______ ____
ROOT
ATOM      1  C   UNL     1       3.500   3.724  19.310  0.00  0.00    +0.000 C 
ATOM      2  C   UNL     1       4.517   4.441  18.425  0.00  0.00    +0.000 C 
ATOM      3  C   UNL     1       5.725   4.919  19.245  0.00  0.00    +0.000 C 
ATOM      4  C   UNL     1       6.770   5.595  18.342  0.00  0.00    +0.000 C 
ATOM      5  C   UNL     1       7.121   4.681  17.162  0.00  0.00    +0.000 C 
ATOM      6  C   UNL     1       5.865   4.204  16.437  0.00  0.00    +0.000 C 
ATOM      7  N   UNL     1       4.940   3.535  17.350  0.00  0.00    +0.000 NA
ATOM      8  H   UNL     1       5.400   2.721  17.759  0.00  0.00    +0.000 HD
ENDROOT
BRANCH   4   9
ATOM      9  C   UNL     1       8.031   5.980  19.118  0.00  0.00    +0.000 C 
BRANCH   9  10
ATOM     10  O   UNL     1       7.955   5.517  20.460  0.00  0.00    +0.000 OA
ATOM     11  H   UNL     1       8.265   4.596  20.472  0.00  0.00    +0.000 HD
ENDBRANCH   9  10
ENDBRANCH   4   9
TORSDOF 2
ENDMDL
MODEL 6
REMARK VINA RESULT:      -4.5      3.018      4.657
REMARK  Name = 
REMARK  3 active torsions:
REMARK  status: ('A' for Active; 'I' for Inactive)
REMARK    1  A    between atoms: C_1  and  C_2
REMARK    2  A    between atoms: C_4  and  C_5
REMARK    3  A    between atoms: C_5  and  O_6
REMARK                            x       y       z     vdW  Elec       q    Type
REMARK                         _______ _______ _______ _____ _____    ______ ____
ROOT
ATOM      1  C   UNL     1       1.360   2.678  21.227  0.00  0.00    +0.000 C 
ATOM      2  C   UNL     1       1.883   3.077  19.849  0.00  0.00    +0.000 C 
ATOM      3  C   UNL     1       3.214   3.836  19.960  0.00  0.00    +0.000 C 
ATOM      4  C   UNL     1       3.762   4.191  18.567  0.00  0.00    +0.000 C 
ATOM      5  C   UNL     1       3.813   2.939  17.683  0.00  0.00    +0.000 C 
ATOM      6  C   UNL     1       2.471   2.213  17.673  0.00  0.00    +0.000 C 
ATOM      7  N   UNL     1       2.035   1.871  19.026  0.00  0.00    +0.000 NA
ATOM      8  H   UNL     1       2.727   1.256  19.457  0.00  0.00    +0.000 HD
ENDROOT
BRANCH   4   9
ATOM      9  C   UNL     1       5.142   4.849  18.649  0.00  0.00    +0.000 C 
BRANCH   9  10
ATOM     10  O   UNL     1       6.169   3.866  18.621  0.00  0.00    +0.000 OA
ATOM     11  H   UNL     1       5.784   3.029  18.931  0.00  0.00    +0.000 HD
ENDBRANCH   9  10
ENDBRANCH   4   9
TORSDOF 2
ENDMDL
MODEL 7
REMARK VINA RESULT:      -4.5      2.285      2.707
REMARK  Name = 
REMARK  3 active torsions:
REMARK  status: ('A' for Active; 'I' for Inactive)
REMARK    1  A    between atoms: C_1  and  C_2
REMARK    2  A    between atoms: C_4  and  C_5
REMARK    3  A    between atoms: C_5  and  O_6
REMARK                            x       y       z     vdW  Elec       q    Type
REMARK                         _______ _______ _______ _____ _____    ______ ____
ROOT
ATOM      1  C   UNL     1       6.721   4.703  14.281  0.00  0.00    +0.000 C 
ATOM      2  C   UNL     1       5.570   5.045  15.223  0.00  0.00    +0.000 C 
ATOM      3  C   UNL     1       5.376   3.947  16.281  0.00  0.00    +0.000 C 
ATOM      4  C   UNL     1       4.249   4.320  17.260  0.00  0.00    +0.000 C 
ATOM      5  C   UNL     1       4.486   5.723  17.832  0.00  0.00    +0.000 C 
ATOM      6  C   UNL     1       4.728   6.740  16.721  0.00  0.00    +0.000 C 
ATOM      7  N   UNL     1       5.839   6.341  15.858  0.00  0.00    +0.000 NA
ATOM      8  H   UNL     1       6.690   6.271  16.417  0.00  0.00    +0.000 HD
ENDROOT
BRANCH   4   9
ATOM      9  C   UNL     1       4.112   3.295  18.388  0.00  0.00    +0.000 C 
BRANCH   9  10
ATOM     10  O   UNL     1       5.325   3.189  19.121  0.00  0.00    +0.000 OA
ATOM     11  H   UNL     1       5.912   3.904  18.824  0.00  0.00    +0.000 HD
ENDBRANCH   9  10
ENDBRANCH   4   9
TORSDOF 2
ENDMDL
MODEL 8
REMARK VINA RESULT:      -4.5      2.409      3.701
REMARK  Name = 
REMARK  3 active torsions:
REMARK  status: ('A' for Active; 'I' for Inactive)
REMARK    1  A    between atoms: C_1  and  C_2
REMARK    2  A    between atoms: C_4  and  C_5
REMARK    3  A    between atoms: C_5  and  O_6
REMARK                            x       y       z     vdW  Elec       q    Type
REMARK                         _______ _______ _______ _____ _____    ______ ____
ROOT
ATOM      1  C   UNL     1       7.538   7.230  17.722  0.00  0.00    +0.000 C 
ATOM      2  C   UNL     1       7.194   5.865  17.132  0.00  0.00    +0.000 C 
ATOM      3  C   UNL     1       5.806   5.395  17.592  0.00  0.00    +0.000 C 
ATOM      4  C   UNL     1       5.442   4.044  16.955  0.00  0.00    +0.000 C 
ATOM      5  C   UNL     1       5.621   4.111  15.433  0.00  0.00    +0.000 C 
ATOM      6  C   UNL     1       7.003   4.640  15.061  0.00  0.00    +0.000 C 
ATOM      7  N   UNL     1       7.260   5.945  15.667  0.00  0.00    +0.000 NA
ATOM      8  H   UNL     1       6.563   6.613  15.337  0.00  0.00    +0.000 HD
ENDROOT
BRANCH   4   9
ATOM      9  C   UNL     1       4.019   3.610  17.310  0.00  0.00    +0.000 C 
BRANCH   9  10
ATOM     10  O   UNL     1       4.015   2.297  17.855  0.00  0.00    +0.000 OA
ATOM     11  H   UNL     1       3.265   2.234  18.468  0.00  0.00    +0.000 HD
ENDBRANCH   9  10
ENDBRANCH   4   9
TORSDOF 2
ENDMDL
MODEL 9
REMARK VINA RESULT:      -4.4      2.825      3.722
REMARK  Name = 
REMARK  3 active torsions:
REMARK  status: ('A' for Active; 'I' for Inactive)
REMARK    1  A    between atoms: C_1  and  C_2
REMARK    2  A    between atoms: C_4  and  C_5
REMARK    3  A    between atoms: C_5  and  O_6
REMARK                            x       y       z     vdW  Elec       q    Type
REMARK                         _______ _______ _______ _____ _____    ______ ____
ROOT
ATOM      1  C   UNL     1       6.992   4.574  15.818  0.00  0.00    +0.000 C 
ATOM      2  C   UNL     1       5.911   4.690  16.889  0.00  0.00    +0.000 C 
ATOM      3  C   UNL     1       4.665   3.874  16.510  0.00  0.00    +0.000 C 
ATOM      4  C   UNL     1       3.599   3.952  17.615  0.00  0.00    +0.000 C 
ATOM      5  C   UNL     1       4.213   3.584  18.972  0.00  0.00    +0.000 C 
ATOM      6  C   UNL     1       5.476   4.397  19.245  0.00  0.00    +0.000 C 
ATOM      7  N   UNL     1       6.459   4.240  18.175  0.00  0.00    +0.000 NA
ATOM      8  H   UNL     1       6.722   3.256  18.101  0.00  0.00    +0.000 HD
ENDROOT
BRANCH   4   9
ATOM      9  C   UNL     1       2.395   3.057  17.310  0.00  0.00    +0.000 C 
BRANCH   9  10
ATOM     10  O   UNL     1       2.609   1.742  17.806  0.00  0.00    +0.000 OA
ATOM     11  H   UNL     1       2.845   1.816  18.745  0.00  0.00    +0.000 HD
ENDBRANCH   9  10
ENDBRANCH   4   9
TORSDOF 2
ENDMDL
