MODEL 1
REMARK VINA RESULT:      -4.0      0.000      0.000
REMARK  Name = 
REMARK  8 active torsions:
REMARK  status: ('A' for Active; 'I' for Inactive)
REMARK    1  A    between atoms: C_1  and  C_2
REMARK    2  A    between atoms: C_2  and  S_3
REMARK    3  A    between atoms: S_3  and  C_4
REMARK    4  A    between atoms: C_4  and  C_5
REMARK    5  A    between atoms: C_5  and  N_6
REMARK    6  A    between atoms: N_6  and  C_7
REMARK    7  A    between atoms: C_7  and  C_8
REMARK    8  A    between atoms: C_8  and  N_9
REMARK                            x       y       z     vdW  Elec       q    Type
REMARK                         _______ _______ _______ _____ _____    ______ ____
ROOT
ATOM      1  N   UNL     1       6.251   4.032  18.785  0.00  0.00    +0.000 NA
ATOM      2  H   UNL     1       6.521   3.292  18.137  0.00  0.00    +0.000 HD
ENDROOT
BRANCH   1   3
ATOM      3  C   UNL     1       4.812   3.951  19.057  0.00  0.00    +0.000 C 
BRANCH   3   4
ATOM      4  C   UNL     1       4.033   3.338  17.881  0.00  0.00    +0.000 C 
BRANCH   4   5
ATOM      5  S   UNL     1       2.852   2.066  18.454  0.00  0.00    +0.000 S 
BRANCH   5   7
ATOM      6  C   UNL     1       0.959   3.244  20.006  0.00  0.00    +0.000 C 
ATOM      7  C   UNL     1       1.352   3.080  18.547  0.00  0.00    +0.000 C 
ENDBRANCH   5   7
ENDBRANCH   4   5
ENDBRANCH   3   4
ENDBRANCH   1   3
BRANCH   1   8
ATOM      8  C   UNL     1       6.617   5.322  18.191  0.00  0.00    +0.000 C 
BRANCH   8   9
ATOM      9  C   UNL     1       7.769   5.983  18.971  0.00  0.00    +0.000 C 
BRANCH   9  10
ATOM     10  N   UNL     1       7.951   5.394  20.307  0.00  0.00    +0.000 NA
ATOM     11  H   UNL     1       8.833   5.754  20.679  0.00  0.00    +0.000 HD
ATOM     12  H   UNL     1       8.097   4.393  20.200  0.00  0.00    +0.000 HD
ENDBRANCH   9  10
ENDBRANCH   8   9
ENDBRANCH   1   8
TORSDOF 7
ENDMDL
MODEL 2
REMARK VINA RESULT:      -3.9      1.165      1.330
REMARK  Name = 
REMARK  8 active torsions:
REMARK  status: ('A' for Active; 'I' for Inactive)
REMARK    1  A    between atoms: C_1  and  C_2
REMARK    2  A    between atoms: C_2  and  S_3
REMARK    3  A    between atoms: S_3  and  C_4
REMARK    4  A    between atoms: C_4  and  C_5
REMARK    5  A    between atoms: C_5  and  N_6
REMARK    6  A    between atoms: N_6  and  C_7
REMARK    7  A    between atoms: C_7  and  C_8
REMARK    8  A    between atoms: C_8  and  N_9
REMARK                            x       y       z     vdW  Elec       q    Type
REMARK                         _______ _______ _______ _____ _____    ______ ____
ROOT
ATOM      1  N   UNL     1       5.942   4.074  18.558  0.00  0.00    +0.000 NA
ATOM      2  H   UNL     1       5.737   4.083  17.559  0.00  0.00    +0.000 HD
ENDROOT
BRANCH   1   3
ATOM      3  C   UNL     1       4.775   3.584  19.298  0.00  0.00    +0.000 C 
BRANCH   3   4
ATOM      4  C   UNL     1       3.721   4.683  19.513  0.00  0.00    +0.000 C 
BRANCH   4   5
ATOM      5  S   UNL     1       2.382   4.574  18.273  0.00  0.00    +0.000 S 
BRANCH   5   7
ATOM      6  C   UNL     1       0.982   2.307  18.800  0.00  0.00    +0.000 C 
ATOM      7  C   UNL     1       1.121   3.744  19.275  0.00  0.00    +0.000 C 
ENDBRANCH   5   7
ENDBRANCH   4   5
ENDBRANCH   3   4
ENDBRANCH   1   3
BRANCH   1   8
ATOM      8  C   UNL     1       6.309   5.434  18.966  0.00  0.00    +0.000 C 
BRANCH   8   9
ATOM      9  C   UNL     1       7.827   5.551  19.197  0.00  0.00    +0.000 C 
BRANCH   9  10
ATOM     10  N   UNL     1       8.193   5.386  20.612  0.00  0.00    +0.000 NA
ATOM     11  H   UNL     1       7.808   4.490  20.922  0.00  0.00    +0.000 HD
ATOM     12  H   UNL     1       7.699   6.089  21.156  0.00  0.00    +0.000 HD
ENDBRANCH   9  10
ENDBRANCH   8   9
ENDBRANCH   1   8
TORSDOF 7
ENDMDL
MODEL 3
REMARK VINA RESULT:      -3.9      1.265      1.344
REMARK  Name = 
REMARK  8 active torsions:
REMARK  status: ('A' for Active; 'I' for Inactive)
REMARK    1  A    between atoms: C_1  and  C_2
REMARK    2  A    between atoms: C_2  and  S_3
REMARK    3  A    between atoms: S_3  and  C_4
REMARK    4  A    between atoms: C_4  and  C_5
REMARK    5  A    between atoms: C_5  and  N_6
REMARK    6  A    between atoms: N_6  and  C_7
REMARK    7  A    between atoms: C_7  and  C_8
REMARK    8  A    between atoms: C_8  and  N_9
REMARK                            x       y       z     vdW  Elec       q    Type
REMARK                         _______ _______ _______ _____ _____    ______ ____
ROOT
ATOM      1  N   UNL     1       6.220   4.032  18.740  0.00  0.00    +0.000 NA
ATOM      2  H   UNL     1       6.346   3.304  18.036  0.00  0.00    +0.000 HD
ENDROOT
BRANCH   1   3
ATOM      3  C   UNL     1       4.833   4.025  19.215  0.00  0.00    +0.000 C 
BRANCH   3   4
ATOM      4  C   UNL     1       3.825   3.866  18.063  0.00  0.00    +0.000 C 
BRANCH   4   5
ATOM      5  S   UNL     1       2.467   5.083  18.193  0.00  0.00    +0.000 S 
BRANCH   5   7
ATOM      6  C   UNL     1       1.025   3.902  20.170  0.00  0.00    +0.000 C 
ATOM      7  C   UNL     1       2.115   4.941  19.966  0.00  0.00    +0.000 C 
ENDBRANCH   5   7
ENDBRANCH   4   5
ENDBRANCH   3   4
ENDBRANCH   1   3
BRANCH   1   8
ATOM      8  C   UNL     1       6.579   5.321  18.141  0.00  0.00    +0.000 C 
BRANCH   8   9
ATOM      9  C   UNL     1       7.744   5.980  18.904  0.00  0.00    +0.000 C 
BRANCH   9  10
ATOM     10  N   UNL     1       7.908   5.430  20.258  0.00  0.00    +0.000 NA
ATOM     11  H   UNL     1       7.256   5.928  20.869  0.00  0.00    +0.000 HD
ATOM     12  H   UNL     1       8.834   5.680  20.597  0.00  0.00    +0.000 HD
ENDBRANCH   9  10
ENDBRANCH   8   9
ENDBRANCH   1   8
TORSDOF 7
ENDMDL
MODEL 4
REMARK VINA RESULT:      -3.8      1.674      2.083
REMARK  Name = 
REMARK  8 active torsions:
REMARK  status: ('A' for Active; 'I' for Inactive)
REMARK    1  A    between atoms: C_1  and  C_2
REMARK    2  A    between atoms: C_2  and  S_3
REMARK    3  A    between atoms: S_3  and  C_4
REMARK    4  A    between atoms: C_4  and  C_5
REMARK    5  A    between atoms: C_5  and  N_6
REMARK    6  A    between atoms: N_6  and  C_7
REMARK    7  A    between atoms: C_7  and  C_8
REMARK    8  A    between atoms: C_8  and  N_9
REMARK                            x       y       z     vdW  Elec       q    Type
REMARK                         _______ _______ _______ _____ _____    ______ ____
ROOT
ATOM      1  N   UNL     1       5.707   3.625  18.529  0.00  0.00    +0.000 NA
ATOM      2  H   UNL     1       5.595   2.687  18.145  0.00  0.00    +0.000 HD
ENDROOT
BRANCH   1   3
ATOM      3  C   UNL     1       4.562   3.948  19.385  0.00  0.00    +0.000 C 
BRANCH   3   4
ATOM      4  C   UNL     1       3.891   2.688  19.957  0.00  0.00    +0.000 C 
BRANCH   4   5
ATOM      5  S   UNL     1       2.443   2.192  18.957  0.00  0.00    +0.000 S 
BRANCH   5   7
ATOM      6  C   UNL     1       1.580   2.821  21.455  0.00  0.00    +0.000 C 
ATOM      7  C   UNL     1       1.121   2.853  20.007  0.00  0.00    +0.000 C 
ENDBRANCH   5   7
ENDBRANCH   4   5
ENDBRANCH   3   4
ENDBRANCH   1   3
BRANCH   1   8
ATOM      8  C   UNL     1       5.831   4.569  17.413  0.00  0.00    +0.000 C 
BRANCH   8   9
ATOM      9  C   UNL     1       7.304   4.742  16.997  0.00  0.00    +0.000 C 
BRANCH   9  10
ATOM     10  N   UNL     1       7.449   5.547  15.775  0.00  0.00    +0.000 NA
ATOM     11  H   UNL     1       7.758   4.917  15.031  0.00  0.00    +0.000 HD
ATOM     12  H   UNL     1       8.219   6.198  15.908  0.00  0.00    +0.000 HD
ENDBRANCH   9  10
ENDBRANCH   8   9
ENDBRANCH   1   8
TORSDOF 7
ENDMDL
MODEL 5
REMARK VINA RESULT:      -3.8      1.832      2.335
REMARK  Name = 
REMARK  8 active torsions:
REMARK  status: ('A' for Active; 'I' for Inactive)
REMARK    1  A    between atoms: C_1  and  C_2
REMARK    2  A    between atoms: C_2  and  S_3
REMARK    3  A    between atoms: S_3  and  C_4
REMARK    4  A    between atoms: C_4  and  C_5
REMARK    5  A    between atoms: C_5  and  N_6
REMARK    6  A    between atoms: N_6  and  C_7
REMARK    7  A    between atoms: C_7  and  C_8
REMARK    8  A    between atoms: C_8  and  N_9
REMARK                            x       y       z     vdW  Elec       q    Type
REMARK                         _______ _______ _______ _____ _____    ______ ____
ROOT
ATOM      1  N   UNL     1       6.276   4.042  18.504  0.00  0.00    +0.000 NA
ATOM      2  H   UNL     1       5.819   3.295  17.981  0.00  0.00    +0.000 HD
ENDROOT
BRANCH   1   3
ATOM      3  C   UNL     1       5.267   4.851  19.194  0.00  0.00    +0.000 C 
BRANCH   3   4
ATOM      4  C   UNL     1       3.935   4.101  19.359  0.00  0.00    +0.000 C 
BRANCH   4   5
ATOM      5  S   UNL     1       2.892   4.257  17.865  0.00  0.00    +0.000 S 
BRANCH   5   7
ATOM      6  C   UNL     1       1.158   3.961  19.935  0.00  0.00    +0.000 C 
ATOM      7  C   UNL     1       1.363   3.516  18.497  0.00  0.00    +0.000 C 
ENDBRANCH   5   7
ENDBRANCH   4   5
ENDBRANCH   3   4
ENDBRANCH   1   3
BRANCH   1   8
ATOM      8  C   UNL     1       7.065   4.847  17.566  0.00  0.00    +0.000 C 
BRANCH   8   9
ATOM      9  C   UNL     1       6.737   4.475  16.107  0.00  0.00    +0.000 C 
BRANCH   9  10
ATOM     10  N   UNL     1       7.524   5.254  15.140  0.00  0.00    +0.000 NA
ATOM     11  H   UNL     1       7.986   4.587  14.517  0.00  0.00    +0.000 HD
ATOM     12  H   UNL     1       8.279   5.718  15.639  0.00  0.00    +0.000 HD
ENDBRANCH   9  10
ENDBRANCH   8   9
ENDBRANCH   1   8
TORSDOF 7
ENDMDL
MODEL 6
REMARK VINA RESULT:      -3.8      2.860      5.496
REMARK  Name = 
REMARK  8 active torsions:
REMARK  status: ('A' for Active; 'I' for Inactive)
REMARK    1  A    between atoms: C_1  and  C_2
REMARK    2  A    between atoms: C_2  and  S_3
REMARK    3  A    between atoms: S_3  and  C_4
REMARK    4  A    between atoms: C_4  and  C_5
REMARK    5  A    between atoms: C_5  and  N_6
REMARK    6  A    between atoms: N_6  and  C_7
REMARK    7  A    between atoms: C_7  and  C_8
REMARK    8  A    between atoms: C_8  and  N_9
REMARK                            x       y       z     vdW  Elec       q    Type
REMARK                         _______ _______ _______ _____ _____    ______ ____
ROOT
ATOM      1  N   UNL     1       5.254   3.164  19.265  0.00  0.00    +0.000 NA
ATOM      2  H   UNL     1       5.696   3.435  20.144  0.00  0.00    +0.000 HD
ENDROOT
BRANCH   1   3
ATOM      3  C   UNL     1       4.849   4.363  18.525  0.00  0.00    +0.000 C 
BRANCH   3   4
ATOM      4  C   UNL     1       5.701   4.582  17.263  0.00  0.00    +0.000 C 
BRANCH   4   5
ATOM      5  S   UNL     1       5.902   6.361  16.895  0.00  0.00    +0.000 S 
BRANCH   5   7
ATOM      6  C   UNL     1       7.815   8.139  17.642  0.00  0.00    +0.000 C 
ATOM      7  C   UNL     1       7.455   6.669  17.778  0.00  0.00    +0.000 C 
ENDBRANCH   5   7
ENDBRANCH   4   5
ENDBRANCH   3   4
ENDBRANCH   1   3
BRANCH   1   8
ATOM      8  C   UNL     1       4.107   2.304  19.571  0.00  0.00    +0.000 C 
BRANCH   8   9
ATOM      9  C   UNL     1       3.439   1.794  18.280  0.00  0.00    +0.000 C 
BRANCH   9  10
ATOM     10  N   UNL     1       1.980   1.665  18.418  0.00  0.00    +0.000 NA
ATOM     11  H   UNL     1       1.577   2.589  18.251  0.00  0.00    +0.000 HD
ATOM     12  H   UNL     1       1.766   1.453  19.389  0.00  0.00    +0.000 HD
ENDBRANCH   9  10
ENDBRANCH   8   9
ENDBRANCH   1   8
TORSDOF 7
ENDMDL
MODEL 7
REMARK VINA RESULT:      -3.7      1.617      1.843
REMARK  Name = 
REMARK  8 active torsions:
REMARK  status: ('A' for Active; 'I' for Inactive)
REMARK    1  A    between atoms: C_1  and  C_2
REMARK    2  A    between atoms: C_2  and  S_3
REMARK    3  A    between atoms: S_3  and  C_4
REMARK    4  A    between atoms: C_4  and  C_5
REMARK    5  A    between atoms: C_5  and  N_6
REMARK    6  A    between atoms: N_6  and  C_7
REMARK    7  A    between atoms: C_7  and  C_8
REMARK    8  A    between atoms: C_8  and  N_9
REMARK                            x       y       z     vdW  Elec       q    Type
REMARK                         _______ _______ _______ _____ _____    ______ ____
ROOT
ATOM      1  N   UNL     1       5.690   3.802  19.088  0.00  0.00    +0.000 NA
ATOM      2  H   UNL     1       6.386   3.121  18.784  0.00  0.00    +0.000 HD
ENDROOT
BRANCH   1   3
ATOM      3  C   UNL     1       4.346   3.306  18.776  0.00  0.00    +0.000 C 
BRANCH   3   4
ATOM      4  C   UNL     1       3.779   2.418  19.897  0.00  0.00    +0.000 C 
BRANCH   4   5
ATOM      5  S   UNL     1       1.981   2.675  20.106  0.00  0.00    +0.000 S 
BRANCH   5   7
ATOM      6  C   UNL     1       1.727   5.335  20.600  0.00  0.00    +0.000 C 
ATOM      7  C   UNL     1       1.846   4.357  19.443  0.00  0.00    +0.000 C 
ENDBRANCH   5   7
ENDBRANCH   4   5
ENDBRANCH   3   4
ENDBRANCH   1   3
BRANCH   1   8
ATOM      8  C   UNL     1       5.965   5.076  18.417  0.00  0.00    +0.000 C 
BRANCH   8   9
ATOM      9  C   UNL     1       7.473   5.245  18.149  0.00  0.00    +0.000 C 
BRANCH   9  10
ATOM     10  N   UNL     1       8.004   4.202  17.258  0.00  0.00    +0.000 NA
ATOM     11  H   UNL     1       7.287   4.012  16.553  0.00  0.00    +0.000 HD
ATOM     12  H   UNL     1       8.089   3.339  17.788  0.00  0.00    +0.000 HD
ENDBRANCH   9  10
ENDBRANCH   8   9
ENDBRANCH   1   8
TORSDOF 7
ENDMDL
MODEL 8
REMARK VINA RESULT:      -3.7      1.752      1.940
REMARK  Name = 
REMARK  8 active torsions:
REMARK  status: ('A' for Active; 'I' for Inactive)
REMARK    1  A    between atoms: C_1  and  C_2
REMARK    2  A    between atoms: C_2  and  S_3
REMARK    3  A    between atoms: S_3  and  C_4
REMARK    4  A    between atoms: C_4  and  C_5
REMARK    5  A    between atoms: C_5  and  N_6
REMARK    6  A    between atoms: N_6  and  C_7
REMARK    7  A    between atoms: C_7  and  C_8
REMARK    8  A    between atoms: C_8  and  N_9
REMARK                            x       y       z     vdW  Elec       q    Type
REMARK                         _______ _______ _______ _____ _____    ______ ____
ROOT
ATOM      1  N   UNL     1       6.922   4.261  17.194  0.00  0.00    +0.000 NA
ATOM      2  H   UNL     1       7.571   4.874  16.700  0.00  0.00    +0.000 HD
ENDROOT
BRANCH   1   3
ATOM      3  C   UNL     1       5.747   4.005  16.354  0.00  0.00    +0.000 C 
BRANCH   3   4
ATOM      4  C   UNL     1       4.482   4.687  16.901  0.00  0.00    +0.000 C 
BRANCH   4   5
ATOM      5  S   UNL     1       3.189   3.462  17.313  0.00  0.00    +0.000 S 
BRANCH   5   7
ATOM      6  C   UNL     1       2.515   5.943  18.192  0.00  0.00    +0.000 C 
ATOM      7  C   UNL     1       1.892   4.589  17.892  0.00  0.00    +0.000 C 
ENDBRANCH   5   7
ENDBRANCH   4   5
ENDBRANCH   3   4
ENDBRANCH   1   3
BRANCH   1   8
ATOM      8  C   UNL     1       6.551   4.903  18.459  0.00  0.00    +0.000 C 
BRANCH   8   9
ATOM      9  C   UNL     1       7.704   5.773  18.995  0.00  0.00    +0.000 C 
BRANCH   9  10
ATOM     10  N   UNL     1       8.051   5.447  20.386  0.00  0.00    +0.000 NA
ATOM     11  H   UNL     1       7.765   4.480  20.551  0.00  0.00    +0.000 HD
ATOM     12  H   UNL     1       7.467   6.006  21.003  0.00  0.00    +0.000 HD
ENDBRANCH   9  10
ENDBRANCH   8   9
ENDBRANCH   1   8
TORSDOF 7
ENDMDL
MODEL 9
REMARK VINA RESULT:      -3.7      1.587      1.704
REMARK  Name = 
REMARK  8 active torsions:
REMARK  status: ('A' for Active; 'I' for Inactive)
REMARK    1  A    between atoms: C_1  and  C_2
REMARK    2  A    between atoms: C_2  and  S_3
REMARK    3  A    between atoms: S_3  and  C_4
REMARK    4  A    between atoms: C_4  and  C_5
REMARK    5  A    between atoms: C_5  and  N_6
REMARK    6  A    between atoms: N_6  and  C_7
REMARK    7  A    between atoms: C_7  and  C_8
REMARK    8  A    between atoms: C_8  and  N_9
REMARK                            x       y       z     vdW  Elec       q    Type
REMARK                         _______ _______ _______ _____ _____    ______ ____
ROOT
ATOM      1  N   UNL     1       5.927   3.980  18.678  0.00  0.00    +0.000 NA
ATOM      2  H   UNL     1       6.439   3.540  17.913  0.00  0.00    +0.000 HD
ENDROOT
BRANCH   1   3
ATOM      3  C   UNL     1       4.508   3.620  18.594  0.00  0.00    +0.000 C 
BRANCH   3   4
ATOM      4  C   UNL     1       3.704   4.621  17.748  0.00  0.00    +0.000 C 
BRANCH   4   5
ATOM      5  S   UNL     1       1.905   4.337  17.911  0.00  0.00    +0.000 S 
BRANCH   5   7
ATOM      6  C   UNL     1       1.009   3.700  20.395  0.00  0.00    +0.000 C 
ATOM      7  C   UNL     1       1.917   3.170  19.298  0.00  0.00    +0.000 C 
ENDBRANCH   5   7
ENDBRANCH   4   5
ENDBRANCH   3   4
ENDBRANCH   1   3
BRANCH   1   8
ATOM      8  C   UNL     1       6.122   5.431  18.588  0.00  0.00    +0.000 C 
BRANCH   8   9
ATOM      9  C   UNL     1       7.497   5.768  17.980  0.00  0.00    +0.000 C 
BRANCH   9  10
ATOM     10  N   UNL     1       7.385   6.361  16.639  0.00  0.00    +0.000 NA
ATOM     11  H   UNL     1       8.318   6.337  16.219  0.00  0.00    +0.000 HD
ATOM     12  H   UNL     1       7.165   7.348  16.741  0.00  0.00    +0.000 HD
ENDBRANCH   9  10
ENDBRANCH   8   9
ENDBRANCH   1   8
TORSDOF 7
ENDMDL
