MODEL 1
REMARK VINA RESULT:      -6.9      0.000      0.000
REMARK  Name = 
REMARK  4 active torsions:
REMARK  status: ('A' for Active; 'I' for Inactive)
REMARK    1  A    between atoms: C_1  and  C_2
REMARK    2  A    between atoms: C_7  and  N_8
REMARK    3  A    between atoms: C_9  and  C_10
REMARK    4  A    between atoms: C_15  and  C_16
REMARK                            x       y       z     vdW  Elec       q    Type
REMARK                         _______ _______ _______ _____ _____    ______ ____
ROOT
ATOM      1  N   UNL     1      -3.358  11.576  17.855  0.00  0.00    +0.000 N 
ATOM      2  C   UNL     1      -3.705  11.164  16.577  0.00  0.00    +0.000 A 
ATOM      3  C   UNL     1      -2.765  10.882  15.459  0.00  0.00    +0.000 C 
ATOM      4  N   UNL     1      -5.012  11.006  16.476  0.00  0.00    +0.000 NA
ATOM      5  C   UNL     1      -5.515  11.328  17.705  0.00  0.00    +0.000 A 
ATOM      6  C   UNL     1      -6.828  11.284  18.170  0.00  0.00    +0.000 A 
ATOM      7  C   UNL     1      -7.044  11.681  19.489  0.00  0.00    +0.000 A 
ATOM      8  C   UNL     1      -5.977  12.127  20.284  0.00  0.00    +0.000 A 
ATOM      9  N   UNL     1      -4.681  12.146  19.861  0.00  0.00    +0.000 NA
ATOM     10  C   UNL     1      -4.516  11.735  18.583  0.00  0.00    +0.000 A 
ENDROOT
BRANCH   1  17
ATOM     11  C   UNL     1       2.152  13.726  19.404  0.00  0.00    +0.000 C 
ATOM     12  C   UNL     1       1.870  12.366  18.823  0.00  0.00    +0.000 C 
ATOM     13  O   UNL     1       2.640  11.864  18.002  0.00  0.00    +0.000 OA
ATOM     14  N   UNL     1       0.716  11.742  19.231  0.00  0.00    +0.000 N 
ATOM     15  C   UNL     1      -0.269  12.233  20.197  0.00  0.00    +0.000 C 
ATOM     16  C   UNL     1      -1.540  11.558  19.767  0.00  0.00    +0.000 C 
ATOM     17  C   UNL     1      -1.994  11.701  18.324  0.00  0.00    +0.000 C 
ATOM     18  C   UNL     1      -1.189  10.499  18.796  0.00  0.00    +0.000 C 
ATOM     19  C   UNL     1       0.295  10.497  18.598  0.00  0.00    +0.000 C 
ENDBRANCH   1  17
BRANCH   8  20
ATOM     20  C   UNL     1      -6.206  12.629  21.660  0.00  0.00    +0.000 A 
ATOM     21  C   UNL     1      -7.481  12.607  22.236  0.00  0.00    +0.000 A 
ATOM     22  C   UNL     1      -7.653  13.085  23.528  0.00  0.00    +0.000 A 
ATOM     23  N   UNL     1      -6.652  13.577  24.287  0.00  0.00    +0.000 NA
ATOM     24  C   UNL     1      -5.425  13.585  23.733  0.00  0.00    +0.000 A 
ATOM     25  C   UNL     1      -5.158  13.130  22.451  0.00  0.00    +0.000 A 
ENDBRANCH   8  20
TORSDOF 2
ENDMDL
MODEL 2
REMARK VINA RESULT:      -6.9      1.739      2.264
REMARK  Name = 
REMARK  4 active torsions:
REMARK  status: ('A' for Active; 'I' for Inactive)
REMARK    1  A    between atoms: C_1  and  C_2
REMARK    2  A    between atoms: C_7  and  N_8
REMARK    3  A    between atoms: C_9  and  C_10
REMARK    4  A    between atoms: C_15  and  C_16
REMARK                            x       y       z     vdW  Elec       q    Type
REMARK                         _______ _______ _______ _____ _____    ______ ____
ROOT
ATOM      1  N   UNL     1      -3.517  11.535  18.346  0.00  0.00    +0.000 N 
ATOM      2  C   UNL     1      -3.623  11.273  16.989  0.00  0.00    +0.000 A 
ATOM      3  C   UNL     1      -2.534  10.788  16.100  0.00  0.00    +0.000 C 
ATOM      4  N   UNL     1      -4.859  11.474  16.570  0.00  0.00    +0.000 NA
ATOM      5  C   UNL     1      -5.558  11.878  17.672  0.00  0.00    +0.000 A 
ATOM      6  C   UNL     1      -6.913  12.171  17.811  0.00  0.00    +0.000 A 
ATOM      7  C   UNL     1      -7.348  12.567  19.075  0.00  0.00    +0.000 A 
ATOM      8  C   UNL     1      -6.438  12.685  20.137  0.00  0.00    +0.000 A 
ATOM      9  N   UNL     1      -5.115  12.371  20.033  0.00  0.00    +0.000 NA
ATOM     10  C   UNL     1      -4.743  11.973  18.795  0.00  0.00    +0.000 A 
ENDROOT
BRANCH   1  17
ATOM     11  C   UNL     1       1.027   8.828  21.413  0.00  0.00    +0.000 C 
ATOM     12  C   UNL     1       0.374  10.134  21.780  0.00  0.00    +0.000 C 
ATOM     13  O   UNL     1       0.162  10.418  22.961  0.00  0.00    +0.000 OA
ATOM     14  N   UNL     1       0.009  10.961  20.745  0.00  0.00    +0.000 N 
ATOM     15  C   UNL     1       0.210  10.735  19.312  0.00  0.00    +0.000 C 
ATOM     16  C   UNL     1      -0.899  11.526  18.680  0.00  0.00    +0.000 C 
ATOM     17  C   UNL     1      -2.329  11.275  19.131  0.00  0.00    +0.000 C 
ATOM     18  C   UNL     1      -1.487  12.399  19.719  0.00  0.00    +0.000 C 
ATOM     19  C   UNL     1      -0.767  12.166  21.011  0.00  0.00    +0.000 C 
ENDBRANCH   1  17
BRANCH   8  20
ATOM     20  C   UNL     1      -6.873  13.183  21.464  0.00  0.00    +0.000 A 
ATOM     21  C   UNL     1      -6.844  14.549  21.770  0.00  0.00    +0.000 A 
ATOM     22  C   UNL     1      -7.261  14.975  23.024  0.00  0.00    +0.000 A 
ATOM     23  N   UNL     1      -7.707  14.145  23.990  0.00  0.00    +0.000 NA
ATOM     24  C   UNL     1      -7.744  12.834  23.686  0.00  0.00    +0.000 A 
ATOM     25  C   UNL     1      -7.347  12.316  22.463  0.00  0.00    +0.000 A 
ENDBRANCH   8  20
TORSDOF 2
ENDMDL
MODEL 3
REMARK VINA RESULT:      -6.9      7.397     10.522
REMARK  Name = 
REMARK  4 active torsions:
REMARK  status: ('A' for Active; 'I' for Inactive)
REMARK    1  A    between atoms: C_1  and  C_2
REMARK    2  A    between atoms: C_7  and  N_8
REMARK    3  A    between atoms: C_9  and  C_10
REMARK    4  A    between atoms: C_15  and  C_16
REMARK                            x       y       z     vdW  Elec       q    Type
REMARK                         _______ _______ _______ _____ _____    ______ ____
ROOT
ATOM      1  N   UNL     1       3.571   3.739  18.010  0.00  0.00    +0.000 N 
ATOM      2  C   UNL     1       3.507   2.533  18.690  0.00  0.00    +0.000 A 
ATOM      3  C   UNL     1       4.040   1.227  18.215  0.00  0.00    +0.000 C 
ATOM      4  N   UNL     1       2.932   2.690  19.868  0.00  0.00    +0.000 NA
ATOM      5  C   UNL     1       2.614   4.016  19.945  0.00  0.00    +0.000 A 
ATOM      6  C   UNL     1       2.040   4.736  20.991  0.00  0.00    +0.000 A 
ATOM      7  C   UNL     1       1.827   6.097  20.780  0.00  0.00    +0.000 A 
ATOM      8  C   UNL     1       2.158   6.688  19.550  0.00  0.00    +0.000 A 
ATOM      9  N   UNL     1       2.751   6.011  18.526  0.00  0.00    +0.000 NA
ATOM     10  C   UNL     1       2.956   4.699  18.783  0.00  0.00    +0.000 A 
ENDROOT
BRANCH   1  17
ATOM     11  C   UNL     1       4.963   4.255  12.079  0.00  0.00    +0.000 C 
ATOM     12  C   UNL     1       5.851   3.666  13.143  0.00  0.00    +0.000 C 
ATOM     13  O   UNL     1       6.546   2.677  12.902  0.00  0.00    +0.000 OA
ATOM     14  N   UNL     1       5.821   4.263  14.380  0.00  0.00    +0.000 N 
ATOM     15  C   UNL     1       5.044   5.437  14.783  0.00  0.00    +0.000 C 
ATOM     16  C   UNL     1       4.859   5.237  16.261  0.00  0.00    +0.000 C 
ATOM     17  C   UNL     1       4.267   3.927  16.755  0.00  0.00    +0.000 C 
ATOM     18  C   UNL     1       5.771   4.155  16.692  0.00  0.00    +0.000 C 
ATOM     19  C   UNL     1       6.530   3.659  15.502  0.00  0.00    +0.000 C 
ENDBRANCH   1  17
BRANCH   8  20
ATOM     20  C   UNL     1       1.861   8.115  19.283  0.00  0.00    +0.000 A 
ATOM     21  C   UNL     1       2.243   8.723  18.082  0.00  0.00    +0.000 A 
ATOM     22  C   UNL     1       1.945  10.063  17.870  0.00  0.00    +0.000 A 
ATOM     23  N   UNL     1       1.292  10.837  18.762  0.00  0.00    +0.000 NA
ATOM     24  C   UNL     1       0.917  10.245  19.911  0.00  0.00    +0.000 A 
ATOM     25  C   UNL     1       1.172   8.916  20.211  0.00  0.00    +0.000 A 
ENDBRANCH   8  20
TORSDOF 2
ENDMDL
MODEL 4
REMARK VINA RESULT:      -6.8      5.159      7.647
REMARK  Name = 
REMARK  4 active torsions:
REMARK  status: ('A' for Active; 'I' for Inactive)
REMARK    1  A    between atoms: C_1  and  C_2
REMARK    2  A    between atoms: C_7  and  N_8
REMARK    3  A    between atoms: C_9  and  C_10
REMARK    4  A    between atoms: C_15  and  C_16
REMARK                            x       y       z     vdW  Elec       q    Type
REMARK                         _______ _______ _______ _____ _____    ______ ____
ROOT
ATOM      1  N   UNL     1       0.279  12.617  21.432  0.00  0.00    +0.000 N 
ATOM      2  C   UNL     1      -0.530  12.952  22.506  0.00  0.00    +0.000 A 
ATOM      3  C   UNL     1      -0.883  14.329  22.944  0.00  0.00    +0.000 C 
ATOM      4  N   UNL     1      -1.001  11.868  23.094  0.00  0.00    +0.000 NA
ATOM      5  C   UNL     1      -0.482  10.817  22.391  0.00  0.00    +0.000 A 
ATOM      6  C   UNL     1      -0.694   9.449  22.547  0.00  0.00    +0.000 A 
ATOM      7  C   UNL     1      -0.016   8.601  21.672  0.00  0.00    +0.000 A 
ATOM      8  C   UNL     1       0.858   9.124  20.706  0.00  0.00    +0.000 A 
ATOM      9  N   UNL     1       1.054  10.459  20.514  0.00  0.00    +0.000 NA
ATOM     10  C   UNL     1       0.362  11.243  21.371  0.00  0.00    +0.000 A 
ENDROOT
BRANCH   1  17
ATOM     11  C   UNL     1       3.968  16.515  18.503  0.00  0.00    +0.000 C 
ATOM     12  C   UNL     1       2.479  16.667  18.666  0.00  0.00    +0.000 C 
ATOM     13  O   UNL     1       1.981  17.776  18.871  0.00  0.00    +0.000 OA
ATOM     14  N   UNL     1       1.725  15.520  18.604  0.00  0.00    +0.000 N 
ATOM     15  C   UNL     1       2.199  14.155  18.365  0.00  0.00    +0.000 C 
ATOM     16  C   UNL     1       1.162  13.306  19.042  0.00  0.00    +0.000 C 
ATOM     17  C   UNL     1       0.830  13.578  20.501  0.00  0.00    +0.000 C 
ATOM     18  C   UNL     1       0.005  14.170  19.367  0.00  0.00    +0.000 C 
ATOM     19  C   UNL     1       0.299  15.564  18.908  0.00  0.00    +0.000 C 
ENDBRANCH   1  17
BRANCH   8  20
ATOM     20  C   UNL     1       1.646   8.230  19.825  0.00  0.00    +0.000 A 
ATOM     21  C   UNL     1       2.044   8.638  18.547  0.00  0.00    +0.000 A 
ATOM     22  C   UNL     1       2.783   7.771  17.753  0.00  0.00    +0.000 A 
ATOM     23  N   UNL     1       3.159   6.534  18.140  0.00  0.00    +0.000 NA
ATOM     24  C   UNL     1       2.784   6.150  19.375  0.00  0.00    +0.000 A 
ATOM     25  C   UNL     1       2.044   6.946  20.236  0.00  0.00    +0.000 A 
ENDBRANCH   8  20
TORSDOF 2
ENDMDL
MODEL 5
REMARK VINA RESULT:      -6.8      5.826      8.954
REMARK  Name = 
REMARK  4 active torsions:
REMARK  status: ('A' for Active; 'I' for Inactive)
REMARK    1  A    between atoms: C_1  and  C_2
REMARK    2  A    between atoms: C_7  and  N_8
REMARK    3  A    between atoms: C_9  and  C_10
REMARK    4  A    between atoms: C_15  and  C_16
REMARK                            x       y       z     vdW  Elec       q    Type
REMARK                         _______ _______ _______ _____ _____    ______ ____
ROOT
ATOM      1  N   UNL     1       2.996   5.859  19.159  0.00  0.00    +0.000 N 
ATOM      2  C   UNL     1       2.663   4.778  19.961  0.00  0.00    +0.000 A 
ATOM      3  C   UNL     1       3.221   3.403  19.858  0.00  0.00    +0.000 C 
ATOM      4  N   UNL     1       1.791   5.133  20.887  0.00  0.00    +0.000 NA
ATOM      5  C   UNL     1       1.552   6.461  20.673  0.00  0.00    +0.000 A 
ATOM      6  C   UNL     1       0.756   7.351  21.391  0.00  0.00    +0.000 A 
ATOM      7  C   UNL     1       0.702   8.665  20.930  0.00  0.00    +0.000 A 
ATOM      8  C   UNL     1       1.404   9.045  19.775  0.00  0.00    +0.000 A 
ATOM      9  N   UNL     1       2.216   8.201  19.077  0.00  0.00    +0.000 NA
ATOM     10  C   UNL     1       2.253   6.943  19.572  0.00  0.00    +0.000 A 
ENDROOT
BRANCH   1  17
ATOM     11  C   UNL     1       6.371   4.512  14.242  0.00  0.00    +0.000 C 
ATOM     12  C   UNL     1       6.903   4.919  15.590  0.00  0.00    +0.000 C 
ATOM     13  O   UNL     1       7.919   4.391  16.047  0.00  0.00    +0.000 OA
ATOM     14  N   UNL     1       6.193   5.872  16.279  0.00  0.00    +0.000 N 
ATOM     15  C   UNL     1       4.982   6.570  15.841  0.00  0.00    +0.000 C 
ATOM     16  C   UNL     1       4.304   6.929  17.132  0.00  0.00    +0.000 C 
ATOM     17  C   UNL     1       4.029   5.829  18.146  0.00  0.00    +0.000 C 
ATOM     18  C   UNL     1       5.270   6.708  18.231  0.00  0.00    +0.000 C 
ATOM     19  C   UNL     1       6.555   6.205  17.652  0.00  0.00    +0.000 C 
ENDBRANCH   1  17
BRANCH   8  20
ATOM     20  C   UNL     1       1.289  10.418  19.227  0.00  0.00    +0.000 A 
ATOM     21  C   UNL     1       0.217  11.248  19.572  0.00  0.00    +0.000 A 
ATOM     22  C   UNL     1       0.147  12.528  19.038  0.00  0.00    +0.000 A 
ATOM     23  N   UNL     1       1.066  13.041  18.194  0.00  0.00    +0.000 NA
ATOM     24  C   UNL     1       2.101  12.243  17.874  0.00  0.00    +0.000 A 
ATOM     25  C   UNL     1       2.254  10.952  18.356  0.00  0.00    +0.000 A 
ENDBRANCH   8  20
TORSDOF 2
ENDMDL
MODEL 6
REMARK VINA RESULT:      -6.7      5.577     10.110
REMARK  Name = 
REMARK  4 active torsions:
REMARK  status: ('A' for Active; 'I' for Inactive)
REMARK    1  A    between atoms: C_1  and  C_2
REMARK    2  A    between atoms: C_7  and  N_8
REMARK    3  A    between atoms: C_9  and  C_10
REMARK    4  A    between atoms: C_15  and  C_16
REMARK                            x       y       z     vdW  Elec       q    Type
REMARK                         _______ _______ _______ _____ _____    ______ ____
ROOT
ATOM      1  N   UNL     1       1.686   8.111  20.008  0.00  0.00    +0.000 N 
ATOM      2  C   UNL     1       0.840   7.626  20.993  0.00  0.00    +0.000 A 
ATOM      3  C   UNL     1      -0.154   8.419  21.765  0.00  0.00    +0.000 C 
ATOM      4  N   UNL     1       0.996   6.324  21.144  0.00  0.00    +0.000 NA
ATOM      5  C   UNL     1       1.964   5.966  20.248  0.00  0.00    +0.000 A 
ATOM      6  C   UNL     1       2.478   4.706  19.948  0.00  0.00    +0.000 A 
ATOM      7  C   UNL     1       3.476   4.646  18.976  0.00  0.00    +0.000 A 
ATOM      8  C   UNL     1       3.944   5.818  18.362  0.00  0.00    +0.000 A 
ATOM      9  N   UNL     1       3.432   7.056  18.615  0.00  0.00    +0.000 NA
ATOM     10  C   UNL     1       2.454   7.063  19.549  0.00  0.00    +0.000 A 
ENDROOT
BRANCH   1  17
ATOM     11  C   UNL     1       2.988  13.963  18.805  0.00  0.00    +0.000 C 
ATOM     12  C   UNL     1       1.608  13.386  18.977  0.00  0.00    +0.000 C 
ATOM     13  O   UNL     1       0.731  14.024  19.564  0.00  0.00    +0.000 OA
ATOM     14  N   UNL     1       1.394  12.123  18.480  0.00  0.00    +0.000 N 
ATOM     15  C   UNL     1       2.350  11.273  17.767  0.00  0.00    +0.000 C 
ATOM     16  C   UNL     1       1.861   9.884  18.060  0.00  0.00    +0.000 C 
ATOM     17  C   UNL     1       1.656   9.469  19.509  0.00  0.00    +0.000 C 
ATOM     18  C   UNL     1       0.510   9.990  18.652  0.00  0.00    +0.000 C 
ATOM     19  C   UNL     1       0.135  11.436  18.745  0.00  0.00    +0.000 C 
ENDBRANCH   1  17
BRANCH   8  20
ATOM     20  C   UNL     1       5.060   5.777  17.387  0.00  0.00    +0.000 A 
ATOM     21  C   UNL     1       6.289   6.386  17.667  0.00  0.00    +0.000 A 
ATOM     22  C   UNL     1       7.310   6.323  16.727  0.00  0.00    +0.000 A 
ATOM     23  N   UNL     1       7.199   5.696  15.537  0.00  0.00    +0.000 NA
ATOM     24  C   UNL     1       6.019   5.102  15.279  0.00  0.00    +0.000 A 
ATOM     25  C   UNL     1       4.944   5.114  16.153  0.00  0.00    +0.000 A 
ENDBRANCH   8  20
TORSDOF 2
ENDMDL
MODEL 7
REMARK VINA RESULT:      -6.6      5.326      9.262
REMARK  Name = 
REMARK  4 active torsions:
REMARK  status: ('A' for Active; 'I' for Inactive)
REMARK    1  A    between atoms: C_1  and  C_2
REMARK    2  A    between atoms: C_7  and  N_8
REMARK    3  A    between atoms: C_9  and  C_10
REMARK    4  A    between atoms: C_15  and  C_16
REMARK                            x       y       z     vdW  Elec       q    Type
REMARK                         _______ _______ _______ _____ _____    ______ ____
ROOT
ATOM      1  N   UNL     1       1.192   9.225  20.465  0.00  0.00    +0.000 N 
ATOM      2  C   UNL     1       0.433   9.029  21.609  0.00  0.00    +0.000 A 
ATOM      3  C   UNL     1      -0.281  10.081  22.381  0.00  0.00    +0.000 C 
ATOM      4  N   UNL     1       0.383   7.747  21.923  0.00  0.00    +0.000 NA
ATOM      5  C   UNL     1       1.127   7.109  20.971  0.00  0.00    +0.000 A 
ATOM      6  C   UNL     1       1.365   5.748  20.790  0.00  0.00    +0.000 A 
ATOM      7  C   UNL     1       2.179   5.385  19.717  0.00  0.00    +0.000 A 
ATOM      8  C   UNL     1       2.744   6.367  18.888  0.00  0.00    +0.000 A 
ATOM      9  N   UNL     1       2.497   7.701  19.025  0.00  0.00    +0.000 NA
ATOM     10  C   UNL     1       1.689   8.004  20.066  0.00  0.00    +0.000 A 
ENDROOT
BRANCH   1  17
ATOM     11  C   UNL     1       3.071  14.748  18.637  0.00  0.00    +0.000 C 
ATOM     12  C   UNL     1       1.639  14.291  18.726  0.00  0.00    +0.000 C 
ATOM     13  O   UNL     1       0.759  15.061  19.116  0.00  0.00    +0.000 OA
ATOM     14  N   UNL     1       1.379  12.986  18.384  0.00  0.00    +0.000 N 
ATOM     15  C   UNL     1       2.334  11.984  17.907  0.00  0.00    +0.000 C 
ATOM     16  C   UNL     1       1.709  10.685  18.328  0.00  0.00    +0.000 C 
ATOM     17  C   UNL     1       1.321  10.496  19.786  0.00  0.00    +0.000 C 
ATOM     18  C   UNL     1       0.316  10.960  18.742  0.00  0.00    +0.000 C 
ATOM     19  C   UNL     1       0.049  12.426  18.593  0.00  0.00    +0.000 C 
ENDBRANCH   1  17
BRANCH   8  20
ATOM     20  C   UNL     1       3.676   6.000  17.795  0.00  0.00    +0.000 A 
ATOM     21  C   UNL     1       4.401   6.976  17.103  0.00  0.00    +0.000 A 
ATOM     22  C   UNL     1       5.265   6.591  16.086  0.00  0.00    +0.000 A 
ATOM     23  N   UNL     1       5.462   5.309  15.713  0.00  0.00    +0.000 NA
ATOM     24  C   UNL     1       4.770   4.373  16.389  0.00  0.00    +0.000 A 
ATOM     25  C   UNL     1       3.885   4.663  17.416  0.00  0.00    +0.000 A 
ENDBRANCH   8  20
TORSDOF 2
ENDMDL
MODEL 8
REMARK VINA RESULT:      -6.3      2.088      2.616
REMARK  Name = 
REMARK  4 active torsions:
REMARK  status: ('A' for Active; 'I' for Inactive)
REMARK    1  A    between atoms: C_1  and  C_2
REMARK    2  A    between atoms: C_7  and  N_8
REMARK    3  A    between atoms: C_9  and  C_10
REMARK    4  A    between atoms: C_15  and  C_16
REMARK                            x       y       z     vdW  Elec       q    Type
REMARK                         _______ _______ _______ _____ _____    ______ ____
ROOT
ATOM      1  N   UNL     1      -2.612  10.980  18.090  0.00  0.00    +0.000 N 
ATOM      2  C   UNL     1      -3.227  10.711  16.877  0.00  0.00    +0.000 A 
ATOM      3  C   UNL     1      -2.651   9.922  15.755  0.00  0.00    +0.000 C 
ATOM      4  N   UNL     1      -4.445  11.220  16.847  0.00  0.00    +0.000 NA
ATOM      5  C   UNL     1      -4.614  11.834  18.056  0.00  0.00    +0.000 A 
ATOM      6  C   UNL     1      -5.732  12.483  18.577  0.00  0.00    +0.000 A 
ATOM      7  C   UNL     1      -5.608  13.024  19.856  0.00  0.00    +0.000 A 
ATOM      8  C   UNL     1      -4.395  12.930  20.556  0.00  0.00    +0.000 A 
ATOM      9  N   UNL     1      -3.301  12.270  20.080  0.00  0.00    +0.000 NA
ATOM     10  C   UNL     1      -3.473  11.746  18.845  0.00  0.00    +0.000 A 
ENDROOT
BRANCH   1  17
ATOM     11  C   UNL     1       2.648   7.870  18.291  0.00  0.00    +0.000 C 
ATOM     12  C   UNL     1       1.778   8.206  19.473  0.00  0.00    +0.000 C 
ATOM     13  O   UNL     1       1.621   7.392  20.386  0.00  0.00    +0.000 OA
ATOM     14  N   UNL     1       1.160   9.433  19.464  0.00  0.00    +0.000 N 
ATOM     15  C   UNL     1       1.271  10.478  18.445  0.00  0.00    +0.000 C 
ATOM     16  C   UNL     1      -0.028  11.220  18.569  0.00  0.00    +0.000 C 
ATOM     17  C   UNL     1      -1.330  10.439  18.486  0.00  0.00    +0.000 C 
ATOM     18  C   UNL     1      -0.685  10.786  19.821  0.00  0.00    +0.000 C 
ATOM     19  C   UNL     1       0.182   9.767  20.493  0.00  0.00    +0.000 C 
ENDBRANCH   1  17
BRANCH   8  20
ATOM     20  C   UNL     1      -4.226  13.571  21.882  0.00  0.00    +0.000 A 
ATOM     21  C   UNL     1      -4.776  14.829  22.153  0.00  0.00    +0.000 A 
ATOM     22  C   UNL     1      -4.596  15.395  23.409  0.00  0.00    +0.000 A 
ATOM     23  N   UNL     1      -3.915  14.800  24.411  0.00  0.00    +0.000 NA
ATOM     24  C   UNL     1      -3.398  13.585  24.148  0.00  0.00    +0.000 A 
ATOM     25  C   UNL     1      -3.525  12.943  22.926  0.00  0.00    +0.000 A 
ENDBRANCH   8  20
TORSDOF 2
ENDMDL
MODEL 9
REMARK VINA RESULT:      -6.3      1.899      2.440
REMARK  Name = 
REMARK  4 active torsions:
REMARK  status: ('A' for Active; 'I' for Inactive)
REMARK    1  A    between atoms: C_1  and  C_2
REMARK    2  A    between atoms: C_7  and  N_8
REMARK    3  A    between atoms: C_9  and  C_10
REMARK    4  A    between atoms: C_15  and  C_16
REMARK                            x       y       z     vdW  Elec       q    Type
REMARK                         _______ _______ _______ _____ _____    ______ ____
ROOT
ATOM      1  N   UNL     1      -2.863  10.978  17.946  0.00  0.00    +0.000 N 
ATOM      2  C   UNL     1      -3.323  10.646  16.681  0.00  0.00    +0.000 A 
ATOM      3  C   UNL     1      -2.599   9.831  15.669  0.00  0.00    +0.000 C 
ATOM      4  N   UNL     1      -4.540  11.120  16.486  0.00  0.00    +0.000 NA
ATOM      5  C   UNL     1      -4.866  11.774  17.641  0.00  0.00    +0.000 A 
ATOM      6  C   UNL     1      -6.052  12.412  17.999  0.00  0.00    +0.000 A 
ATOM      7  C   UNL     1      -6.095  13.004  19.261  0.00  0.00    +0.000 A 
ATOM      8  C   UNL     1      -4.972  12.970  20.103  0.00  0.00    +0.000 A 
ATOM      9  N   UNL     1      -3.814  12.323  19.787  0.00  0.00    +0.000 NA
ATOM     10  C   UNL     1      -3.825  11.747  18.563  0.00  0.00    +0.000 A 
ENDROOT
BRANCH   1  17
ATOM     11  C   UNL     1       2.209   7.764  19.099  0.00  0.00    +0.000 C 
ATOM     12  C   UNL     1       1.324   8.411  20.131  0.00  0.00    +0.000 C 
ATOM     13  O   UNL     1       1.094   7.845  21.202  0.00  0.00    +0.000 OA
ATOM     14  N   UNL     1       0.775   9.628  19.806  0.00  0.00    +0.000 N 
ATOM     15  C   UNL     1       0.974  10.395  18.575  0.00  0.00    +0.000 C 
ATOM     16  C   UNL     1      -0.286  11.205  18.465  0.00  0.00    +0.000 C 
ATOM     17  C   UNL     1      -1.626  10.488  18.514  0.00  0.00    +0.000 C 
ATOM     18  C   UNL     1      -1.003  11.111  19.755  0.00  0.00    +0.000 C 
ATOM     19  C   UNL     1      -0.215  10.242  20.685  0.00  0.00    +0.000 C 
ENDBRANCH   1  17
BRANCH   8  20
ATOM     20  C   UNL     1      -4.977  13.665  21.412  0.00  0.00    +0.000 A 
ATOM     21  C   UNL     1      -4.881  12.952  22.612  0.00  0.00    +0.000 A 
ATOM     22  C   UNL     1      -4.888  13.641  23.817  0.00  0.00    +0.000 A 
ATOM     23  N   UNL     1      -4.978  14.984  23.914  0.00  0.00    +0.000 NA
ATOM     24  C   UNL     1      -5.058  15.666  22.757  0.00  0.00    +0.000 A 
ATOM     25  C   UNL     1      -5.060  15.065  21.508  0.00  0.00    +0.000 A 
ENDBRANCH   8  20
TORSDOF 2
ENDMDL
