MODEL 1
REMARK VINA RESULT:      -6.0      0.000      0.000
REMARK  Name = 
REMARK  8 active torsions:
REMARK  status: ('A' for Active; 'I' for Inactive)
REMARK    1  A    between atoms: C_1  and  C_2
REMARK    2  A    between atoms: C_2  and  N_3
REMARK    3  A    between atoms: N_3  and  C_4
REMARK    4  A    between atoms: N_3  and  C_6
REMARK    5  A    between atoms: C_4  and  C_5
REMARK    6  A    between atoms: C_6  and  C_7
REMARK    7  A    between atoms: N_9  and  C_10
REMARK    8  A    between atoms: C_13  and  N_14
REMARK                            x       y       z     vdW  Elec       q    Type
REMARK                         _______ _______ _______ _____ _____    ______ ____
ROOT
ATOM      1  C   UNL     1       3.983   4.632  18.477  0.00  0.00    +0.000 C 
ATOM      2  O   UNL     1       3.784   5.825  18.251  0.00  0.00    +0.000 OA
ATOM      3  N   UNL     1       4.660   3.753  17.645  0.00  0.00    +0.000 N 
ATOM      4  H   UNL     1       4.594   2.771  17.896  0.00  0.00    +0.000 HD
ENDROOT
BRANCH   3   5
ATOM      5  C   UNL     1       5.411   4.120  16.506  0.00  0.00    +0.000 A 
ATOM      6  C   UNL     1       4.922   3.962  15.205  0.00  0.00    +0.000 A 
ATOM      7  C   UNL     1       5.691   4.302  14.091  0.00  0.00    +0.000 A 
ATOM      8  C   UNL     1       6.975   4.817  14.280  0.00  0.00    +0.000 A 
ATOM      9  C   UNL     1       7.474   5.016  15.573  0.00  0.00    +0.000 A 
ATOM     10  C   UNL     1       6.681   4.679  16.682  0.00  0.00    +0.000 A 
BRANCH   8  11
ATOM     11  N   UNL     1       7.792   5.149  13.107  0.00  0.00    +0.000 N 
ATOM     12  O   UNL     1       7.466   4.665  12.016  0.00  0.00    +0.000 OA
ATOM     13  O   UNL     1       8.765   5.901  13.282  0.00  0.00    +0.000 OA
ENDBRANCH   8  11
ENDBRANCH   3   5
BRANCH   1  14
ATOM     14  C   UNL     1       3.391   4.004  19.740  0.00  0.00    +0.000 C 
BRANCH  14  15
ATOM     15  N   UNL     1       1.906   4.035  19.790  0.00  0.00    +0.000 NA
BRANCH  15  17
ATOM     16  C   UNL     1       0.686   2.130  18.683  0.00  0.00    +0.000 C 
ATOM     17  C   UNL     1       1.329   3.507  18.535  0.00  0.00    +0.000 C 
ENDBRANCH  15  17
BRANCH  15  18
ATOM     18  C   UNL     1       1.440   3.300  20.989  0.00  0.00    +0.000 C 
ATOM     19  C   UNL     1       2.500   2.548  21.795  0.00  0.00    +0.000 C 
ENDBRANCH  15  18
ENDBRANCH  14  15
ENDBRANCH   1  14
TORSDOF 6
ENDMDL
MODEL 2
REMARK VINA RESULT:      -5.9      1.579      1.970
REMARK  Name = 
REMARK  8 active torsions:
REMARK  status: ('A' for Active; 'I' for Inactive)
REMARK    1  A    between atoms: C_1  and  C_2
REMARK    2  A    between atoms: C_2  and  N_3
REMARK    3  A    between atoms: N_3  and  C_4
REMARK    4  A    between atoms: N_3  and  C_6
REMARK    5  A    between atoms: C_4  and  C_5
REMARK    6  A    between atoms: C_6  and  C_7
REMARK    7  A    between atoms: N_9  and  C_10
REMARK    8  A    between atoms: C_13  and  N_14
REMARK                            x       y       z     vdW  Elec       q    Type
REMARK                         _______ _______ _______ _____ _____    ______ ____
ROOT
ATOM      1  C   UNL     1       4.265   4.013  19.360  0.00  0.00    +0.000 C 
ATOM      2  O   UNL     1       5.278   3.341  19.554  0.00  0.00    +0.000 OA
ATOM      3  N   UNL     1       4.022   4.805  18.248  0.00  0.00    +0.000 N 
ATOM      4  H   UNL     1       3.218   5.424  18.317  0.00  0.00    +0.000 HD
ENDROOT
BRANCH   3   5
ATOM      5  C   UNL     1       4.793   4.813  17.065  0.00  0.00    +0.000 A 
ATOM      6  C   UNL     1       5.121   3.640  16.377  0.00  0.00    +0.000 A 
ATOM      7  C   UNL     1       5.909   3.666  15.226  0.00  0.00    +0.000 A 
ATOM      8  C   UNL     1       6.376   4.891  14.746  0.00  0.00    +0.000 A 
ATOM      9  C   UNL     1       6.032   6.082  15.397  0.00  0.00    +0.000 A 
ATOM     10  C   UNL     1       5.228   6.038  16.547  0.00  0.00    +0.000 A 
BRANCH   8  11
ATOM     11  N   UNL     1       7.226   4.914  13.551  0.00  0.00    +0.000 N 
ATOM     12  O   UNL     1       8.145   5.741  13.507  0.00  0.00    +0.000 OA
ATOM     13  O   UNL     1       6.971   4.095  12.652  0.00  0.00    +0.000 OA
ENDBRANCH   8  11
ENDBRANCH   3   5
BRANCH   1  14
ATOM     14  C   UNL     1       3.185   4.064  20.443  0.00  0.00    +0.000 C 
BRANCH  14  15
ATOM     15  N   UNL     1       1.864   4.535  19.955  0.00  0.00    +0.000 NA
BRANCH  15  17
ATOM     16  C   UNL     1       0.830   2.516  18.862  0.00  0.00    +0.000 C 
ATOM     17  C   UNL     1       0.853   3.461  20.060  0.00  0.00    +0.000 C 
ENDBRANCH  15  17
BRANCH  15  18
ATOM     18  C   UNL     1       1.477   5.760  20.693  0.00  0.00    +0.000 C 
ATOM     19  C   UNL     1       2.048   7.084  20.183  0.00  0.00    +0.000 C 
ENDBRANCH  15  18
ENDBRANCH  14  15
ENDBRANCH   1  14
TORSDOF 6
ENDMDL
MODEL 3
REMARK VINA RESULT:      -5.9      1.132      1.705
REMARK  Name = 
REMARK  8 active torsions:
REMARK  status: ('A' for Active; 'I' for Inactive)
REMARK    1  A    between atoms: C_1  and  C_2
REMARK    2  A    between atoms: C_2  and  N_3
REMARK    3  A    between atoms: N_3  and  C_4
REMARK    4  A    between atoms: N_3  and  C_6
REMARK    5  A    between atoms: C_4  and  C_5
REMARK    6  A    between atoms: C_6  and  C_7
REMARK    7  A    between atoms: N_9  and  C_10
REMARK    8  A    between atoms: C_13  and  N_14
REMARK                            x       y       z     vdW  Elec       q    Type
REMARK                         _______ _______ _______ _____ _____    ______ ____
ROOT
ATOM      1  C   UNL     1       3.649   3.731  18.067  0.00  0.00    +0.000 C 
ATOM      2  O   UNL     1       2.838   3.659  17.143  0.00  0.00    +0.000 OA
ATOM      3  N   UNL     1       5.018   3.899  17.928  0.00  0.00    +0.000 N 
ATOM      4  H   UNL     1       5.564   3.770  18.776  0.00  0.00    +0.000 HD
ENDROOT
BRANCH   3   5
ATOM      5  C   UNL     1       5.685   4.223  16.726  0.00  0.00    +0.000 A 
ATOM      6  C   UNL     1       5.407   3.575  15.518  0.00  0.00    +0.000 A 
ATOM      7  C   UNL     1       6.098   3.890  14.347  0.00  0.00    +0.000 A 
ATOM      8  C   UNL     1       7.085   4.877  14.381  0.00  0.00    +0.000 A 
ATOM      9  C   UNL     1       7.358   5.563  15.570  0.00  0.00    +0.000 A 
ATOM     10  C   UNL     1       6.644   5.241  16.736  0.00  0.00    +0.000 A 
BRANCH   8  11
ATOM     11  N   UNL     1       7.828   5.186  13.155  0.00  0.00    +0.000 N 
ATOM     12  O   UNL     1       7.480   4.627  12.107  0.00  0.00    +0.000 OA
ATOM     13  O   UNL     1       8.767   5.996  13.244  0.00  0.00    +0.000 OA
ENDBRANCH   8  11
ENDBRANCH   3   5
BRANCH   1  14
ATOM     14  C   UNL     1       3.158   3.554  19.505  0.00  0.00    +0.000 C 
BRANCH  14  15
ATOM     15  N   UNL     1       1.844   4.191  19.777  0.00  0.00    +0.000 NA
BRANCH  15  17
ATOM     16  C   UNL     1       1.697   2.594  21.719  0.00  0.00    +0.000 C 
ATOM     17  C   UNL     1       0.977   3.289  20.566  0.00  0.00    +0.000 C 
ENDBRANCH  15  17
BRANCH  15  18
ATOM     18  C   UNL     1       2.060   5.500  20.437  0.00  0.00    +0.000 C 
ATOM     19  C   UNL     1       2.528   6.654  19.548  0.00  0.00    +0.000 C 
ENDBRANCH  15  18
ENDBRANCH  14  15
ENDBRANCH   1  14
TORSDOF 6
ENDMDL
MODEL 4
REMARK VINA RESULT:      -5.9      1.529      2.310
REMARK  Name = 
REMARK  8 active torsions:
REMARK  status: ('A' for Active; 'I' for Inactive)
REMARK    1  A    between atoms: C_1  and  C_2
REMARK    2  A    between atoms: C_2  and  N_3
REMARK    3  A    between atoms: N_3  and  C_4
REMARK    4  A    between atoms: N_3  and  C_6
REMARK    5  A    between atoms: C_4  and  C_5
REMARK    6  A    between atoms: C_6  and  C_7
REMARK    7  A    between atoms: N_9  and  C_10
REMARK    8  A    between atoms: C_13  and  N_14
REMARK                            x       y       z     vdW  Elec       q    Type
REMARK                         _______ _______ _______ _____ _____    ______ ____
ROOT
ATOM      1  C   UNL     1       4.314   4.101  19.408  0.00  0.00    +0.000 C 
ATOM      2  O   UNL     1       5.076   3.137  19.480  0.00  0.00    +0.000 OA
ATOM      3  N   UNL     1       4.347   5.085  18.431  0.00  0.00    +0.000 N 
ATOM      4  H   UNL     1       3.763   5.898  18.607  0.00  0.00    +0.000 HD
ENDROOT
BRANCH   3   5
ATOM      5  C   UNL     1       5.117   5.038  17.247  0.00  0.00    +0.000 A 
ATOM      6  C   UNL     1       6.290   5.783  17.087  0.00  0.00    +0.000 A 
ATOM      7  C   UNL     1       7.020   5.745  15.898  0.00  0.00    +0.000 A 
ATOM      8  C   UNL     1       6.572   4.942  14.847  0.00  0.00    +0.000 A 
ATOM      9  C   UNL     1       5.420   4.161  14.996  0.00  0.00    +0.000 A 
ATOM     10  C   UNL     1       4.704   4.203  16.204  0.00  0.00    +0.000 A 
BRANCH   8  11
ATOM     11  N   UNL     1       7.326   4.925  13.589  0.00  0.00    +0.000 N 
ATOM     12  O   UNL     1       8.298   5.684  13.484  0.00  0.00    +0.000 OA
ATOM     13  O   UNL     1       6.942   4.144  12.702  0.00  0.00    +0.000 OA
ENDBRANCH   8  11
ENDBRANCH   3   5
BRANCH   1  14
ATOM     14  C   UNL     1       3.271   4.311  20.507  0.00  0.00    +0.000 C 
BRANCH  14  15
ATOM     15  N   UNL     1       1.908   4.608  19.996  0.00  0.00    +0.000 NA
BRANCH  15  17
ATOM     16  C   UNL     1       1.290   2.687  21.503  0.00  0.00    +0.000 C 
ATOM     17  C   UNL     1       1.004   3.458  20.217  0.00  0.00    +0.000 C 
ENDBRANCH  15  17
BRANCH  15  18
ATOM     18  C   UNL     1       1.410   5.856  20.619  0.00  0.00    +0.000 C 
ATOM     19  C   UNL     1       2.083   7.160  20.187  0.00  0.00    +0.000 C 
ENDBRANCH  15  18
ENDBRANCH  14  15
ENDBRANCH   1  14
TORSDOF 6
ENDMDL
MODEL 5
REMARK VINA RESULT:      -5.9      1.602      2.370
REMARK  Name = 
REMARK  8 active torsions:
REMARK  status: ('A' for Active; 'I' for Inactive)
REMARK    1  A    between atoms: C_1  and  C_2
REMARK    2  A    between atoms: C_2  and  N_3
REMARK    3  A    between atoms: N_3  and  C_4
REMARK    4  A    between atoms: N_3  and  C_6
REMARK    5  A    between atoms: C_4  and  C_5
REMARK    6  A    between atoms: C_6  and  C_7
REMARK    7  A    between atoms: N_9  and  C_10
REMARK    8  A    between atoms: C_13  and  N_14
REMARK                            x       y       z     vdW  Elec       q    Type
REMARK                         _______ _______ _______ _____ _____    ______ ____
ROOT
ATOM      1  C   UNL     1       4.322   2.752  19.806  0.00  0.00    +0.000 C 
ATOM      2  O   UNL     1       4.982   1.750  19.531  0.00  0.00    +0.000 OA
ATOM      3  N   UNL     1       4.377   3.965  19.136  0.00  0.00    +0.000 N 
ATOM      4  H   UNL     1       3.897   4.738  19.588  0.00  0.00    +0.000 HD
ENDROOT
BRANCH   3   5
ATOM      5  C   UNL     1       5.038   4.192  17.909  0.00  0.00    +0.000 A 
ATOM      6  C   UNL     1       4.439   3.919  16.674  0.00  0.00    +0.000 A 
ATOM      7  C   UNL     1       5.120   4.122  15.473  0.00  0.00    +0.000 A 
ATOM      8  C   UNL     1       6.426   4.615  15.504  0.00  0.00    +0.000 A 
ATOM      9  C   UNL     1       7.035   4.929  16.725  0.00  0.00    +0.000 A 
ATOM     10  C   UNL     1       6.330   4.729  17.923  0.00  0.00    +0.000 A 
BRANCH   8  11
ATOM     11  N   UNL     1       7.149   4.803  14.241  0.00  0.00    +0.000 N 
ATOM     12  O   UNL     1       8.118   5.572  14.235  0.00  0.00    +0.000 OA
ATOM     13  O   UNL     1       6.742   4.174  13.250  0.00  0.00    +0.000 OA
ENDBRANCH   8  11
ENDBRANCH   3   5
BRANCH   1  14
ATOM     14  C   UNL     1       3.399   2.725  21.026  0.00  0.00    +0.000 C 
BRANCH  14  15
ATOM     15  N   UNL     1       1.980   2.431  20.702  0.00  0.00    +0.000 NA
BRANCH  15  17
ATOM     16  C   UNL     1       1.896   4.915  21.108  0.00  0.00    +0.000 C 
ATOM     17  C   UNL     1       1.124   3.603  20.985  0.00  0.00    +0.000 C 
ENDBRANCH  15  17
BRANCH  15  18
ATOM     18  C   UNL     1       1.881   1.975  19.296  0.00  0.00    +0.000 C 
ATOM     19  C   UNL     1       0.973   2.786  18.369  0.00  0.00    +0.000 C 
ENDBRANCH  15  18
ENDBRANCH  14  15
ENDBRANCH   1  14
TORSDOF 6
ENDMDL
MODEL 6
REMARK VINA RESULT:      -5.9      0.465      1.491
REMARK  Name = 
REMARK  8 active torsions:
REMARK  status: ('A' for Active; 'I' for Inactive)
REMARK    1  A    between atoms: C_1  and  C_2
REMARK    2  A    between atoms: C_2  and  N_3
REMARK    3  A    between atoms: N_3  and  C_4
REMARK    4  A    between atoms: N_3  and  C_6
REMARK    5  A    between atoms: C_4  and  C_5
REMARK    6  A    between atoms: C_6  and  C_7
REMARK    7  A    between atoms: N_9  and  C_10
REMARK    8  A    between atoms: C_13  and  N_14
REMARK                            x       y       z     vdW  Elec       q    Type
REMARK                         _______ _______ _______ _____ _____    ______ ____
ROOT
ATOM      1  C   UNL     1       4.207   4.826  18.583  0.00  0.00    +0.000 C 
ATOM      2  O   UNL     1       4.076   6.024  18.331  0.00  0.00    +0.000 OA
ATOM      3  N   UNL     1       4.831   3.892  17.770  0.00  0.00    +0.000 N 
ATOM      4  H   UNL     1       4.709   2.921  18.042  0.00  0.00    +0.000 HD
ENDROOT
BRANCH   3   5
ATOM      5  C   UNL     1       5.600   4.191  16.623  0.00  0.00    +0.000 A 
ATOM      6  C   UNL     1       6.906   4.685  16.705  0.00  0.00    +0.000 A 
ATOM      7  C   UNL     1       7.638   5.002  15.560  0.00  0.00    +0.000 A 
ATOM      8  C   UNL     1       7.057   4.816  14.304  0.00  0.00    +0.000 A 
ATOM      9  C   UNL     1       5.764   4.291  14.195  0.00  0.00    +0.000 A 
ATOM     10  C   UNL     1       5.046   3.966  15.358  0.00  0.00    +0.000 A 
BRANCH   8  11
ATOM     11  N   UNL     1       7.819   5.175  13.104  0.00  0.00    +0.000 N 
ATOM     12  O   UNL     1       8.755   5.976  13.227  0.00  0.00    +0.000 OA
ATOM     13  O   UNL     1       7.477   4.650  12.031  0.00  0.00    +0.000 OA
ENDBRANCH   8  11
ENDBRANCH   3   5
BRANCH   1  14
ATOM     14  C   UNL     1       3.581   4.260  19.859  0.00  0.00    +0.000 C 
BRANCH  14  15
ATOM     15  N   UNL     1       2.096   4.272  19.860  0.00  0.00    +0.000 NA
BRANCH  15  17
ATOM     16  C   UNL     1       1.159   4.127  17.526  0.00  0.00    +0.000 C 
ATOM     17  C   UNL     1       1.565   3.388  18.798  0.00  0.00    +0.000 C 
ENDBRANCH  15  17
BRANCH  15  18
ATOM     18  C   UNL     1       1.602   3.907  21.208  0.00  0.00    +0.000 C 
ATOM     19  C   UNL     1       2.020   2.539  21.750  0.00  0.00    +0.000 C 
ENDBRANCH  15  18
ENDBRANCH  14  15
ENDBRANCH   1  14
TORSDOF 6
ENDMDL
MODEL 7
REMARK VINA RESULT:      -5.8      1.293      2.268
REMARK  Name = 
REMARK  8 active torsions:
REMARK  status: ('A' for Active; 'I' for Inactive)
REMARK    1  A    between atoms: C_1  and  C_2
REMARK    2  A    between atoms: C_2  and  N_3
REMARK    3  A    between atoms: N_3  and  C_4
REMARK    4  A    between atoms: N_3  and  C_6
REMARK    5  A    between atoms: C_4  and  C_5
REMARK    6  A    between atoms: C_6  and  C_7
REMARK    7  A    between atoms: N_9  and  C_10
REMARK    8  A    between atoms: C_13  and  N_14
REMARK                            x       y       z     vdW  Elec       q    Type
REMARK                         _______ _______ _______ _____ _____    ______ ____
ROOT
ATOM      1  C   UNL     1       4.104   3.189  18.427  0.00  0.00    +0.000 C 
ATOM      2  O   UNL     1       4.007   2.147  17.778  0.00  0.00    +0.000 OA
ATOM      3  N   UNL     1       4.921   4.264  18.112  0.00  0.00    +0.000 N 
ATOM      4  H   UNL     1       5.011   4.974  18.834  0.00  0.00    +0.000 HD
ENDROOT
BRANCH   3   5
ATOM      5  C   UNL     1       5.616   4.434  16.894  0.00  0.00    +0.000 A 
ATOM      6  C   UNL     1       6.994   4.675  16.846  0.00  0.00    +0.000 A 
ATOM      7  C   UNL     1       7.657   4.869  15.634  0.00  0.00    +0.000 A 
ATOM      8  C   UNL     1       6.932   4.817  14.442  0.00  0.00    +0.000 A 
ATOM      9  C   UNL     1       5.559   4.544  14.462  0.00  0.00    +0.000 A 
ATOM     10  C   UNL     1       4.910   4.338  15.691  0.00  0.00    +0.000 A 
BRANCH   8  11
ATOM     11  N   UNL     1       7.627   5.048  13.172  0.00  0.00    +0.000 N 
ATOM     12  O   UNL     1       8.521   5.904  13.146  0.00  0.00    +0.000 OA
ATOM     13  O   UNL     1       7.274   4.367  12.194  0.00  0.00    +0.000 OA
ENDBRANCH   8  11
ENDBRANCH   3   5
BRANCH   1  14
ATOM     14  C   UNL     1       3.328   3.325  19.739  0.00  0.00    +0.000 C 
BRANCH  14  15
ATOM     15  N   UNL     1       1.920   3.765  19.564  0.00  0.00    +0.000 NA
BRANCH  15  17
ATOM     16  C   UNL     1       1.607   2.607  21.779  0.00  0.00    +0.000 C 
ATOM     17  C   UNL     1       1.204   3.756  20.858  0.00  0.00    +0.000 C 
ENDBRANCH  15  17
BRANCH  15  18
ATOM     18  C   UNL     1       1.898   5.092  18.907  0.00  0.00    +0.000 C 
ATOM     19  C   UNL     1       2.373   6.284  19.740  0.00  0.00    +0.000 C 
ENDBRANCH  15  18
ENDBRANCH  14  15
ENDBRANCH   1  14
TORSDOF 6
ENDMDL
MODEL 8
REMARK VINA RESULT:      -5.8      1.398      1.929
REMARK  Name = 
REMARK  8 active torsions:
REMARK  status: ('A' for Active; 'I' for Inactive)
REMARK    1  A    between atoms: C_1  and  C_2
REMARK    2  A    between atoms: C_2  and  N_3
REMARK    3  A    between atoms: N_3  and  C_4
REMARK    4  A    between atoms: N_3  and  C_6
REMARK    5  A    between atoms: C_4  and  C_5
REMARK    6  A    between atoms: C_6  and  C_7
REMARK    7  A    between atoms: N_9  and  C_10
REMARK    8  A    between atoms: C_13  and  N_14
REMARK                            x       y       z     vdW  Elec       q    Type
REMARK                         _______ _______ _______ _____ _____    ______ ____
ROOT
ATOM      1  C   UNL     1       4.111   4.939  19.272  0.00  0.00    +0.000 C 
ATOM      2  O   UNL     1       5.189   5.370  19.682  0.00  0.00    +0.000 OA
ATOM      3  N   UNL     1       3.768   4.757  17.941  0.00  0.00    +0.000 N 
ATOM      4  H   UNL     1       2.787   4.554  17.764  0.00  0.00    +0.000 HD
ENDROOT
BRANCH   3   5
ATOM      5  C   UNL     1       4.659   4.836  16.848  0.00  0.00    +0.000 A 
ATOM      6  C   UNL     1       4.979   6.049  16.229  0.00  0.00    +0.000 A 
ATOM      7  C   UNL     1       5.839   6.102  15.131  0.00  0.00    +0.000 A 
ATOM      8  C   UNL     1       6.396   4.919  14.642  0.00  0.00    +0.000 A 
ATOM      9  C   UNL     1       6.117   3.696  15.265  0.00  0.00    +0.000 A 
ATOM     10  C   UNL     1       5.259   3.664  16.377  0.00  0.00    +0.000 A 
BRANCH   8  11
ATOM     11  N   UNL     1       7.278   4.974  13.471  0.00  0.00    +0.000 N 
ATOM     12  O   UNL     1       8.233   5.760  13.500  0.00  0.00    +0.000 OA
ATOM     13  O   UNL     1       7.010   4.224  12.518  0.00  0.00    +0.000 OA
ENDBRANCH   8  11
ENDBRANCH   3   5
BRANCH   1  14
ATOM     14  C   UNL     1       3.001   4.630  20.278  0.00  0.00    +0.000 C 
BRANCH  14  15
ATOM     15  N   UNL     1       2.978   3.218  20.737  0.00  0.00    +0.000 NA
BRANCH  15  17
ATOM     16  C   UNL     1       0.628   3.547  19.891  0.00  0.00    +0.000 C 
ATOM     17  C   UNL     1       1.608   2.664  20.660  0.00  0.00    +0.000 C 
ENDBRANCH  15  17
BRANCH  15  18
ATOM     18  C   UNL     1       3.958   2.431  19.953  0.00  0.00    +0.000 C 
ATOM     19  C   UNL     1       3.396   1.518  18.861  0.00  0.00    +0.000 C 
ENDBRANCH  15  18
ENDBRANCH  14  15
ENDBRANCH   1  14
TORSDOF 6
ENDMDL
MODEL 9
REMARK VINA RESULT:      -5.8      1.231      1.935
REMARK  Name = 
REMARK  8 active torsions:
REMARK  status: ('A' for Active; 'I' for Inactive)
REMARK    1  A    between atoms: C_1  and  C_2
REMARK    2  A    between atoms: C_2  and  N_3
REMARK    3  A    between atoms: N_3  and  C_4
REMARK    4  A    between atoms: N_3  and  C_6
REMARK    5  A    between atoms: C_4  and  C_5
REMARK    6  A    between atoms: C_6  and  C_7
REMARK    7  A    between atoms: N_9  and  C_10
REMARK    8  A    between atoms: C_13  and  N_14
REMARK                            x       y       z     vdW  Elec       q    Type
REMARK                         _______ _______ _______ _____ _____    ______ ____
ROOT
ATOM      1  C   UNL     1       3.817   5.023  18.351  0.00  0.00    +0.000 C 
ATOM      2  O   UNL     1       3.484   6.102  17.862  0.00  0.00    +0.000 OA
ATOM      3  N   UNL     1       4.676   4.103  17.770  0.00  0.00    +0.000 N 
ATOM      4  H   UNL     1       4.717   3.193  18.221  0.00  0.00    +0.000 HD
ENDROOT
BRANCH   3   5
ATOM      5  C   UNL     1       5.473   4.336  16.627  0.00  0.00    +0.000 A 
ATOM      6  C   UNL     1       6.765   4.866  16.710  0.00  0.00    +0.000 A 
ATOM      7  C   UNL     1       7.525   5.117  15.566  0.00  0.00    +0.000 A 
ATOM      8  C   UNL     1       6.985   4.827  14.312  0.00  0.00    +0.000 A 
ATOM      9  C   UNL     1       5.708   4.265  14.204  0.00  0.00    +0.000 A 
ATOM     10  C   UNL     1       4.962   4.008  15.366  0.00  0.00    +0.000 A 
BRANCH   8  11
ATOM     11  N   UNL     1       7.775   5.117  13.110  0.00  0.00    +0.000 N 
ATOM     12  O   UNL     1       7.462   4.547  12.057  0.00  0.00    +0.000 OA
ATOM     13  O   UNL     1       8.715   5.923  13.223  0.00  0.00    +0.000 OA
ENDBRANCH   8  11
ENDBRANCH   3   5
BRANCH   1  14
ATOM     14  C   UNL     1       3.200   4.585  19.681  0.00  0.00    +0.000 C 
BRANCH  14  15
ATOM     15  N   UNL     1       1.785   5.001  19.855  0.00  0.00    +0.000 NA
BRANCH  15  17
ATOM     16  C   UNL     1       1.702   2.575  20.525  0.00  0.00    +0.000 C 
ATOM     17  C   UNL     1       0.926   3.832  20.142  0.00  0.00    +0.000 C 
ENDBRANCH  15  17
BRANCH  15  18
ATOM     18  C   UNL     1       1.705   6.041  20.907  0.00  0.00    +0.000 C 
ATOM     19  C   UNL     1       1.738   7.499  20.442  0.00  0.00    +0.000 C 
ENDBRANCH  15  18
ENDBRANCH  14  15
ENDBRANCH   1  14
TORSDOF 6
ENDMDL
