MODEL 1
REMARK VINA RESULT:      -7.5      0.000      0.000
REMARK  Name = 
REMARK  4 active torsions:
REMARK  status: ('A' for Active; 'I' for Inactive)
REMARK    1  A    between atoms: C_1  and  N_2
REMARK    2  A    between atoms: C_7  and  C_9
REMARK    3  A    between atoms: C_9  and  C_10
REMARK    4  A    between atoms: C_18  and  C_19
REMARK                            x       y       z     vdW  Elec       q    Type
REMARK                         _______ _______ _______ _____ _____    ______ ____
ROOT
ATOM      1  C   UNL     1       4.685   2.116  20.793  0.00  0.00    +0.000 C 
ATOM      2  N   UNL     1       3.399   2.066  20.108  0.00  0.00    +0.000 NA
ATOM      3  C   UNL     1       2.393   2.847  20.793  0.00  0.00    +0.000 C 
ATOM      4  C   UNL     1       2.006   3.918  19.792  0.00  0.00    +0.000 C 
ATOM      5  C   UNL     1       1.838   5.252  20.508  0.00  0.00    +0.000 C 
ATOM      6  N   UNL     1       1.972   6.182  19.433  0.00  0.00    +0.000 N 
ATOM      7  C   UNL     1       2.029   7.540  19.647  0.00  0.00    +0.000 C 
ATOM      8  O   UNL     1       2.006   8.012  20.786  0.00  0.00    +0.000 OA
ATOM      9  C   UNL     1       2.296   5.439  18.229  0.00  0.00    +0.000 C 
ATOM     10  C   UNL     1       3.150   4.164  18.714  0.00  0.00    +0.000 C 
ATOM     11  C   UNL     1       3.438   2.603  18.736  0.00  0.00    +0.000 C 
ENDROOT
BRANCH  10  12
ATOM     12  C   UNL     1       3.436   4.038  17.172  0.00  0.00    +0.000 C 
ATOM     13  O   UNL     1       2.619   3.634  16.343  0.00  0.00    +0.000 OA
ATOM     14  N   UNL     1       4.715   4.444  16.803  0.00  0.00    +0.000 N 
ATOM     15  C   UNL     1       5.186   4.373  15.436  0.00  0.00    +0.000 C 
ATOM     16  C   UNL     1       6.698   4.401  15.583  0.00  0.00    +0.000 C 
ATOM     17  C   UNL     1       6.930   5.289  16.800  0.00  0.00    +0.000 C 
ATOM     18  C   UNL     1       5.687   5.104  17.661  0.00  0.00    +0.000 C 
ENDBRANCH  10  12
BRANCH   7  19
ATOM     19  C   UNL     1       2.096   8.456  18.433  0.00  0.00    +0.000 C 
BRANCH  19  20
ATOM     20  C   UNL     1       1.072   9.570  18.414  0.00  0.00    +0.000 A 
ATOM     21  C   UNL     1       1.426  10.857  18.850  0.00  0.00    +0.000 A 
ATOM     22  C   UNL     1       0.502  11.901  18.818  0.00  0.00    +0.000 A 
ATOM     23  C   UNL     1      -0.788  11.678  18.335  0.00  0.00    +0.000 A 
ATOM     24  C   UNL     1      -1.149  10.406  17.891  0.00  0.00    +0.000 A 
ATOM     25 CL   UNL     1      -2.741  10.127  17.299  0.00  0.00    +0.000 Cl
ATOM     26  C   UNL     1      -0.226   9.359  17.926  0.00  0.00    +0.000 A 
ENDBRANCH  19  20
ENDBRANCH   7  19
TORSDOF 3
ENDMDL
MODEL 2
REMARK VINA RESULT:      -7.4      1.229      1.536
REMARK  Name = 
REMARK  4 active torsions:
REMARK  status: ('A' for Active; 'I' for Inactive)
REMARK    1  A    between atoms: C_1  and  N_2
REMARK    2  A    between atoms: C_7  and  C_9
REMARK    3  A    between atoms: C_9  and  C_10
REMARK    4  A    between atoms: C_18  and  C_19
REMARK                            x       y       z     vdW  Elec       q    Type
REMARK                         _______ _______ _______ _____ _____    ______ ____
ROOT
ATOM      1  C   UNL     1       4.533   2.120  20.891  0.00  0.00    +0.000 C 
ATOM      2  N   UNL     1       3.261   2.086  20.179  0.00  0.00    +0.000 NA
ATOM      3  C   UNL     1       2.260   2.904  20.828  0.00  0.00    +0.000 C 
ATOM      4  C   UNL     1       1.919   3.963  19.797  0.00  0.00    +0.000 C 
ATOM      5  C   UNL     1       1.768   5.315  20.482  0.00  0.00    +0.000 C 
ATOM      6  N   UNL     1       1.947   6.219  19.391  0.00  0.00    +0.000 N 
ATOM      7  C   UNL     1       2.032   7.580  19.579  0.00  0.00    +0.000 C 
ATOM      8  O   UNL     1       1.996   8.076  20.707  0.00  0.00    +0.000 OA
ATOM      9  C   UNL     1       2.277   5.444  18.210  0.00  0.00    +0.000 C 
ATOM     10  C   UNL     1       3.091   4.160  18.739  0.00  0.00    +0.000 C 
ATOM     11  C   UNL     1       3.342   2.593  18.798  0.00  0.00    +0.000 C 
ENDROOT
BRANCH  10  12
ATOM     12  C   UNL     1       3.406   3.995  17.205  0.00  0.00    +0.000 C 
ATOM     13  O   UNL     1       2.608   3.559  16.374  0.00  0.00    +0.000 OA
ATOM     14  N   UNL     1       4.686   4.406  16.848  0.00  0.00    +0.000 N 
ATOM     15  C   UNL     1       5.183   4.303  15.492  0.00  0.00    +0.000 C 
ATOM     16  C   UNL     1       6.691   4.354  15.664  0.00  0.00    +0.000 C 
ATOM     17  C   UNL     1       6.891   5.278  16.860  0.00  0.00    +0.000 C 
ATOM     18  C   UNL     1       5.635   5.102  17.704  0.00  0.00    +0.000 C 
ENDBRANCH  10  12
BRANCH   7  19
ATOM     19  C   UNL     1       2.146   8.469  18.348  0.00  0.00    +0.000 C 
BRANCH  19  20
ATOM     20  C   UNL     1       1.327   9.740  18.399  0.00  0.00    +0.000 A 
ATOM     21  C   UNL     1      -0.073   9.677  18.319  0.00  0.00    +0.000 A 
ATOM     22  C   UNL     1      -0.846  10.837  18.387  0.00  0.00    +0.000 A 
ATOM     23  C   UNL     1      -0.229  12.078  18.552  0.00  0.00    +0.000 A 
ATOM     24  C   UNL     1       1.160  12.152  18.642  0.00  0.00    +0.000 A 
ATOM     25 CL   UNL     1       1.923  13.682  18.842  0.00  0.00    +0.000 Cl
ATOM     26  C   UNL     1       1.934  10.993  18.570  0.00  0.00    +0.000 A 
ENDBRANCH  19  20
ENDBRANCH   7  19
TORSDOF 3
ENDMDL
MODEL 3
REMARK VINA RESULT:      -7.2      2.333      4.211
REMARK  Name = 
REMARK  4 active torsions:
REMARK  status: ('A' for Active; 'I' for Inactive)
REMARK    1  A    between atoms: C_1  and  N_2
REMARK    2  A    between atoms: C_7  and  C_9
REMARK    3  A    between atoms: C_9  and  C_10
REMARK    4  A    between atoms: C_18  and  C_19
REMARK                            x       y       z     vdW  Elec       q    Type
REMARK                         _______ _______ _______ _____ _____    ______ ____
ROOT
ATOM      1  C   UNL     1       5.555   3.976  14.433  0.00  0.00    +0.000 C 
ATOM      2  N   UNL     1       6.320   4.470  15.572  0.00  0.00    +0.000 NA
ATOM      3  C   UNL     1       6.301   5.914  15.646  0.00  0.00    +0.000 C 
ATOM      4  C   UNL     1       5.620   6.211  16.968  0.00  0.00    +0.000 C 
ATOM      5  C   UNL     1       4.665   7.386  16.799  0.00  0.00    +0.000 C 
ATOM      6  N   UNL     1       3.790   7.216  17.914  0.00  0.00    +0.000 N 
ATOM      7  C   UNL     1       2.664   7.990  18.082  0.00  0.00    +0.000 C 
ATOM      8  O   UNL     1       2.340   8.840  17.250  0.00  0.00    +0.000 OA
ATOM      9  C   UNL     1       4.156   5.988  18.594  0.00  0.00    +0.000 C 
ATOM     10  C   UNL     1       4.710   5.000  17.451  0.00  0.00    +0.000 C 
ATOM     11  C   UNL     1       5.808   4.008  16.874  0.00  0.00    +0.000 C 
ENDROOT
BRANCH  10  12
ATOM     12  C   UNL     1       4.584   3.939  18.607  0.00  0.00    +0.000 C 
ATOM     13  O   UNL     1       5.512   3.595  19.341  0.00  0.00    +0.000 OA
ATOM     14  N   UNL     1       3.303   3.416  18.752  0.00  0.00    +0.000 N 
ATOM     15  C   UNL     1       2.987   2.401  19.736  0.00  0.00    +0.000 C 
ATOM     16  C   UNL     1       1.703   1.785  19.206  0.00  0.00    +0.000 C 
ATOM     17  C   UNL     1       0.987   2.953  18.537  0.00  0.00    +0.000 C 
ATOM     18  C   UNL     1       2.104   3.881  18.072  0.00  0.00    +0.000 C 
ENDBRANCH  10  12
BRANCH   7  19
ATOM     19  C   UNL     1       1.834   7.787  19.342  0.00  0.00    +0.000 C 
BRANCH  19  20
ATOM     20  C   UNL     1       1.164   9.034  19.875  0.00  0.00    +0.000 A 
ATOM     21  C   UNL     1       1.068  10.179  19.068  0.00  0.00    +0.000 A 
ATOM     22  C   UNL     1       0.433  11.330  19.534  0.00  0.00    +0.000 A 
ATOM     23  C   UNL     1      -0.130  11.349  20.811  0.00  0.00    +0.000 A 
ATOM     24  C   UNL     1      -0.049  10.216  21.618  0.00  0.00    +0.000 A 
ATOM     25 CL   UNL     1      -0.739  10.238  23.195  0.00  0.00    +0.000 Cl
ATOM     26  C   UNL     1       0.589   9.064  21.154  0.00  0.00    +0.000 A 
ENDBRANCH  19  20
ENDBRANCH   7  19
TORSDOF 3
ENDMDL
MODEL 4
REMARK VINA RESULT:      -7.2      2.183      3.970
REMARK  Name = 
REMARK  4 active torsions:
REMARK  status: ('A' for Active; 'I' for Inactive)
REMARK    1  A    between atoms: C_1  and  N_2
REMARK    2  A    between atoms: C_7  and  C_9
REMARK    3  A    between atoms: C_9  and  C_10
REMARK    4  A    between atoms: C_18  and  C_19
REMARK                            x       y       z     vdW  Elec       q    Type
REMARK                         _______ _______ _______ _____ _____    ______ ____
ROOT
ATOM      1  C   UNL     1       5.411   4.169  15.493  0.00  0.00    +0.000 C 
ATOM      2  N   UNL     1       5.282   4.170  16.946  0.00  0.00    +0.000 NA
ATOM      3  C   UNL     1       5.655   5.445  17.517  0.00  0.00    +0.000 C 
ATOM      4  C   UNL     1       4.386   5.940  18.184  0.00  0.00    +0.000 C 
ATOM      5  C   UNL     1       4.226   7.434  17.933  0.00  0.00    +0.000 C 
ATOM      6  N   UNL     1       2.830   7.623  18.167  0.00  0.00    +0.000 N 
ATOM      7  C   UNL     1       2.205   8.823  17.912  0.00  0.00    +0.000 C 
ATOM      8  O   UNL     1       2.819   9.778  17.432  0.00  0.00    +0.000 OA
ATOM      9  C   UNL     1       2.234   6.326  18.422  0.00  0.00    +0.000 C 
ATOM     10  C   UNL     1       3.087   5.270  17.557  0.00  0.00    +0.000 C 
ATOM     11  C   UNL     1       3.909   3.919  17.418  0.00  0.00    +0.000 C 
ENDROOT
BRANCH  10  12
ATOM     12  C   UNL     1       1.889   4.320  17.931  0.00  0.00    +0.000 C 
ATOM     13  O   UNL     1       0.950   4.054  17.178  0.00  0.00    +0.000 OA
ATOM     14  N   UNL     1       1.981   3.775  19.207  0.00  0.00    +0.000 N 
ATOM     15  C   UNL     1       0.963   2.903  19.754  0.00  0.00    +0.000 C 
ATOM     16  C   UNL     1       1.195   2.986  21.252  0.00  0.00    +0.000 C 
ATOM     17  C   UNL     1       2.705   3.156  21.379  0.00  0.00    +0.000 C 
ATOM     18  C   UNL     1       3.126   3.871  20.101  0.00  0.00    +0.000 C 
ENDBRANCH  10  12
BRANCH   7  19
ATOM     19  C   UNL     1       0.729   8.952  18.264  0.00  0.00    +0.000 C 
BRANCH  19  20
ATOM     20  C   UNL     1       0.429   9.849  19.445  0.00  0.00    +0.000 A 
ATOM     21  C   UNL     1       0.189  11.217  19.245  0.00  0.00    +0.000 A 
ATOM     22  C   UNL     1      -0.112  12.055  20.318  0.00  0.00    +0.000 A 
ATOM     23  C   UNL     1      -0.194  11.532  21.610  0.00  0.00    +0.000 A 
ATOM     24  C   UNL     1       0.033  10.173  21.820  0.00  0.00    +0.000 A 
ATOM     25 CL   UNL     1      -0.062   9.527  23.413  0.00  0.00    +0.000 Cl
ATOM     26  C   UNL     1       0.339   9.334  20.747  0.00  0.00    +0.000 A 
ENDBRANCH  19  20
ENDBRANCH   7  19
TORSDOF 3
ENDMDL
MODEL 5
REMARK VINA RESULT:      -7.2      3.418      7.110
REMARK  Name = 
REMARK  4 active torsions:
REMARK  status: ('A' for Active; 'I' for Inactive)
REMARK    1  A    between atoms: C_1  and  N_2
REMARK    2  A    between atoms: C_7  and  C_9
REMARK    3  A    between atoms: C_9  and  C_10
REMARK    4  A    between atoms: C_18  and  C_19
REMARK                            x       y       z     vdW  Elec       q    Type
REMARK                         _______ _______ _______ _____ _____    ______ ____
ROOT
ATOM      1  C   UNL     1       2.075   7.597  20.707  0.00  0.00    +0.000 C 
ATOM      2  N   UNL     1       1.628   7.448  19.327  0.00  0.00    +0.000 NA
ATOM      3  C   UNL     1       2.446   8.211  18.411  0.00  0.00    +0.000 C 
ATOM      4  C   UNL     1       3.065   7.165  17.504  0.00  0.00    +0.000 C 
ATOM      5  C   UNL     1       4.524   7.514  17.240  0.00  0.00    +0.000 C 
ATOM      6  N   UNL     1       5.058   6.256  16.828  0.00  0.00    +0.000 N 
ATOM      7  C   UNL     1       6.405   6.069  16.620  0.00  0.00    +0.000 C 
ATOM      8  O   UNL     1       7.218   6.974  16.820  0.00  0.00    +0.000 OA
ATOM      9  C   UNL     1       4.012   5.258  16.952  0.00  0.00    +0.000 C 
ATOM     10  C   UNL     1       3.096   5.730  18.188  0.00  0.00    +0.000 C 
ATOM     11  C   UNL     1       1.684   6.060  18.834  0.00  0.00    +0.000 C 
ENDROOT
BRANCH  10  12
ATOM     12  C   UNL     1       2.510   4.277  18.031  0.00  0.00    +0.000 C 
ATOM     13  O   UNL     1       2.196   3.766  16.955  0.00  0.00    +0.000 OA
ATOM     14  N   UNL     1       2.385   3.589  19.234  0.00  0.00    +0.000 N 
ATOM     15  C   UNL     1       1.834   2.252  19.309  0.00  0.00    +0.000 C 
ATOM     16  C   UNL     1       1.417   2.124  20.763  0.00  0.00    +0.000 C 
ATOM     17  C   UNL     1       2.457   2.947  21.515  0.00  0.00    +0.000 C 
ATOM     18  C   UNL     1       2.894   4.022  20.527  0.00  0.00    +0.000 C 
ENDBRANCH  10  12
BRANCH   7  19
ATOM     19  C   UNL     1       6.872   4.713  16.108  0.00  0.00    +0.000 C 
BRANCH  19  20
ATOM     20  C   UNL     1       6.936   4.585  14.602  0.00  0.00    +0.000 A 
ATOM     21  C   UNL     1       7.805   5.404  13.864  0.00  0.00    +0.000 A 
ATOM     22  C   UNL     1       7.895   5.285  12.478  0.00  0.00    +0.000 A 
ATOM     23  C   UNL     1       7.127   4.331  11.808  0.00  0.00    +0.000 A 
ATOM     24  C   UNL     1       6.267   3.505  12.530  0.00  0.00    +0.000 A 
ATOM     25 CL   UNL     1       5.316   2.332  11.706  0.00  0.00    +0.000 Cl
ATOM     26  C   UNL     1       6.173   3.626  13.918  0.00  0.00    +0.000 A 
ENDBRANCH  19  20
ENDBRANCH   7  19
TORSDOF 3
ENDMDL
MODEL 6
REMARK VINA RESULT:      -7.1      2.070      4.043
REMARK  Name = 
REMARK  4 active torsions:
REMARK  status: ('A' for Active; 'I' for Inactive)
REMARK    1  A    between atoms: C_1  and  N_2
REMARK    2  A    between atoms: C_7  and  C_9
REMARK    3  A    between atoms: C_9  and  C_10
REMARK    4  A    between atoms: C_18  and  C_19
REMARK                            x       y       z     vdW  Elec       q    Type
REMARK                         _______ _______ _______ _____ _____    ______ ____
ROOT
ATOM      1  C   UNL     1       5.518   4.039  14.493  0.00  0.00    +0.000 C 
ATOM      2  N   UNL     1       6.278   4.542  15.633  0.00  0.00    +0.000 NA
ATOM      3  C   UNL     1       6.251   5.986  15.702  0.00  0.00    +0.000 C 
ATOM      4  C   UNL     1       5.565   6.283  17.021  0.00  0.00    +0.000 C 
ATOM      5  C   UNL     1       4.603   7.452  16.847  0.00  0.00    +0.000 C 
ATOM      6  N   UNL     1       3.728   7.281  17.961  0.00  0.00    +0.000 N 
ATOM      7  C   UNL     1       2.597   8.048  18.123  0.00  0.00    +0.000 C 
ATOM      8  O   UNL     1       2.269   8.894  17.288  0.00  0.00    +0.000 OA
ATOM      9  C   UNL     1       4.099   6.056  18.645  0.00  0.00    +0.000 C 
ATOM     10  C   UNL     1       4.661   5.068  17.507  0.00  0.00    +0.000 C 
ATOM     11  C   UNL     1       5.765   4.081  16.935  0.00  0.00    +0.000 C 
ENDROOT
BRANCH  10  12
ATOM     12  C   UNL     1       4.538   4.010  18.666  0.00  0.00    +0.000 C 
ATOM     13  O   UNL     1       5.460   3.695  19.421  0.00  0.00    +0.000 OA
ATOM     14  N   UNL     1       3.269   3.453  18.786  0.00  0.00    +0.000 N 
ATOM     15  C   UNL     1       2.959   2.436  19.769  0.00  0.00    +0.000 C 
ATOM     16  C   UNL     1       1.703   1.783  19.216  0.00  0.00    +0.000 C 
ATOM     17  C   UNL     1       0.972   2.928  18.525  0.00  0.00    +0.000 C 
ATOM     18  C   UNL     1       2.072   3.883  18.078  0.00  0.00    +0.000 C 
ENDBRANCH  10  12
BRANCH   7  19
ATOM     19  C   UNL     1       1.765   7.844  19.383  0.00  0.00    +0.000 C 
BRANCH  19  20
ATOM     20  C   UNL     1       1.034   9.075  19.873  0.00  0.00    +0.000 A 
ATOM     21  C   UNL     1       0.984   9.362  21.246  0.00  0.00    +0.000 A 
ATOM     22  C   UNL     1       0.335  10.504  21.714  0.00  0.00    +0.000 A 
ATOM     23  C   UNL     1      -0.263  11.387  20.812  0.00  0.00    +0.000 A 
ATOM     24  C   UNL     1      -0.212  11.117  19.446  0.00  0.00    +0.000 A 
ATOM     25 CL   UNL     1      -0.953  12.201  18.333  0.00  0.00    +0.000 Cl
ATOM     26  C   UNL     1       0.434   9.972  18.976  0.00  0.00    +0.000 A 
ENDBRANCH  19  20
ENDBRANCH   7  19
TORSDOF 3
ENDMDL
MODEL 7
REMARK VINA RESULT:      -7.1      7.520      9.617
REMARK  Name = 
REMARK  4 active torsions:
REMARK  status: ('A' for Active; 'I' for Inactive)
REMARK    1  A    between atoms: C_1  and  N_2
REMARK    2  A    between atoms: C_7  and  C_9
REMARK    3  A    between atoms: C_9  and  C_10
REMARK    4  A    between atoms: C_18  and  C_19
REMARK                            x       y       z     vdW  Elec       q    Type
REMARK                         _______ _______ _______ _____ _____    ______ ____
ROOT
ATOM      1  C   UNL     1      -7.105   8.717  19.904  0.00  0.00    +0.000 C 
ATOM      2  N   UNL     1      -7.577  10.056  19.568  0.00  0.00    +0.000 NA
ATOM      3  C   UNL     1      -7.550  10.939  20.713  0.00  0.00    +0.000 C 
ATOM      4  C   UNL     1      -6.572  12.029  20.320  0.00  0.00    +0.000 C 
ATOM      5  C   UNL     1      -5.693  12.383  21.513  0.00  0.00    +0.000 C 
ATOM      6  N   UNL     1      -4.575  13.005  20.879  0.00  0.00    +0.000 N 
ATOM      7  C   UNL     1      -3.447  13.364  21.581  0.00  0.00    +0.000 C 
ATOM      8  O   UNL     1      -3.337  13.126  22.786  0.00  0.00    +0.000 OA
ATOM      9  C   UNL     1      -4.759  12.913  19.443  0.00  0.00    +0.000 C 
ATOM     10  C   UNL     1      -5.565  11.544  19.189  0.00  0.00    +0.000 C 
ATOM     11  C   UNL     1      -6.763  10.729  18.540  0.00  0.00    +0.000 C 
ENDROOT
BRANCH  10  12
ATOM     12  C   UNL     1      -5.158  11.832  17.695  0.00  0.00    +0.000 C 
ATOM     13  O   UNL     1      -5.778  12.578  16.937  0.00  0.00    +0.000 OA
ATOM     14  N   UNL     1      -4.002  11.172  17.292  0.00  0.00    +0.000 N 
ATOM     15  C   UNL     1      -3.479  11.278  15.945  0.00  0.00    +0.000 C 
ATOM     16  C   UNL     1      -2.587  10.055  15.817  0.00  0.00    +0.000 C 
ATOM     17  C   UNL     1      -2.025   9.864  17.221  0.00  0.00    +0.000 C 
ATOM     18  C   UNL     1      -3.097  10.423  18.149  0.00  0.00    +0.000 C 
ENDBRANCH  10  12
BRANCH   7  19
ATOM     19  C   UNL     1      -2.337  14.090  20.834  0.00  0.00    +0.000 C 
BRANCH  19  20
ATOM     20  C   UNL     1      -1.294  13.191  20.206  0.00  0.00    +0.000 A 
ATOM     21  C   UNL     1      -0.683  13.562  18.997  0.00  0.00    +0.000 A 
ATOM     22  C   UNL     1       0.296  12.757  18.416  0.00  0.00    +0.000 A 
ATOM     23  C   UNL     1       0.692  11.575  19.043  0.00  0.00    +0.000 A 
ATOM     24  C   UNL     1       0.100  11.201  20.248  0.00  0.00    +0.000 A 
ATOM     25 CL   UNL     1       0.583   9.741  21.021  0.00  0.00    +0.000 Cl
ATOM     26  C   UNL     1      -0.884  12.003  20.829  0.00  0.00    +0.000 A 
ENDBRANCH  19  20
ENDBRANCH   7  19
TORSDOF 3
ENDMDL
MODEL 8
REMARK VINA RESULT:      -6.9      2.100      2.463
REMARK  Name = 
REMARK  4 active torsions:
REMARK  status: ('A' for Active; 'I' for Inactive)
REMARK    1  A    between atoms: C_1  and  N_2
REMARK    2  A    between atoms: C_7  and  C_9
REMARK    3  A    between atoms: C_9  and  C_10
REMARK    4  A    between atoms: C_18  and  C_19
REMARK                            x       y       z     vdW  Elec       q    Type
REMARK                         _______ _______ _______ _____ _____    ______ ____
ROOT
ATOM      1  C   UNL     1       4.167   1.105  18.831  0.00  0.00    +0.000 C 
ATOM      2  N   UNL     1       3.465   1.765  17.737  0.00  0.00    +0.000 NA
ATOM      3  C   UNL     1       2.133   2.176  18.123  0.00  0.00    +0.000 C 
ATOM      4  C   UNL     1       2.155   3.686  17.987  0.00  0.00    +0.000 C 
ATOM      5  C   UNL     1       1.410   4.316  19.158  0.00  0.00    +0.000 C 
ATOM      6  N   UNL     1       1.929   5.646  19.154  0.00  0.00    +0.000 N 
ATOM      7  C   UNL     1       1.632   6.547  20.151  0.00  0.00    +0.000 C 
ATOM      8  O   UNL     1       0.933   6.229  21.116  0.00  0.00    +0.000 OA
ATOM      9  C   UNL     1       2.958   5.728  18.135  0.00  0.00    +0.000 C 
ATOM     10  C   UNL     1       3.632   4.268  18.070  0.00  0.00    +0.000 C 
ATOM     11  C   UNL     1       4.128   2.993  17.264  0.00  0.00    +0.000 C 
ENDROOT
BRANCH  10  12
ATOM     12  C   UNL     1       4.704   5.036  17.209  0.00  0.00    +0.000 C 
ATOM     13  O   UNL     1       4.563   5.326  16.020  0.00  0.00    +0.000 OA
ATOM     14  N   UNL     1       5.848   5.385  17.919  0.00  0.00    +0.000 N 
ATOM     15  C   UNL     1       6.967   6.065  17.300  0.00  0.00    +0.000 C 
ATOM     16  C   UNL     1       8.121   5.775  18.244  0.00  0.00    +0.000 C 
ATOM     17  C   UNL     1       7.465   5.728  19.619  0.00  0.00    +0.000 C 
ATOM     18  C   UNL     1       6.040   5.258  19.356  0.00  0.00    +0.000 C 
ENDBRANCH  10  12
BRANCH   7  19
ATOM     19  C   UNL     1       2.170   7.965  20.022  0.00  0.00    +0.000 C 
BRANCH  19  20
ATOM     20  C   UNL     1       1.132   9.058  20.150  0.00  0.00    +0.000 A 
ATOM     21  C   UNL     1       0.623   9.682  19.001  0.00  0.00    +0.000 A 
ATOM     22  C   UNL     1      -0.352  10.675  19.098  0.00  0.00    +0.000 A 
ATOM     23  C   UNL     1      -0.844  11.049  20.349  0.00  0.00    +0.000 A 
ATOM     24  C   UNL     1      -0.353  10.431  21.498  0.00  0.00    +0.000 A 
ATOM     25 CL   UNL     1      -0.955  10.894  23.042  0.00  0.00    +0.000 Cl
ATOM     26  C   UNL     1       0.625   9.439  21.402  0.00  0.00    +0.000 A 
ENDBRANCH  19  20
ENDBRANCH   7  19
TORSDOF 3
ENDMDL
MODEL 9
REMARK VINA RESULT:      -6.9      6.349      9.534
REMARK  Name = 
REMARK  4 active torsions:
REMARK  status: ('A' for Active; 'I' for Inactive)
REMARK    1  A    between atoms: C_1  and  N_2
REMARK    2  A    between atoms: C_7  and  C_9
REMARK    3  A    between atoms: C_9  and  C_10
REMARK    4  A    between atoms: C_18  and  C_19
REMARK                            x       y       z     vdW  Elec       q    Type
REMARK                         _______ _______ _______ _____ _____    ______ ____
ROOT
ATOM      1  C   UNL     1       0.635   9.772  22.407  0.00  0.00    +0.000 C 
ATOM      2  N   UNL     1       1.030  10.729  21.380  0.00  0.00    +0.000 NA
ATOM      3  C   UNL     1       0.892  10.179  20.050  0.00  0.00    +0.000 C 
ATOM      4  C   UNL     1      -0.138  11.070  19.383  0.00  0.00    +0.000 C 
ATOM      5  C   UNL     1      -1.092  10.218  18.555  0.00  0.00    +0.000 C 
ATOM      6  N   UNL     1      -2.220  11.083  18.424  0.00  0.00    +0.000 N 
ATOM      7  C   UNL     1      -3.401  10.661  17.856  0.00  0.00    +0.000 C 
ATOM      8  O   UNL     1      -3.548   9.499  17.471  0.00  0.00    +0.000 OA
ATOM      9  C   UNL     1      -1.966  12.281  19.203  0.00  0.00    +0.000 C 
ATOM     10  C   UNL     1      -1.058  11.813  20.447  0.00  0.00    +0.000 C 
ATOM     11  C   UNL     1       0.220  11.961  21.377  0.00  0.00    +0.000 C 
ENDROOT
BRANCH  10  12
ATOM     12  C   UNL     1      -1.415  13.252  20.974  0.00  0.00    +0.000 C 
ATOM     13  O   UNL     1      -1.035  14.300  20.449  0.00  0.00    +0.000 OA
ATOM     14  N   UNL     1      -2.231  13.251  22.101  0.00  0.00    +0.000 N 
ATOM     15  C   UNL     1      -2.644  14.472  22.760  0.00  0.00    +0.000 C 
ATOM     16  C   UNL     1      -3.038  14.006  24.151  0.00  0.00    +0.000 C 
ATOM     17  C   UNL     1      -3.612  12.612  23.920  0.00  0.00    +0.000 C 
ATOM     18  C   UNL     1      -2.884  12.090  22.687  0.00  0.00    +0.000 C 
ENDBRANCH  10  12
BRANCH   7  19
ATOM     19  C   UNL     1      -4.522  11.678  17.691  0.00  0.00    +0.000 C 
BRANCH  19  20
ATOM     20  C   UNL     1      -5.503  11.741  18.842  0.00  0.00    +0.000 A 
ATOM     21  C   UNL     1      -6.473  10.739  18.994  0.00  0.00    +0.000 A 
ATOM     22  C   UNL     1      -7.370  10.769  20.061  0.00  0.00    +0.000 A 
ATOM     23  C   UNL     1      -7.300  11.796  21.004  0.00  0.00    +0.000 A 
ATOM     24  C   UNL     1      -6.335  12.792  20.868  0.00  0.00    +0.000 A 
ATOM     25 CL   UNL     1      -6.250  14.063  22.027  0.00  0.00    +0.000 Cl
ATOM     26  C   UNL     1      -5.439  12.766  19.798  0.00  0.00    +0.000 A 
ENDBRANCH  19  20
ENDBRANCH   7  19
TORSDOF 3
ENDMDL
