MODEL 1
REMARK VINA RESULT:      -7.9      0.000      0.000
REMARK  Name = 
REMARK  9 active torsions:
REMARK  status: ('A' for Active; 'I' for Inactive)
REMARK    1  A    between atoms: C_1  and  O_2
REMARK    2  A    between atoms: O_2  and  C_3
REMARK    3  A    between atoms: C_6  and  C_7
REMARK    4  A    between atoms: C_8  and  C_9
REMARK    5  A    between atoms: C_9  and  O_11
REMARK    6  A    between atoms: O_11  and  N_12
REMARK    7  A    between atoms: C_13  and  C_15
REMARK    8  A    between atoms: C_22  and  O_23
REMARK    9  A    between atoms: O_23  and  C_24
REMARK                            x       y       z     vdW  Elec       q    Type
REMARK                         _______ _______ _______ _____ _____    ______ ____
ROOT
ATOM      1  C   UNL     1       7.662   7.123  17.768  0.00  0.00    +0.000 C 
ATOM      2  O   UNL     1       7.167   7.233  16.653  0.00  0.00    +0.000 OA
ENDROOT
BRANCH   1   4
ATOM      3  C   UNL     1       8.334   9.457  17.999  0.00  0.00    +0.000 C 
ATOM      4  C   UNL     1       8.329   8.216  18.507  0.00  0.00    +0.000 C 
BRANCH   3   8
ATOM      5  C   UNL     1      10.619  12.636  19.757  0.00  0.00    +0.000 A 
ATOM      6  C   UNL     1      10.156  11.556  20.523  0.00  0.00    +0.000 A 
ATOM      7  C   UNL     1       9.413  10.527  19.939  0.00  0.00    +0.000 A 
ATOM      8  C   UNL     1       9.078  10.577  18.585  0.00  0.00    +0.000 A 
ATOM      9  C   UNL     1       9.493  11.686  17.838  0.00  0.00    +0.000 A 
ATOM     10  C   UNL     1      10.247  12.724  18.408  0.00  0.00    +0.000 A 
BRANCH   5  12
ATOM     11  C   UNL     1      10.697  14.690  20.935  0.00  0.00    +0.000 C 
ATOM     12  O   UNL     1      11.399  13.616  20.309  0.00  0.00    +0.000 OA
ENDBRANCH   5  12
BRANCH  10  13
ATOM     13  O   UNL     1      10.532  13.701  17.492  0.00  0.00    +0.000 OA
ATOM     14  C   UNL     1      11.562  13.482  16.544  0.00  0.00    +0.000 C 
ENDBRANCH  10  13
ENDBRANCH   3   8
ENDBRANCH   1   4
BRANCH   1  15
ATOM     15  O   UNL     1       7.797   5.989  18.514  0.00  0.00    +0.000 OA
BRANCH  15  16
ATOM     16  N   UNL     1       6.515   5.547  18.876  0.00  0.00    +0.000 NA
ATOM     17  C   UNL     1       6.077   4.628  18.070  0.00  0.00    +0.000 C 
ATOM     18  N   UNL     1       6.831   4.029  17.083  0.00  0.00    +0.000 N 
ATOM     19  H   UNL     1       7.821   3.997  17.294  0.00  0.00    +0.000 HD
ATOM     20  H   UNL     1       6.445   3.133  16.784  0.00  0.00    +0.000 HD
BRANCH  17  21
ATOM     21  C   UNL     1       4.648   4.181  18.231  0.00  0.00    +0.000 A 
ATOM     22  C   UNL     1       3.863   3.914  17.114  0.00  0.00    +0.000 A 
ATOM     23  C   UNL     1       2.559   3.479  17.318  0.00  0.00    +0.000 A 
ATOM     24  C   UNL     1       2.094   3.322  18.619  0.00  0.00    +0.000 A 
ATOM     25  C   UNL     1       2.951   3.611  19.672  0.00  0.00    +0.000 A 
ATOM     26  N   UNL     1       4.222   4.043  19.516  0.00  0.00    +0.000 NA
ENDBRANCH  17  21
ENDBRANCH  15  16
ENDBRANCH   1  15
TORSDOF 7
ENDMDL
MODEL 2
REMARK VINA RESULT:      -7.6      1.283      1.590
REMARK  Name = 
REMARK  9 active torsions:
REMARK  status: ('A' for Active; 'I' for Inactive)
REMARK    1  A    between atoms: C_1  and  O_2
REMARK    2  A    between atoms: O_2  and  C_3
REMARK    3  A    between atoms: C_6  and  C_7
REMARK    4  A    between atoms: C_8  and  C_9
REMARK    5  A    between atoms: C_9  and  O_11
REMARK    6  A    between atoms: O_11  and  N_12
REMARK    7  A    between atoms: C_13  and  C_15
REMARK    8  A    between atoms: C_22  and  O_23
REMARK    9  A    between atoms: O_23  and  C_24
REMARK                            x       y       z     vdW  Elec       q    Type
REMARK                         _______ _______ _______ _____ _____    ______ ____
ROOT
ATOM      1  C   UNL     1       7.362   7.254  17.610  0.00  0.00    +0.000 C 
ATOM      2  O   UNL     1       7.779   6.295  18.246  0.00  0.00    +0.000 OA
ENDROOT
BRANCH   1   4
ATOM      3  C   UNL     1       8.778   8.926  18.684  0.00  0.00    +0.000 C 
ATOM      4  C   UNL     1       7.846   8.642  17.763  0.00  0.00    +0.000 C 
BRANCH   3   8
ATOM      5  C   UNL     1      10.208  12.844  19.692  0.00  0.00    +0.000 A 
ATOM      6  C   UNL     1       9.860  11.914  20.683  0.00  0.00    +0.000 A 
ATOM      7  C   UNL     1       9.396  10.641  20.341  0.00  0.00    +0.000 A 
ATOM      8  C   UNL     1       9.226  10.285  19.003  0.00  0.00    +0.000 A 
ATOM      9  C   UNL     1       9.519  11.237  18.019  0.00  0.00    +0.000 A 
ATOM     10  C   UNL     1       9.995  12.517  18.345  0.00  0.00    +0.000 A 
BRANCH   5  12
ATOM     11  C   UNL     1      10.314  14.600  21.277  0.00  0.00    +0.000 C 
ATOM     12  O   UNL     1      10.721  14.071  20.017  0.00  0.00    +0.000 OA
ENDBRANCH   5  12
BRANCH  10  13
ATOM     13  O   UNL     1      10.207  13.276  17.225  0.00  0.00    +0.000 OA
ATOM     14  C   UNL     1      11.492  13.290  16.631  0.00  0.00    +0.000 C 
ENDBRANCH  10  13
ENDBRANCH   3   8
ENDBRANCH   1   4
BRANCH   1  15
ATOM     15  O   UNL     1       6.326   7.281  16.723  0.00  0.00    +0.000 OA
BRANCH  15  16
ATOM     16  N   UNL     1       5.599   6.089  16.863  0.00  0.00    +0.000 NA
ATOM     17  C   UNL     1       4.378   6.312  17.248  0.00  0.00    +0.000 C 
ATOM     18  N   UNL     1       3.805   7.563  17.345  0.00  0.00    +0.000 N 
ATOM     19  H   UNL     1       4.195   8.237  16.699  0.00  0.00    +0.000 HD
ATOM     20  H   UNL     1       2.785   7.528  17.337  0.00  0.00    +0.000 HD
BRANCH  17  21
ATOM     21  C   UNL     1       3.530   5.121  17.605  0.00  0.00    +0.000 A 
ATOM     22  C   UNL     1       3.820   3.865  17.082  0.00  0.00    +0.000 A 
ATOM     23  C   UNL     1       3.021   2.795  17.464  0.00  0.00    +0.000 A 
ATOM     24  C   UNL     1       1.973   3.015  18.352  0.00  0.00    +0.000 A 
ATOM     25  C   UNL     1       1.761   4.303  18.825  0.00  0.00    +0.000 A 
ATOM     26  N   UNL     1       2.510   5.371  18.472  0.00  0.00    +0.000 NA
ENDBRANCH  17  21
ENDBRANCH  15  16
ENDBRANCH   1  15
TORSDOF 7
ENDMDL
MODEL 3
REMARK VINA RESULT:      -7.6      1.092      2.054
REMARK  Name = 
REMARK  9 active torsions:
REMARK  status: ('A' for Active; 'I' for Inactive)
REMARK    1  A    between atoms: C_1  and  O_2
REMARK    2  A    between atoms: O_2  and  C_3
REMARK    3  A    between atoms: C_6  and  C_7
REMARK    4  A    between atoms: C_8  and  C_9
REMARK    5  A    between atoms: C_9  and  O_11
REMARK    6  A    between atoms: O_11  and  N_12
REMARK    7  A    between atoms: C_13  and  C_15
REMARK    8  A    between atoms: C_22  and  O_23
REMARK    9  A    between atoms: O_23  and  C_24
REMARK                            x       y       z     vdW  Elec       q    Type
REMARK                         _______ _______ _______ _____ _____    ______ ____
ROOT
ATOM      1  C   UNL     1       7.691   7.168  17.826  0.00  0.00    +0.000 C 
ATOM      2  O   UNL     1       7.289   7.250  16.673  0.00  0.00    +0.000 OA
ENDROOT
BRANCH   1   4
ATOM      3  C   UNL     1       8.522   9.457  17.985  0.00  0.00    +0.000 C 
ATOM      4  C   UNL     1       8.325   8.271  18.579  0.00  0.00    +0.000 C 
BRANCH   3   8
ATOM      5  C   UNL     1      10.600  12.801  19.691  0.00  0.00    +0.000 A 
ATOM      6  C   UNL     1      10.688  12.504  18.323  0.00  0.00    +0.000 A 
ATOM      7  C   UNL     1      10.006  11.412  17.780  0.00  0.00    +0.000 A 
ATOM      8  C   UNL     1       9.258  10.567  18.599  0.00  0.00    +0.000 A 
ATOM      9  C   UNL     1       9.220  10.834  19.973  0.00  0.00    +0.000 A 
ATOM     10  C   UNL     1       9.892  11.932  20.533  0.00  0.00    +0.000 A 
BRANCH   5  12
ATOM     11  C   UNL     1      12.333  14.402  19.490  0.00  0.00    +0.000 C 
ATOM     12  O   UNL     1      11.214  13.904  20.220  0.00  0.00    +0.000 OA
ENDBRANCH   5  12
BRANCH  10  13
ATOM     13  O   UNL     1       9.717  11.990  21.890  0.00  0.00    +0.000 OA
ATOM     14  C   UNL     1       8.671  12.783  22.420  0.00  0.00    +0.000 C 
ENDBRANCH  10  13
ENDBRANCH   3   8
ENDBRANCH   1   4
BRANCH   1  15
ATOM     15  O   UNL     1       7.738   6.057  18.617  0.00  0.00    +0.000 OA
BRANCH  15  16
ATOM     16  N   UNL     1       6.421   5.691  18.936  0.00  0.00    +0.000 NA
ATOM     17  C   UNL     1       5.972   4.767  18.141  0.00  0.00    +0.000 C 
ATOM     18  N   UNL     1       6.738   4.099  17.208  0.00  0.00    +0.000 N 
ATOM     19  H   UNL     1       7.715   4.027  17.464  0.00  0.00    +0.000 HD
ATOM     20  H   UNL     1       6.321   3.213  16.921  0.00  0.00    +0.000 HD
BRANCH  17  21
ATOM     21  C   UNL     1       4.518   4.395  18.252  0.00  0.00    +0.000 A 
ATOM     22  C   UNL     1       3.532   5.251  17.771  0.00  0.00    +0.000 A 
ATOM     23  C   UNL     1       2.206   4.848  17.875  0.00  0.00    +0.000 A 
ATOM     24  C   UNL     1       1.917   3.613  18.445  0.00  0.00    +0.000 A 
ATOM     25  C   UNL     1       2.968   2.824  18.895  0.00  0.00    +0.000 A 
ATOM     26  N   UNL     1       4.268   3.183  18.820  0.00  0.00    +0.000 NA
ENDBRANCH  17  21
ENDBRANCH  15  16
ENDBRANCH   1  15
TORSDOF 7
ENDMDL
MODEL 4
REMARK VINA RESULT:      -7.5      1.582      2.571
REMARK  Name = 
REMARK  9 active torsions:
REMARK  status: ('A' for Active; 'I' for Inactive)
REMARK    1  A    between atoms: C_1  and  O_2
REMARK    2  A    between atoms: O_2  and  C_3
REMARK    3  A    between atoms: C_6  and  C_7
REMARK    4  A    between atoms: C_8  and  C_9
REMARK    5  A    between atoms: C_9  and  O_11
REMARK    6  A    between atoms: O_11  and  N_12
REMARK    7  A    between atoms: C_13  and  C_15
REMARK    8  A    between atoms: C_22  and  O_23
REMARK    9  A    between atoms: O_23  and  C_24
REMARK                            x       y       z     vdW  Elec       q    Type
REMARK                         _______ _______ _______ _____ _____    ______ ____
ROOT
ATOM      1  C   UNL     1       7.415   7.276  17.602  0.00  0.00    +0.000 C 
ATOM      2  O   UNL     1       7.826   6.308  18.230  0.00  0.00    +0.000 OA
ENDROOT
BRANCH   1   4
ATOM      3  C   UNL     1       8.738   8.976  18.747  0.00  0.00    +0.000 C 
ATOM      4  C   UNL     1       7.968   8.643  17.701  0.00  0.00    +0.000 C 
BRANCH   3   8
ATOM      5  C   UNL     1      10.042  13.009  19.416  0.00  0.00    +0.000 A 
ATOM      6  C   UNL     1       9.975  12.466  18.125  0.00  0.00    +0.000 A 
ATOM      7  C   UNL     1       9.548  11.151  17.921  0.00  0.00    +0.000 A 
ATOM      8  C   UNL     1       9.223  10.336  19.005  0.00  0.00    +0.000 A 
ATOM      9  C   UNL     1       9.346  10.865  20.295  0.00  0.00    +0.000 A 
ATOM     10  C   UNL     1       9.765  12.187  20.518  0.00  0.00    +0.000 A 
BRANCH   5  12
ATOM     11  C   UNL     1       9.332  15.261  19.605  0.00  0.00    +0.000 C 
ATOM     12  O   UNL     1      10.399  14.315  19.620  0.00  0.00    +0.000 OA
ENDBRANCH   5  12
BRANCH  10  13
ATOM     13  O   UNL     1       9.817  12.480  21.854  0.00  0.00    +0.000 OA
ATOM     14  C   UNL     1       8.647  12.340  22.640  0.00  0.00    +0.000 C 
ENDBRANCH  10  13
ENDBRANCH   3   8
ENDBRANCH   1   4
BRANCH   1  15
ATOM     15  O   UNL     1       6.332   7.336  16.775  0.00  0.00    +0.000 OA
BRANCH  15  16
ATOM     16  N   UNL     1       5.662   6.104  16.842  0.00  0.00    +0.000 NA
ATOM     17  C   UNL     1       4.433   6.245  17.239  0.00  0.00    +0.000 C 
ATOM     18  N   UNL     1       3.802   7.459  17.412  0.00  0.00    +0.000 N 
ATOM     19  H   UNL     1       4.158   8.190  16.808  0.00  0.00    +0.000 HD
ATOM     20  H   UNL     1       2.785   7.377  17.402  0.00  0.00    +0.000 HD
BRANCH  17  21
ATOM     21  C   UNL     1       3.642   4.996  17.524  0.00  0.00    +0.000 A 
ATOM     22  C   UNL     1       4.232   3.743  17.393  0.00  0.00    +0.000 A 
ATOM     23  C   UNL     1       3.465   2.623  17.692  0.00  0.00    +0.000 A 
ATOM     24  C   UNL     1       2.151   2.796  18.113  0.00  0.00    +0.000 A 
ATOM     25  C   UNL     1       1.649   4.086  18.217  0.00  0.00    +0.000 A 
ATOM     26  N   UNL     1       2.359   5.199  17.928  0.00  0.00    +0.000 NA
ENDBRANCH  17  21
ENDBRANCH  15  16
ENDBRANCH   1  15
TORSDOF 7
ENDMDL
MODEL 5
REMARK VINA RESULT:      -7.5      1.593      2.566
REMARK  Name = 
REMARK  9 active torsions:
REMARK  status: ('A' for Active; 'I' for Inactive)
REMARK    1  A    between atoms: C_1  and  O_2
REMARK    2  A    between atoms: O_2  and  C_3
REMARK    3  A    between atoms: C_6  and  C_7
REMARK    4  A    between atoms: C_8  and  C_9
REMARK    5  A    between atoms: C_9  and  O_11
REMARK    6  A    between atoms: O_11  and  N_12
REMARK    7  A    between atoms: C_13  and  C_15
REMARK    8  A    between atoms: C_22  and  O_23
REMARK    9  A    between atoms: O_23  and  C_24
REMARK                            x       y       z     vdW  Elec       q    Type
REMARK                         _______ _______ _______ _____ _____    ______ ____
ROOT
ATOM      1  C   UNL     1       7.280   7.257  17.535  0.00  0.00    +0.000 C 
ATOM      2  O   UNL     1       7.917   6.218  17.646  0.00  0.00    +0.000 OA
ENDROOT
BRANCH   1   4
ATOM      3  C   UNL     1       8.708   8.880  18.667  0.00  0.00    +0.000 C 
ATOM      4  C   UNL     1       7.849   8.615  17.672  0.00  0.00    +0.000 C 
BRANCH   3   8
ATOM      5  C   UNL     1      10.107  12.860  19.454  0.00  0.00    +0.000 A 
ATOM      6  C   UNL     1      10.084  12.335  18.153  0.00  0.00    +0.000 A 
ATOM      7  C   UNL     1       9.626  11.038  17.910  0.00  0.00    +0.000 A 
ATOM      8  C   UNL     1       9.224  10.220  18.967  0.00  0.00    +0.000 A 
ATOM      9  C   UNL     1       9.303  10.728  20.269  0.00  0.00    +0.000 A 
ATOM     10  C   UNL     1       9.752  12.032  20.529  0.00  0.00    +0.000 A 
BRANCH   5  12
ATOM     11  C   UNL     1      11.892  14.412  19.565  0.00  0.00    +0.000 C 
ATOM     12  O   UNL     1      10.496  14.150  19.693  0.00  0.00    +0.000 OA
ENDBRANCH   5  12
BRANCH  10  13
ATOM     13  O   UNL     1       9.750  12.308  21.871  0.00  0.00    +0.000 OA
ATOM     14  C   UNL     1       8.603  12.898  22.454  0.00  0.00    +0.000 C 
ENDBRANCH  10  13
ENDBRANCH   3   8
ENDBRANCH   1   4
BRANCH   1  15
ATOM     15  O   UNL     1       5.933   7.398  17.368  0.00  0.00    +0.000 OA
BRANCH  15  16
ATOM     16  N   UNL     1       5.360   6.117  17.337  0.00  0.00    +0.000 NA
ATOM     17  C   UNL     1       4.089   6.150  17.600  0.00  0.00    +0.000 C 
ATOM     18  N   UNL     1       3.348   7.307  17.728  0.00  0.00    +0.000 N 
ATOM     19  H   UNL     1       3.707   8.080  17.181  0.00  0.00    +0.000 HD
ATOM     20  H   UNL     1       2.348   7.147  17.605  0.00  0.00    +0.000 HD
BRANCH  17  21
ATOM     21  C   UNL     1       3.375   4.836  17.771  0.00  0.00    +0.000 A 
ATOM     22  C   UNL     1       1.996   4.801  17.947  0.00  0.00    +0.000 A 
ATOM     23  C   UNL     1       1.383   3.560  18.074  0.00  0.00    +0.000 A 
ATOM     24  C   UNL     1       2.163   2.410  18.015  0.00  0.00    +0.000 A 
ATOM     25  C   UNL     1       3.533   2.544  17.833  0.00  0.00    +0.000 A 
ATOM     26  N   UNL     1       4.167   3.731  17.714  0.00  0.00    +0.000 NA
ENDBRANCH  17  21
ENDBRANCH  15  16
ENDBRANCH   1  15
TORSDOF 7
ENDMDL
MODEL 6
REMARK VINA RESULT:      -7.5      1.722      2.100
REMARK  Name = 
REMARK  9 active torsions:
REMARK  status: ('A' for Active; 'I' for Inactive)
REMARK    1  A    between atoms: C_1  and  O_2
REMARK    2  A    between atoms: O_2  and  C_3
REMARK    3  A    between atoms: C_6  and  C_7
REMARK    4  A    between atoms: C_8  and  C_9
REMARK    5  A    between atoms: C_9  and  O_11
REMARK    6  A    between atoms: O_11  and  N_12
REMARK    7  A    between atoms: C_13  and  C_15
REMARK    8  A    between atoms: C_22  and  O_23
REMARK    9  A    between atoms: O_23  and  C_24
REMARK                            x       y       z     vdW  Elec       q    Type
REMARK                         _______ _______ _______ _____ _____    ______ ____
ROOT
ATOM      1  C   UNL     1       7.200   6.609  17.213  0.00  0.00    +0.000 C 
ATOM      2  O   UNL     1       7.686   5.532  16.889  0.00  0.00    +0.000 OA
ENDROOT
BRANCH   1   4
ATOM      3  C   UNL     1       7.742   8.947  17.651  0.00  0.00    +0.000 C 
ATOM      4  C   UNL     1       7.907   7.657  17.978  0.00  0.00    +0.000 C 
BRANCH   3   8
ATOM      5  C   UNL     1      10.079  12.088  19.408  0.00  0.00    +0.000 A 
ATOM      6  C   UNL     1      10.062  10.796  19.952  0.00  0.00    +0.000 A 
ATOM      7  C   UNL     1       9.297   9.782  19.371  0.00  0.00    +0.000 A 
ATOM      8  C   UNL     1       8.497  10.048  18.259  0.00  0.00    +0.000 A 
ATOM      9  C   UNL     1       8.472  11.353  17.754  0.00  0.00    +0.000 A 
ATOM     10  C   UNL     1       9.242  12.382  18.321  0.00  0.00    +0.000 A 
BRANCH   5  12
ATOM     11  C   UNL     1      12.202  13.138  19.420  0.00  0.00    +0.000 C 
ATOM     12  O   UNL     1      10.873  13.071  19.934  0.00  0.00    +0.000 OA
ENDBRANCH   5  12
BRANCH  10  13
ATOM     13  O   UNL     1       9.054  13.570  17.668  0.00  0.00    +0.000 OA
ATOM     14  C   UNL     1       7.902  14.343  17.954  0.00  0.00    +0.000 C 
ENDBRANCH  10  13
ENDBRANCH   3   8
ENDBRANCH   1   4
BRANCH   1  15
ATOM     15  O   UNL     1       5.915   7.031  17.038  0.00  0.00    +0.000 OA
BRANCH  15  16
ATOM     16  N   UNL     1       5.056   6.037  17.533  0.00  0.00    +0.000 NA
ATOM     17  C   UNL     1       3.885   6.515  17.829  0.00  0.00    +0.000 C 
ATOM     18  N   UNL     1       3.468   7.798  17.538  0.00  0.00    +0.000 N 
ATOM     19  H   UNL     1       3.913   8.191  16.718  0.00  0.00    +0.000 HD
ATOM     20  H   UNL     1       2.452   7.889  17.539  0.00  0.00    +0.000 HD
BRANCH  17  21
ATOM     21  C   UNL     1       2.914   5.603  18.530  0.00  0.00    +0.000 A 
ATOM     22  C   UNL     1       2.287   4.573  17.836  0.00  0.00    +0.000 A 
ATOM     23  C   UNL     1       1.419   3.745  18.536  0.00  0.00    +0.000 A 
ATOM     24  C   UNL     1       1.216   3.969  19.894  0.00  0.00    +0.000 A 
ATOM     25  C   UNL     1       1.889   5.021  20.503  0.00  0.00    +0.000 A 
ATOM     26  N   UNL     1       2.734   5.853  19.856  0.00  0.00    +0.000 NA
ENDBRANCH  17  21
ENDBRANCH  15  16
ENDBRANCH   1  15
TORSDOF 7
ENDMDL
MODEL 7
REMARK VINA RESULT:      -7.5      6.040      7.694
REMARK  Name = 
REMARK  9 active torsions:
REMARK  status: ('A' for Active; 'I' for Inactive)
REMARK    1  A    between atoms: C_1  and  O_2
REMARK    2  A    between atoms: O_2  and  C_3
REMARK    3  A    between atoms: C_6  and  C_7
REMARK    4  A    between atoms: C_8  and  C_9
REMARK    5  A    between atoms: C_9  and  O_11
REMARK    6  A    between atoms: O_11  and  N_12
REMARK    7  A    between atoms: C_13  and  C_15
REMARK    8  A    between atoms: C_22  and  O_23
REMARK    9  A    between atoms: O_23  and  C_24
REMARK                            x       y       z     vdW  Elec       q    Type
REMARK                         _______ _______ _______ _____ _____    ______ ____
ROOT
ATOM      1  C   UNL     1       4.917   4.505  18.812  0.00  0.00    +0.000 C 
ATOM      2  O   UNL     1       4.692   3.303  18.760  0.00  0.00    +0.000 OA
ENDROOT
BRANCH   1   4
ATOM      3  C   UNL     1       3.412   6.381  18.401  0.00  0.00    +0.000 C 
ATOM      4  C   UNL     1       3.954   5.524  19.279  0.00  0.00    +0.000 C 
BRANCH   3   8
ATOM      5  C   UNL     1       0.808   9.644  19.395  0.00  0.00    +0.000 A 
ATOM      6  C   UNL     1       1.470   9.585  18.160  0.00  0.00    +0.000 A 
ATOM      7  C   UNL     1       2.315   8.517  17.848  0.00  0.00    +0.000 A 
ATOM      8  C   UNL     1       2.553   7.508  18.781  0.00  0.00    +0.000 A 
ATOM      9  C   UNL     1       1.936   7.601  20.034  0.00  0.00    +0.000 A 
ATOM     10  C   UNL     1       1.077   8.662  20.360  0.00  0.00    +0.000 A 
BRANCH   5  12
ATOM     11  C   UNL     1       0.252  11.931  19.137  0.00  0.00    +0.000 C 
ATOM     12  O   UNL     1      -0.069  10.654  19.684  0.00  0.00    +0.000 OA
ENDBRANCH   5  12
BRANCH  10  13
ATOM     13  O   UNL     1       0.596   8.547  21.637  0.00  0.00    +0.000 OA
ATOM     14  C   UNL     1       0.620   9.677  22.490  0.00  0.00    +0.000 C 
ENDBRANCH  10  13
ENDBRANCH   3   8
ENDBRANCH   1   4
BRANCH   1  15
ATOM     15  O   UNL     1       6.028   5.167  18.375  0.00  0.00    +0.000 OA
BRANCH  15  16
ATOM     16  N   UNL     1       6.420   4.602  17.151  0.00  0.00    +0.000 NA
ATOM     17  C   UNL     1       6.366   5.465  16.183  0.00  0.00    +0.000 C 
ATOM     18  N   UNL     1       6.121   6.813  16.349  0.00  0.00    +0.000 N 
ATOM     19  H   UNL     1       6.427   7.171  17.245  0.00  0.00    +0.000 HD
ATOM     20  H   UNL     1       6.435   7.369  15.554  0.00  0.00    +0.000 HD
BRANCH  17  21
ATOM     21  C   UNL     1       6.593   4.960  14.783  0.00  0.00    +0.000 A 
ATOM     22  C   UNL     1       5.716   4.044  14.212  0.00  0.00    +0.000 A 
ATOM     23  C   UNL     1       5.957   3.630  12.907  0.00  0.00    +0.000 A 
ATOM     24  C   UNL     1       7.054   4.147  12.225  0.00  0.00    +0.000 A 
ATOM     25  C   UNL     1       7.873   5.060  12.876  0.00  0.00    +0.000 A 
ATOM     26  N   UNL     1       7.677   5.481  14.145  0.00  0.00    +0.000 NA
ENDBRANCH  17  21
ENDBRANCH  15  16
ENDBRANCH   1  15
TORSDOF 7
ENDMDL
MODEL 8
REMARK VINA RESULT:      -7.5      1.502      2.374
REMARK  Name = 
REMARK  9 active torsions:
REMARK  status: ('A' for Active; 'I' for Inactive)
REMARK    1  A    between atoms: C_1  and  O_2
REMARK    2  A    between atoms: O_2  and  C_3
REMARK    3  A    between atoms: C_6  and  C_7
REMARK    4  A    between atoms: C_8  and  C_9
REMARK    5  A    between atoms: C_9  and  O_11
REMARK    6  A    between atoms: O_11  and  N_12
REMARK    7  A    between atoms: C_13  and  C_15
REMARK    8  A    between atoms: C_22  and  O_23
REMARK    9  A    between atoms: O_23  and  C_24
REMARK                            x       y       z     vdW  Elec       q    Type
REMARK                         _______ _______ _______ _____ _____    ______ ____
ROOT
ATOM      1  C   UNL     1       7.454   6.972  17.236  0.00  0.00    +0.000 C 
ATOM      2  O   UNL     1       7.603   6.365  16.182  0.00  0.00    +0.000 OA
ENDROOT
BRANCH   1   4
ATOM      3  C   UNL     1       8.603   8.761  18.432  0.00  0.00    +0.000 C 
ATOM      4  C   UNL     1       7.777   8.400  17.440  0.00  0.00    +0.000 C 
BRANCH   3   8
ATOM      5  C   UNL     1       9.273  12.873  19.460  0.00  0.00    +0.000 A 
ATOM      6  C   UNL     1       8.971  12.487  18.146  0.00  0.00    +0.000 A 
ATOM      7  C   UNL     1       8.755  11.144  17.825  0.00  0.00    +0.000 A 
ATOM      8  C   UNL     1       8.881  10.154  18.799  0.00  0.00    +0.000 A 
ATOM      9  C   UNL     1       9.239  10.539  20.097  0.00  0.00    +0.000 A 
ATOM     10  C   UNL     1       9.451  11.884  20.438  0.00  0.00    +0.000 A 
BRANCH   5  12
ATOM     11  C   UNL     1       8.524  15.101  19.168  0.00  0.00    +0.000 C 
ATOM     12  O   UNL     1       9.426  14.191  19.796  0.00  0.00    +0.000 OA
ENDBRANCH   5  12
BRANCH  10  13
ATOM     13  O   UNL     1       9.798  12.020  21.756  0.00  0.00    +0.000 OA
ATOM     14  C   UNL     1       8.824  12.462  22.685  0.00  0.00    +0.000 C 
ENDBRANCH  10  13
ENDBRANCH   3   8
ENDBRANCH   1   4
BRANCH   1  15
ATOM     15  O   UNL     1       7.068   6.467  18.443  0.00  0.00    +0.000 OA
BRANCH  15  16
ATOM     16  N   UNL     1       5.688   6.217  18.391  0.00  0.00    +0.000 NA
ATOM     17  C   UNL     1       5.428   4.944  18.412  0.00  0.00    +0.000 C 
ATOM     18  N   UNL     1       6.367   3.958  18.632  0.00  0.00    +0.000 N 
ATOM     19  H   UNL     1       7.145   4.261  19.205  0.00  0.00    +0.000 HD
ATOM     20  H   UNL     1       5.949   3.079  18.937  0.00  0.00    +0.000 HD
BRANCH  17  21
ATOM     21  C   UNL     1       4.001   4.518  18.191  0.00  0.00    +0.000 A 
ATOM     22  C   UNL     1       2.966   5.442  18.286  0.00  0.00    +0.000 A 
ATOM     23  C   UNL     1       1.670   5.002  18.047  0.00  0.00    +0.000 A 
ATOM     24  C   UNL     1       1.459   3.667  17.717  0.00  0.00    +0.000 A 
ATOM     25  C   UNL     1       2.555   2.818  17.642  0.00  0.00    +0.000 A 
ATOM     26  N   UNL     1       3.828   3.205  17.875  0.00  0.00    +0.000 NA
ENDBRANCH  17  21
ENDBRANCH  15  16
ENDBRANCH   1  15
TORSDOF 7
ENDMDL
MODEL 9
REMARK VINA RESULT:      -7.5      1.823      2.546
REMARK  Name = 
REMARK  9 active torsions:
REMARK  status: ('A' for Active; 'I' for Inactive)
REMARK    1  A    between atoms: C_1  and  O_2
REMARK    2  A    between atoms: O_2  and  C_3
REMARK    3  A    between atoms: C_6  and  C_7
REMARK    4  A    between atoms: C_8  and  C_9
REMARK    5  A    between atoms: C_9  and  O_11
REMARK    6  A    between atoms: O_11  and  N_12
REMARK    7  A    between atoms: C_13  and  C_15
REMARK    8  A    between atoms: C_22  and  O_23
REMARK    9  A    between atoms: O_23  and  C_24
REMARK                            x       y       z     vdW  Elec       q    Type
REMARK                         _______ _______ _______ _____ _____    ______ ____
ROOT
ATOM      1  C   UNL     1       7.885   7.889  17.936  0.00  0.00    +0.000 C 
ATOM      2  O   UNL     1       8.294   7.156  18.828  0.00  0.00    +0.000 OA
ENDROOT
BRANCH   1   4
ATOM      3  C   UNL     1       9.211   9.839  18.562  0.00  0.00    +0.000 C 
ATOM      4  C   UNL     1       8.301   9.293  17.742  0.00  0.00    +0.000 C 
BRANCH   3   8
ATOM      5  C   UNL     1      10.285  13.987  18.337  0.00  0.00    +0.000 A 
ATOM      6  C   UNL     1      10.930  13.020  17.552  0.00  0.00    +0.000 A 
ATOM      7  C   UNL     1      10.570  11.672  17.635  0.00  0.00    +0.000 A 
ATOM      8  C   UNL     1       9.591  11.255  18.536  0.00  0.00    +0.000 A 
ATOM      9  C   UNL     1       8.991  12.216  19.358  0.00  0.00    +0.000 A 
ATOM     10  C   UNL     1       9.334  13.575  19.282  0.00  0.00    +0.000 A 
BRANCH   5  12
ATOM     11  C   UNL     1      11.123  15.722  16.959  0.00  0.00    +0.000 C 
ATOM     12  O   UNL     1      10.588  15.317  18.218  0.00  0.00    +0.000 OA
ENDBRANCH   5  12
BRANCH  10  13
ATOM     13  O   UNL     1       8.625  14.325  20.182  0.00  0.00    +0.000 OA
ATOM     14  C   UNL     1       7.412  14.931  19.775  0.00  0.00    +0.000 C 
ENDBRANCH  10  13
ENDBRANCH   3   8
ENDBRANCH   1   4
BRANCH   1  15
ATOM     15  O   UNL     1       6.914   7.622  17.015  0.00  0.00    +0.000 OA
BRANCH  15  16
ATOM     16  N   UNL     1       5.981   6.752  17.602  0.00  0.00    +0.000 NA
ATOM     17  C   UNL     1       5.225   6.186  16.711  0.00  0.00    +0.000 C 
ATOM     18  N   UNL     1       5.414   6.283  15.348  0.00  0.00    +0.000 N 
ATOM     19  H   UNL     1       6.382   6.423  15.083  0.00  0.00    +0.000 HD
ATOM     20  H   UNL     1       4.951   5.534  14.833  0.00  0.00    +0.000 HD
BRANCH  17  21
ATOM     21  C   UNL     1       4.066   5.359  17.201  0.00  0.00    +0.000 A 
ATOM     22  C   UNL     1       3.063   5.937  17.971  0.00  0.00    +0.000 A 
ATOM     23  C   UNL     1       2.003   5.135  18.376  0.00  0.00    +0.000 A 
ATOM     24  C   UNL     1       1.982   3.798  17.996  0.00  0.00    +0.000 A 
ATOM     25  C   UNL     1       3.027   3.308  17.224  0.00  0.00    +0.000 A 
ATOM     26  N   UNL     1       4.079   4.053  16.816  0.00  0.00    +0.000 NA
ENDBRANCH  17  21
ENDBRANCH  15  16
ENDBRANCH   1  15
TORSDOF 7
ENDMDL
