MODEL 1
REMARK VINA RESULT:      -7.2      0.000      0.000
REMARK  Name = 
REMARK  8 active torsions:
REMARK  status: ('A' for Active; 'I' for Inactive)
REMARK    1  A    between atoms: C_1  and  O_2
REMARK    2  A    between atoms: O_2  and  C_3
REMARK    3  A    between atoms: C_6  and  O_7
REMARK    4  A    between atoms: O_7  and  C_8
REMARK    5  A    between atoms: C_8  and  C_9
REMARK    6  A    between atoms: C_8  and  C_10
REMARK    7  A    between atoms: C_13  and  C_14
REMARK    8  A    between atoms: C_16  and  O_17
REMARK                            x       y       z     vdW  Elec       q    Type
REMARK                         _______ _______ _______ _____ _____    ______ ____
ROOT
ATOM      1  C   UNL     1       6.222   6.400  17.702  0.00  0.00    +0.000 C 
ATOM      2  C   UNL     1       7.513   7.217  17.781  0.00  0.00    +0.000 C 
ENDROOT
BRANCH   1   3
ATOM      3  C   UNL     1       6.233   5.603  16.396  0.00  0.00    +0.000 A 
ATOM      4  C   UNL     1       5.265   4.633  16.133  0.00  0.00    +0.000 A 
ATOM      5  C   UNL     1       5.299   3.946  14.921  0.00  0.00    +0.000 A 
ATOM      6  C   UNL     1       6.308   4.222  14.003  0.00  0.00    +0.000 A 
ATOM      7  C   UNL     1       7.264   5.167  14.355  0.00  0.00    +0.000 A 
ATOM      8  N   UNL     1       7.243   5.853  15.519  0.00  0.00    +0.000 NA
BRANCH   6   9
ATOM      9  C   UNL     1       6.338   3.547  12.743  0.00  0.00    +0.000 C 
ATOM     10  N   UNL     1       6.396   3.019  11.714  0.00  0.00    +0.000 NA
ENDBRANCH   6   9
BRANCH   7  11
ATOM     11  O   UNL     1       8.326   5.495  13.559  0.00  0.00    +0.000 OA
ATOM     12  H   UNL     1       9.005   5.967  14.067  0.00  0.00    +0.000 HD
ENDBRANCH   7  11
ENDBRANCH   1   3
BRANCH   1  13
ATOM     13  O   UNL     1       6.121   5.478  18.805  0.00  0.00    +0.000 OA
BRANCH  13  17
ATOM     14  C   UNL     1       2.453   3.922  20.062  0.00  0.00    +0.000 A 
ATOM     15  C   UNL     1       3.550   3.102  19.798  0.00  0.00    +0.000 A 
ATOM     16  C   UNL     1       4.764   3.658  19.376  0.00  0.00    +0.000 A 
ATOM     17  C   UNL     1       4.879   5.034  19.164  0.00  0.00    +0.000 A 
ATOM     18  C   UNL     1       3.768   5.843  19.390  0.00  0.00    +0.000 A 
ATOM     19  C   UNL     1       2.566   5.293  19.848  0.00  0.00    +0.000 A 
BRANCH  14  21
ATOM     20  C   UNL     1       1.422   2.617  21.739  0.00  0.00    +0.000 C 
ATOM     21  O   UNL     1       1.319   3.285  20.485  0.00  0.00    +0.000 OA
ENDBRANCH  14  21
ENDBRANCH  13  17
ENDBRANCH   1  13
TORSDOF 6
ENDMDL
MODEL 2
REMARK VINA RESULT:      -7.1      0.589      1.223
REMARK  Name = 
REMARK  8 active torsions:
REMARK  status: ('A' for Active; 'I' for Inactive)
REMARK    1  A    between atoms: C_1  and  O_2
REMARK    2  A    between atoms: O_2  and  C_3
REMARK    3  A    between atoms: C_6  and  O_7
REMARK    4  A    between atoms: O_7  and  C_8
REMARK    5  A    between atoms: C_8  and  C_9
REMARK    6  A    between atoms: C_8  and  C_10
REMARK    7  A    between atoms: C_13  and  C_14
REMARK    8  A    between atoms: C_16  and  O_17
REMARK                            x       y       z     vdW  Elec       q    Type
REMARK                         _______ _______ _______ _____ _____    ______ ____
ROOT
ATOM      1  C   UNL     1       6.279   6.432  17.747  0.00  0.00    +0.000 C 
ATOM      2  C   UNL     1       7.558   7.272  17.777  0.00  0.00    +0.000 C 
ENDROOT
BRANCH   1   3
ATOM      3  C   UNL     1       6.256   5.635  16.441  0.00  0.00    +0.000 A 
ATOM      4  C   UNL     1       5.265   4.683  16.195  0.00  0.00    +0.000 A 
ATOM      5  C   UNL     1       5.267   3.995  14.983  0.00  0.00    +0.000 A 
ATOM      6  C   UNL     1       6.268   4.250  14.050  0.00  0.00    +0.000 A 
ATOM      7  C   UNL     1       7.247   5.177  14.386  0.00  0.00    +0.000 A 
ATOM      8  N   UNL     1       7.256   5.864  15.549  0.00  0.00    +0.000 NA
BRANCH   6   9
ATOM      9  C   UNL     1       6.265   3.574  12.790  0.00  0.00    +0.000 C 
ATOM     10  N   UNL     1       6.240   2.996  11.786  0.00  0.00    +0.000 NA
ENDBRANCH   6   9
BRANCH   7  11
ATOM     11  O   UNL     1       8.303   5.484  13.573  0.00  0.00    +0.000 OA
ATOM     12  H   UNL     1       8.554   4.721  13.031  0.00  0.00    +0.000 HD
ENDBRANCH   7  11
ENDBRANCH   1   3
BRANCH   1  13
ATOM     13  O   UNL     1       6.236   5.511  18.853  0.00  0.00    +0.000 OA
BRANCH  13  17
ATOM     14  C   UNL     1       2.417   4.085  19.769  0.00  0.00    +0.000 A 
ATOM     15  C   UNL     1       2.690   5.449  19.664  0.00  0.00    +0.000 A 
ATOM     16  C   UNL     1       3.982   5.891  19.358  0.00  0.00    +0.000 A 
ATOM     17  C   UNL     1       5.027   4.977  19.203  0.00  0.00    +0.000 A 
ATOM     18  C   UNL     1       4.758   3.618  19.349  0.00  0.00    +0.000 A 
ATOM     19  C   UNL     1       3.459   3.173  19.618  0.00  0.00    +0.000 A 
BRANCH  14  21
ATOM     20  C   UNL     1       0.629   2.586  19.403  0.00  0.00    +0.000 C 
ATOM     21  O   UNL     1       1.122   3.754  20.054  0.00  0.00    +0.000 OA
ENDBRANCH  14  21
ENDBRANCH  13  17
ENDBRANCH   1  13
TORSDOF 6
ENDMDL
MODEL 3
REMARK VINA RESULT:      -7.0      2.441      4.263
REMARK  Name = 
REMARK  8 active torsions:
REMARK  status: ('A' for Active; 'I' for Inactive)
REMARK    1  A    between atoms: C_1  and  O_2
REMARK    2  A    between atoms: O_2  and  C_3
REMARK    3  A    between atoms: C_6  and  O_7
REMARK    4  A    between atoms: O_7  and  C_8
REMARK    5  A    between atoms: C_8  and  C_9
REMARK    6  A    between atoms: C_8  and  C_10
REMARK    7  A    between atoms: C_13  and  C_14
REMARK    8  A    between atoms: C_16  and  O_17
REMARK                            x       y       z     vdW  Elec       q    Type
REMARK                         _______ _______ _______ _____ _____    ______ ____
ROOT
ATOM      1  C   UNL     1       5.642   3.842  16.213  0.00  0.00    +0.000 C 
ATOM      2  C   UNL     1       6.145   3.631  14.783  0.00  0.00    +0.000 C 
ENDROOT
BRANCH   1   3
ATOM      3  C   UNL     1       6.380   5.041  16.813  0.00  0.00    +0.000 A 
ATOM      4  C   UNL     1       6.396   6.276  16.163  0.00  0.00    +0.000 A 
ATOM      5  C   UNL     1       7.061   7.349  16.755  0.00  0.00    +0.000 A 
ATOM      6  C   UNL     1       7.716   7.165  17.970  0.00  0.00    +0.000 A 
ATOM      7  C   UNL     1       7.696   5.895  18.532  0.00  0.00    +0.000 A 
ATOM      8  N   UNL     1       7.046   4.845  17.982  0.00  0.00    +0.000 NA
BRANCH   6   9
ATOM      9  C   UNL     1       8.376   8.264  18.603  0.00  0.00    +0.000 C 
ATOM     10  N   UNL     1       8.944   9.143  19.098  0.00  0.00    +0.000 NA
ENDBRANCH   6   9
BRANCH   7  11
ATOM     11  O   UNL     1       8.334   5.578  19.699  0.00  0.00    +0.000 OA
ATOM     12  H   UNL     1       8.264   4.629  19.883  0.00  0.00    +0.000 HD
ENDBRANCH   7  11
ENDBRANCH   1   3
BRANCH   1  13
ATOM     13  O   UNL     1       4.227   4.112  16.232  0.00  0.00    +0.000 OA
BRANCH  13  17
ATOM     14  C   UNL     1       1.812   3.026  19.464  0.00  0.00    +0.000 A 
ATOM     15  C   UNL     1       1.859   4.335  18.986  0.00  0.00    +0.000 A 
ATOM     16  C   UNL     1       2.681   4.664  17.902  0.00  0.00    +0.000 A 
ATOM     17  C   UNL     1       3.505   3.699  17.317  0.00  0.00    +0.000 A 
ATOM     18  C   UNL     1       3.485   2.402  17.825  0.00  0.00    +0.000 A 
ATOM     19  C   UNL     1       2.636   2.064  18.883  0.00  0.00    +0.000 A 
BRANCH  14  21
ATOM     20  C   UNL     1       1.595   2.611  21.779  0.00  0.00    +0.000 C 
ATOM     21  O   UNL     1       0.966   2.802  20.514  0.00  0.00    +0.000 OA
ENDBRANCH  14  21
ENDBRANCH  13  17
ENDBRANCH   1  13
TORSDOF 6
ENDMDL
MODEL 4
REMARK VINA RESULT:      -6.9      2.485      4.145
REMARK  Name = 
REMARK  8 active torsions:
REMARK  status: ('A' for Active; 'I' for Inactive)
REMARK    1  A    between atoms: C_1  and  O_2
REMARK    2  A    between atoms: O_2  and  C_3
REMARK    3  A    between atoms: C_6  and  O_7
REMARK    4  A    between atoms: O_7  and  C_8
REMARK    5  A    between atoms: C_8  and  C_9
REMARK    6  A    between atoms: C_8  and  C_10
REMARK    7  A    between atoms: C_13  and  C_14
REMARK    8  A    between atoms: C_16  and  O_17
REMARK                            x       y       z     vdW  Elec       q    Type
REMARK                         _______ _______ _______ _____ _____    ______ ____
ROOT
ATOM      1  C   UNL     1       5.562   3.905  16.263  0.00  0.00    +0.000 C 
ATOM      2  C   UNL     1       6.105   3.624  14.861  0.00  0.00    +0.000 C 
ENDROOT
BRANCH   1   3
ATOM      3  C   UNL     1       6.322   5.099  16.845  0.00  0.00    +0.000 A 
ATOM      4  C   UNL     1       6.327   6.336  16.199  0.00  0.00    +0.000 A 
ATOM      5  C   UNL     1       7.013   7.404  16.775  0.00  0.00    +0.000 A 
ATOM      6  C   UNL     1       7.700   7.214  17.971  0.00  0.00    +0.000 A 
ATOM      7  C   UNL     1       7.689   5.942  18.530  0.00  0.00    +0.000 A 
ATOM      8  N   UNL     1       7.019   4.897  17.996  0.00  0.00    +0.000 NA
BRANCH   6   9
ATOM      9  C   UNL     1       8.383   8.308  18.588  0.00  0.00    +0.000 C 
ATOM     10  N   UNL     1       8.971   9.174  19.084  0.00  0.00    +0.000 NA
ENDBRANCH   6   9
BRANCH   7  11
ATOM     11  O   UNL     1       8.357   5.619  19.678  0.00  0.00    +0.000 OA
ATOM     12  H   UNL     1       7.802   5.076  20.259  0.00  0.00    +0.000 HD
ENDBRANCH   7  11
ENDBRANCH   1   3
BRANCH   1  13
ATOM     13  O   UNL     1       4.158   4.227  16.223  0.00  0.00    +0.000 OA
BRANCH  13  17
ATOM     14  C   UNL     1       1.970   2.791  19.480  0.00  0.00    +0.000 A 
ATOM     15  C   UNL     1       2.993   2.046  18.892  0.00  0.00    +0.000 A 
ATOM     16  C   UNL     1       3.704   2.558  17.801  0.00  0.00    +0.000 A 
ATOM     17  C   UNL     1       3.367   3.797  17.251  0.00  0.00    +0.000 A 
ATOM     18  C   UNL     1       2.318   4.519  17.816  0.00  0.00    +0.000 A 
ATOM     19  C   UNL     1       1.632   4.026  18.931  0.00  0.00    +0.000 A 
BRANCH  14  21
ATOM     20  C   UNL     1       1.610   2.817  21.814  0.00  0.00    +0.000 C 
ATOM     21  O   UNL     1       1.348   2.212  20.551  0.00  0.00    +0.000 OA
ENDBRANCH  14  21
ENDBRANCH  13  17
ENDBRANCH   1  13
TORSDOF 6
ENDMDL
MODEL 5
REMARK VINA RESULT:      -6.9      3.419      6.993
REMARK  Name = 
REMARK  8 active torsions:
REMARK  status: ('A' for Active; 'I' for Inactive)
REMARK    1  A    between atoms: C_1  and  O_2
REMARK    2  A    between atoms: O_2  and  C_3
REMARK    3  A    between atoms: C_6  and  O_7
REMARK    4  A    between atoms: O_7  and  C_8
REMARK    5  A    between atoms: C_8  and  C_9
REMARK    6  A    between atoms: C_8  and  C_10
REMARK    7  A    between atoms: C_13  and  C_14
REMARK    8  A    between atoms: C_16  and  O_17
REMARK                            x       y       z     vdW  Elec       q    Type
REMARK                         _______ _______ _______ _____ _____    ______ ____
ROOT
ATOM      1  C   UNL     1       2.863   4.497  19.215  0.00  0.00    +0.000 C 
ATOM      2  C   UNL     1       1.992   3.773  20.244  0.00  0.00    +0.000 C 
ENDROOT
BRANCH   1   3
ATOM      3  C   UNL     1       2.455   5.971  19.189  0.00  0.00    +0.000 A 
ATOM      4  C   UNL     1       2.461   6.700  17.999  0.00  0.00    +0.000 A 
ATOM      5  C   UNL     1       2.060   8.036  18.016  0.00  0.00    +0.000 A 
ATOM      6  C   UNL     1       1.683   8.625  19.219  0.00  0.00    +0.000 A 
ATOM      7  C   UNL     1       1.748   7.848  20.369  0.00  0.00    +0.000 A 
ATOM      8  N   UNL     1       2.121   6.550  20.373  0.00  0.00    +0.000 NA
BRANCH   6   9
ATOM      9  C   UNL     1       1.240   9.984  19.246  0.00  0.00    +0.000 C 
ATOM     10  N   UNL     1       0.876  11.083  19.228  0.00  0.00    +0.000 NA
ENDBRANCH   6   9
BRANCH   7  11
ATOM     11  O   UNL     1       1.444   8.322  21.615  0.00  0.00    +0.000 OA
ATOM     12  H   UNL     1       1.591   7.641  22.289  0.00  0.00    +0.000 HD
ENDBRANCH   7  11
ENDBRANCH   1   3
BRANCH   1  13
ATOM     13  O   UNL     1       4.258   4.409  19.561  0.00  0.00    +0.000 OA
BRANCH  13  17
ATOM     14  C   UNL     1       6.869   5.110  16.375  0.00  0.00    +0.000 A 
ATOM     15  C   UNL     1       5.742   4.299  16.240  0.00  0.00    +0.000 A 
ATOM     16  C   UNL     1       4.890   4.085  17.330  0.00  0.00    +0.000 A 
ATOM     17  C   UNL     1       5.183   4.636  18.579  0.00  0.00    +0.000 A 
ATOM     18  C   UNL     1       6.332   5.411  18.719  0.00  0.00    +0.000 A 
ATOM     19  C   UNL     1       7.164   5.658  17.621  0.00  0.00    +0.000 A 
BRANCH  14  21
ATOM     20  C   UNL     1       7.034   4.812  14.038  0.00  0.00    +0.000 C 
ATOM     21  O   UNL     1       7.628   5.271  15.249  0.00  0.00    +0.000 OA
ENDBRANCH  14  21
ENDBRANCH  13  17
ENDBRANCH   1  13
TORSDOF 6
ENDMDL
MODEL 6
REMARK VINA RESULT:      -6.8      3.672      7.149
REMARK  Name = 
REMARK  8 active torsions:
REMARK  status: ('A' for Active; 'I' for Inactive)
REMARK    1  A    between atoms: C_1  and  O_2
REMARK    2  A    between atoms: O_2  and  C_3
REMARK    3  A    between atoms: C_6  and  O_7
REMARK    4  A    between atoms: O_7  and  C_8
REMARK    5  A    between atoms: C_8  and  C_9
REMARK    6  A    between atoms: C_8  and  C_10
REMARK    7  A    between atoms: C_13  and  C_14
REMARK    8  A    between atoms: C_16  and  O_17
REMARK                            x       y       z     vdW  Elec       q    Type
REMARK                         _______ _______ _______ _____ _____    ______ ____
ROOT
ATOM      1  C   UNL     1       3.031   5.427  19.251  0.00  0.00    +0.000 C 
ATOM      2  C   UNL     1       2.377   4.459  20.240  0.00  0.00    +0.000 C 
ENDROOT
BRANCH   1   3
ATOM      3  C   UNL     1       2.383   6.802  19.421  0.00  0.00    +0.000 A 
ATOM      4  C   UNL     1       1.788   7.175  20.627  0.00  0.00    +0.000 A 
ATOM      5  C   UNL     1       1.228   8.446  20.747  0.00  0.00    +0.000 A 
ATOM      6  C   UNL     1       1.252   9.313  19.658  0.00  0.00    +0.000 A 
ATOM      7  C   UNL     1       1.819   8.853  18.476  0.00  0.00    +0.000 A 
ATOM      8  N   UNL     1       2.378   7.630  18.342  0.00  0.00    +0.000 NA
BRANCH   6   9
ATOM      9  C   UNL     1       0.709  10.630  19.776  0.00  0.00    +0.000 C 
ATOM     10  N   UNL     1       0.234  11.681  19.882  0.00  0.00    +0.000 NA
ENDBRANCH   6   9
BRANCH   7  11
ATOM     11  O   UNL     1       1.866   9.592  17.326  0.00  0.00    +0.000 OA
ATOM     12  H   UNL     1       2.740   9.994  17.210  0.00  0.00    +0.000 HD
ENDBRANCH   7  11
ENDBRANCH   1   3
BRANCH   1  13
ATOM     13  O   UNL     1       4.445   5.548  19.501  0.00  0.00    +0.000 OA
BRANCH  13  17
ATOM     14  C   UNL     1       6.821   5.339  16.071  0.00  0.00    +0.000 A 
ATOM     15  C   UNL     1       5.688   4.541  16.233  0.00  0.00    +0.000 A 
ATOM     16  C   UNL     1       4.916   4.636  17.397  0.00  0.00    +0.000 A 
ATOM     17  C   UNL     1       5.296   5.492  18.433  0.00  0.00    +0.000 A 
ATOM     18  C   UNL     1       6.451   6.256  18.283  0.00  0.00    +0.000 A 
ATOM     19  C   UNL     1       7.202   6.190  17.105  0.00  0.00    +0.000 A 
BRANCH  14  21
ATOM     20  C   UNL     1       6.787   4.503  13.861  0.00  0.00    +0.000 C 
ATOM     21  O   UNL     1       7.497   5.184  14.893  0.00  0.00    +0.000 OA
ENDBRANCH  14  21
ENDBRANCH  13  17
ENDBRANCH   1  13
TORSDOF 6
ENDMDL
MODEL 7
REMARK VINA RESULT:      -6.8      3.120      6.807
REMARK  Name = 
REMARK  8 active torsions:
REMARK  status: ('A' for Active; 'I' for Inactive)
REMARK    1  A    between atoms: C_1  and  O_2
REMARK    2  A    between atoms: O_2  and  C_3
REMARK    3  A    between atoms: C_6  and  O_7
REMARK    4  A    between atoms: O_7  and  C_8
REMARK    5  A    between atoms: C_8  and  C_9
REMARK    6  A    between atoms: C_8  and  C_10
REMARK    7  A    between atoms: C_13  and  C_14
REMARK    8  A    between atoms: C_16  and  O_17
REMARK                            x       y       z     vdW  Elec       q    Type
REMARK                         _______ _______ _______ _____ _____    ______ ____
ROOT
ATOM      1  C   UNL     1       2.863   3.571  17.767  0.00  0.00    +0.000 C 
ATOM      2  C   UNL     1       1.930   2.398  18.078  0.00  0.00    +0.000 C 
ENDROOT
BRANCH   1   3
ATOM      3  C   UNL     1       2.473   4.749  18.663  0.00  0.00    +0.000 A 
ATOM      4  C   UNL     1       2.003   4.543  19.961  0.00  0.00    +0.000 A 
ATOM      5  C   UNL     1       1.681   5.645  20.752  0.00  0.00    +0.000 A 
ATOM      6  C   UNL     1       1.810   6.928  20.228  0.00  0.00    +0.000 A 
ATOM      7  C   UNL     1       2.238   7.051  18.912  0.00  0.00    +0.000 A 
ATOM      8  N   UNL     1       2.569   5.998  18.133  0.00  0.00    +0.000 NA
BRANCH   6   9
ATOM      9  C   UNL     1       1.512   8.068  21.038  0.00  0.00    +0.000 C 
ATOM     10  N   UNL     1       1.260   8.966  21.724  0.00  0.00    +0.000 NA
ENDBRANCH   6   9
BRANCH   7  11
ATOM     11  O   UNL     1       2.366   8.252  18.272  0.00  0.00    +0.000 OA
ATOM     12  H   UNL     1       2.582   8.957  18.902  0.00  0.00    +0.000 HD
ENDBRANCH   7  11
ENDBRANCH   1   3
BRANCH   1  13
ATOM     13  O   UNL     1       4.237   3.226  18.028  0.00  0.00    +0.000 OA
BRANCH  13  17
ATOM     14  C   UNL     1       6.995   6.251  17.191  0.00  0.00    +0.000 A 
ATOM     15  C   UNL     1       6.261   5.622  16.184  0.00  0.00    +0.000 A 
ATOM     16  C   UNL     1       5.347   4.611  16.501  0.00  0.00    +0.000 A 
ATOM     17  C   UNL     1       5.193   4.181  17.822  0.00  0.00    +0.000 A 
ATOM     18  C   UNL     1       5.958   4.784  18.818  0.00  0.00    +0.000 A 
ATOM     19  C   UNL     1       6.844   5.821  18.507  0.00  0.00    +0.000 A 
BRANCH  14  21
ATOM     20  C   UNL     1       7.974   8.347  17.668  0.00  0.00    +0.000 C 
ATOM     21  O   UNL     1       7.849   7.237  16.782  0.00  0.00    +0.000 OA
ENDBRANCH  14  21
ENDBRANCH  13  17
ENDBRANCH   1  13
TORSDOF 6
ENDMDL
MODEL 8
REMARK VINA RESULT:      -6.8      3.935      7.306
REMARK  Name = 
REMARK  8 active torsions:
REMARK  status: ('A' for Active; 'I' for Inactive)
REMARK    1  A    between atoms: C_1  and  O_2
REMARK    2  A    between atoms: O_2  and  C_3
REMARK    3  A    between atoms: C_6  and  O_7
REMARK    4  A    between atoms: O_7  and  C_8
REMARK    5  A    between atoms: C_8  and  C_9
REMARK    6  A    between atoms: C_8  and  C_10
REMARK    7  A    between atoms: C_13  and  C_14
REMARK    8  A    between atoms: C_16  and  O_17
REMARK                            x       y       z     vdW  Elec       q    Type
REMARK                         _______ _______ _______ _____ _____    ______ ____
ROOT
ATOM      1  C   UNL     1       2.694   5.727  19.371  0.00  0.00    +0.000 C 
ATOM      2  C   UNL     1       2.044   4.810  20.409  0.00  0.00    +0.000 C 
ENDROOT
BRANCH   1   3
ATOM      3  C   UNL     1       2.116   7.134  19.539  0.00  0.00    +0.000 A 
ATOM      4  C   UNL     1       1.562   7.545  20.753  0.00  0.00    +0.000 A 
ATOM      5  C   UNL     1       1.066   8.843  20.871  0.00  0.00    +0.000 A 
ATOM      6  C   UNL     1       1.111   9.698  19.773  0.00  0.00    +0.000 A 
ATOM      7  C   UNL     1       1.633   9.201  18.586  0.00  0.00    +0.000 A 
ATOM      8  N   UNL     1       2.130   7.952  18.453  0.00  0.00    +0.000 NA
BRANCH   6   9
ATOM      9  C   UNL     1       0.634  11.041  19.889  0.00  0.00    +0.000 C 
ATOM     10  N   UNL     1       0.269  12.138  19.951  0.00  0.00    +0.000 NA
ENDBRANCH   6   9
BRANCH   7  11
ATOM     11  O   UNL     1       1.693   9.928  17.429  0.00  0.00    +0.000 OA
ATOM     12  H   UNL     1       1.194   9.491  16.721  0.00  0.00    +0.000 HD
ENDBRANCH   7  11
ENDBRANCH   1   3
BRANCH   1  13
ATOM     13  O   UNL     1       4.122   5.790  19.553  0.00  0.00    +0.000 OA
BRANCH  13  17
ATOM     14  C   UNL     1       6.678   5.171  16.307  0.00  0.00    +0.000 A 
ATOM     15  C   UNL     1       7.086   4.941  17.621  0.00  0.00    +0.000 A 
ATOM     16  C   UNL     1       6.203   5.161  18.684  0.00  0.00    +0.000 A 
ATOM     17  C   UNL     1       4.920   5.662  18.451  0.00  0.00    +0.000 A 
ATOM     18  C   UNL     1       4.532   5.929  17.140  0.00  0.00    +0.000 A 
ATOM     19  C   UNL     1       5.400   5.674  16.073  0.00  0.00    +0.000 A 
BRANCH  14  21
ATOM     20  C   UNL     1       7.085   4.694  14.029  0.00  0.00    +0.000 C 
ATOM     21  O   UNL     1       7.607   4.910  15.338  0.00  0.00    +0.000 OA
ENDBRANCH  14  21
ENDBRANCH  13  17
ENDBRANCH   1  13
TORSDOF 6
ENDMDL
MODEL 9
REMARK VINA RESULT:      -6.8      2.609      3.671
REMARK  Name = 
REMARK  8 active torsions:
REMARK  status: ('A' for Active; 'I' for Inactive)
REMARK    1  A    between atoms: C_1  and  O_2
REMARK    2  A    between atoms: O_2  and  C_3
REMARK    3  A    between atoms: C_6  and  O_7
REMARK    4  A    between atoms: O_7  and  C_8
REMARK    5  A    between atoms: C_8  and  C_9
REMARK    6  A    between atoms: C_8  and  C_10
REMARK    7  A    between atoms: C_13  and  C_14
REMARK    8  A    between atoms: C_16  and  O_17
REMARK                            x       y       z     vdW  Elec       q    Type
REMARK                         _______ _______ _______ _____ _____    ______ ____
ROOT
ATOM      1  C   UNL     1       4.331   4.458  18.988  0.00  0.00    +0.000 C 
ATOM      2  C   UNL     1       4.501   3.016  19.471  0.00  0.00    +0.000 C 
ENDROOT
BRANCH   1   3
ATOM      3  C   UNL     1       5.155   4.640  17.712  0.00  0.00    +0.000 A 
ATOM      4  C   UNL     1       4.987   3.790  16.618  0.00  0.00    +0.000 A 
ATOM      5  C   UNL     1       5.742   4.005  15.465  0.00  0.00    +0.000 A 
ATOM      6  C   UNL     1       6.666   5.046  15.433  0.00  0.00    +0.000 A 
ATOM      7  C   UNL     1       6.811   5.819  16.579  0.00  0.00    +0.000 A 
ATOM      8  N   UNL     1       6.080   5.637  17.700  0.00  0.00    +0.000 NA
BRANCH   6   9
ATOM      9  C   UNL     1       7.425   5.296  14.248  0.00  0.00    +0.000 C 
ATOM     10  N   UNL     1       8.013   5.478  13.267  0.00  0.00    +0.000 NA
ENDBRANCH   6   9
BRANCH   7  11
ATOM     11  O   UNL     1       7.711   6.842  16.686  0.00  0.00    +0.000 OA
ATOM     12  H   UNL     1       8.196   6.964  15.855  0.00  0.00    +0.000 HD
ENDBRANCH   7  11
ENDBRANCH   1   3
BRANCH   1  13
ATOM     13  O   UNL     1       2.951   4.749  18.693  0.00  0.00    +0.000 OA
BRANCH  13  17
ATOM     14  C   UNL     1       1.563   8.476  19.970  0.00  0.00    +0.000 A 
ATOM     15  C   UNL     1       1.504   7.348  20.788  0.00  0.00    +0.000 A 
ATOM     16  C   UNL     1       1.977   6.114  20.327  0.00  0.00    +0.000 A 
ATOM     17  C   UNL     1       2.466   5.983  19.024  0.00  0.00    +0.000 A 
ATOM     18  C   UNL     1       2.484   7.104  18.198  0.00  0.00    +0.000 A 
ATOM     19  C   UNL     1       2.047   8.346  18.671  0.00  0.00    +0.000 A 
BRANCH  14  21
ATOM     20  C   UNL     1       0.675   9.549  21.878  0.00  0.00    +0.000 C 
ATOM     21  O   UNL     1       1.092   9.637  20.518  0.00  0.00    +0.000 OA
ENDBRANCH  14  21
ENDBRANCH  13  17
ENDBRANCH   1  13
TORSDOF 6
ENDMDL
