MODEL 1
REMARK VINA RESULT:      -8.3      0.000      0.000
REMARK  Name = 
REMARK  7 active torsions:
REMARK  status: ('A' for Active; 'I' for Inactive)
REMARK    1  A    between atoms: C_1  and  O_2
REMARK    2  A    between atoms: O_2  and  C_3
REMARK    3  A    between atoms: C_8  and  O_9
REMARK    4  A    between atoms: O_9  and  C_10
REMARK    5  A    between atoms: C_14  and  C_15
REMARK    6  A    between atoms: N_18  and  C_19
REMARK    7  A    between atoms: C_19  and  C_20
REMARK                            x       y       z     vdW  Elec       q    Type
REMARK                         _______ _______ _______ _____ _____    ______ ____
ROOT
ATOM      1  C   UNL     1      -3.872  10.662  15.847  0.00  0.00    +0.000 A 
ATOM      2  C   UNL     1      -2.633  10.030  16.000  0.00  0.00    +0.000 A 
ATOM      3  C   UNL     1      -1.931  10.232  17.173  0.00  0.00    +0.000 A 
ATOM      4  C   UNL     1      -2.426  11.077  18.160  0.00  0.00    +0.000 A 
ATOM      5  C   UNL     1      -3.627  11.752  18.024  0.00  0.00    +0.000 A 
ATOM      6  C   UNL     1      -4.364  11.543  16.849  0.00  0.00    +0.000 A 
ATOM      7  C   UNL     1      -1.492  11.080  19.297  0.00  0.00    +0.000 C 
ATOM      8  O   UNL     1      -1.608  11.706  20.329  0.00  0.00    +0.000 OA
ATOM      9  C   UNL     1      -0.383  10.133  18.950  0.00  0.00    +0.000 C 
ATOM     10  C   UNL     1       0.602   9.811  19.802  0.00  0.00    +0.000 C 
ATOM     11  C   UNL     1      -0.632   9.610  17.558  0.00  0.00    +0.000 C 
ENDROOT
BRANCH  10  12
ATOM     12  C   UNL     1       1.607   8.816  19.425  0.00  0.00    +0.000 A 
ATOM     13  C   UNL     1       2.263   8.897  18.201  0.00  0.00    +0.000 A 
ATOM     14  C   UNL     1       3.043   7.829  17.772  0.00  0.00    +0.000 A 
ATOM     15  N   UNL     1       3.165   6.714  18.531  0.00  0.00    +0.000 N 
ATOM     16  C   UNL     1       2.610   6.659  19.765  0.00  0.00    +0.000 A 
ATOM     17  C   UNL     1       1.815   7.700  20.231  0.00  0.00    +0.000 A 
BRANCH  15  18
ATOM     18  C   UNL     1       3.825   5.507  17.966  0.00  0.00    +0.000 C 
BRANCH  18  19
ATOM     19  C   UNL     1       3.194   4.246  18.470  0.00  0.00    +0.000 A 
ATOM     20  C   UNL     1       3.886   3.354  19.299  0.00  0.00    +0.000 A 
ATOM     21  C   UNL     1       3.276   2.166  19.709  0.00  0.00    +0.000 A 
ATOM     22  C   UNL     1       1.976   1.865  19.302  0.00  0.00    +0.000 A 
ATOM     23  C   UNL     1       1.271   2.758  18.499  0.00  0.00    +0.000 A 
ATOM     24  C   UNL     1       1.885   3.936  18.094  0.00  0.00    +0.000 A 
ATOM     25  F   UNL     1       1.208   4.793  17.316  0.00  0.00    +0.000 F 
ENDBRANCH  18  19
ENDBRANCH  15  18
ENDBRANCH  10  12
BRANCH   1  27
ATOM     26  C   UNL     1      -3.937  10.055  13.561  0.00  0.00    +0.000 C 
ATOM     27  O   UNL     1      -4.645  10.482  14.723  0.00  0.00    +0.000 OA
ENDBRANCH   1  27
BRANCH   6  28
ATOM     28  O   UNL     1      -5.577  12.131  16.587  0.00  0.00    +0.000 OA
ATOM     29  C   UNL     1      -6.171  12.906  17.622  0.00  0.00    +0.000 C 
ENDBRANCH   6  28
TORSDOF 5
ENDMDL
MODEL 2
REMARK VINA RESULT:      -8.2      4.386      9.395
REMARK  Name = 
REMARK  7 active torsions:
REMARK  status: ('A' for Active; 'I' for Inactive)
REMARK    1  A    between atoms: C_1  and  O_2
REMARK    2  A    between atoms: O_2  and  C_3
REMARK    3  A    between atoms: C_8  and  O_9
REMARK    4  A    between atoms: O_9  and  C_10
REMARK    5  A    between atoms: C_14  and  C_15
REMARK    6  A    between atoms: N_18  and  C_19
REMARK    7  A    between atoms: C_19  and  C_20
REMARK                            x       y       z     vdW  Elec       q    Type
REMARK                         _______ _______ _______ _____ _____    ______ ____
ROOT
ATOM      1  C   UNL     1       2.825   4.134  20.365  0.00  0.00    +0.000 A 
ATOM      2  C   UNL     1       2.260   5.390  20.616  0.00  0.00    +0.000 A 
ATOM      3  C   UNL     1       2.414   6.384  19.669  0.00  0.00    +0.000 A 
ATOM      4  C   UNL     1       3.149   6.152  18.511  0.00  0.00    +0.000 A 
ATOM      5  C   UNL     1       3.758   4.937  18.250  0.00  0.00    +0.000 A 
ATOM      6  C   UNL     1       3.595   3.909  19.191  0.00  0.00    +0.000 A 
ATOM      7  C   UNL     1       3.122   7.366  17.680  0.00  0.00    +0.000 C 
ATOM      8  O   UNL     1       3.660   7.519  16.604  0.00  0.00    +0.000 OA
ATOM      9  C   UNL     1       2.275   8.368  18.403  0.00  0.00    +0.000 C 
ATOM     10  C   UNL     1       1.949   9.564  17.887  0.00  0.00    +0.000 C 
ATOM     11  C   UNL     1       1.845   7.761  19.714  0.00  0.00    +0.000 C 
ENDROOT
BRANCH  10  12
ATOM     12  C   UNL     1       1.050  10.460  18.615  0.00  0.00    +0.000 A 
ATOM     13  C   UNL     1      -0.330  10.349  18.474  0.00  0.00    +0.000 A 
ATOM     14  C   UNL     1      -1.151  11.344  18.996  0.00  0.00    +0.000 A 
ATOM     15  N   UNL     1      -0.620  12.415  19.632  0.00  0.00    +0.000 N 
ATOM     16  C   UNL     1       0.712  12.489  19.858  0.00  0.00    +0.000 A 
ATOM     17  C   UNL     1       1.572  11.522  19.348  0.00  0.00    +0.000 A 
BRANCH  15  18
ATOM     18  C   UNL     1      -1.493  13.564  19.993  0.00  0.00    +0.000 C 
BRANCH  18  19
ATOM     19  C   UNL     1      -2.421  13.221  21.116  0.00  0.00    +0.000 A 
ATOM     20  C   UNL     1      -3.786  12.993  20.903  0.00  0.00    +0.000 A 
ATOM     21  C   UNL     1      -4.626  12.721  21.986  0.00  0.00    +0.000 A 
ATOM     22  C   UNL     1      -4.110  12.668  23.282  0.00  0.00    +0.000 A 
ATOM     23  C   UNL     1      -2.749  12.867  23.500  0.00  0.00    +0.000 A 
ATOM     24  C   UNL     1      -1.921  13.139  22.418  0.00  0.00    +0.000 A 
ATOM     25  F   UNL     1      -0.612  13.338  22.630  0.00  0.00    +0.000 F 
ENDBRANCH  18  19
ENDBRANCH  15  18
ENDBRANCH  10  12
BRANCH   1  27
ATOM     26  C   UNL     1       1.340   2.699  21.521  0.00  0.00    +0.000 C 
ATOM     27  O   UNL     1       2.684   3.086  21.245  0.00  0.00    +0.000 OA
ENDBRANCH   1  27
BRANCH   6  28
ATOM     28  O   UNL     1       4.126   2.650  19.055  0.00  0.00    +0.000 OA
ATOM     29  C   UNL     1       3.469   1.750  18.171  0.00  0.00    +0.000 C 
ENDBRANCH   6  28
TORSDOF 5
ENDMDL
MODEL 3
REMARK VINA RESULT:      -8.2      4.391      9.409
REMARK  Name = 
REMARK  7 active torsions:
REMARK  status: ('A' for Active; 'I' for Inactive)
REMARK    1  A    between atoms: C_1  and  O_2
REMARK    2  A    between atoms: O_2  and  C_3
REMARK    3  A    between atoms: C_8  and  O_9
REMARK    4  A    between atoms: O_9  and  C_10
REMARK    5  A    between atoms: C_14  and  C_15
REMARK    6  A    between atoms: N_18  and  C_19
REMARK    7  A    between atoms: C_19  and  C_20
REMARK                            x       y       z     vdW  Elec       q    Type
REMARK                         _______ _______ _______ _____ _____    ______ ____
ROOT
ATOM      1  C   UNL     1       2.842   3.799  20.557  0.00  0.00    +0.000 A 
ATOM      2  C   UNL     1       2.242   5.052  20.731  0.00  0.00    +0.000 A 
ATOM      3  C   UNL     1       2.455   6.024  19.773  0.00  0.00    +0.000 A 
ATOM      4  C   UNL     1       3.280   5.775  18.681  0.00  0.00    +0.000 A 
ATOM      5  C   UNL     1       3.924   4.563  18.500  0.00  0.00    +0.000 A 
ATOM      6  C   UNL     1       3.703   3.557  19.452  0.00  0.00    +0.000 A 
ATOM      7  C   UNL     1       3.300   6.966  17.818  0.00  0.00    +0.000 C 
ATOM      8  O   UNL     1       3.917   7.101  16.783  0.00  0.00    +0.000 OA
ATOM      9  C   UNL     1       2.386   7.973  18.448  0.00  0.00    +0.000 C 
ATOM     10  C   UNL     1       2.084   9.150  17.877  0.00  0.00    +0.000 C 
ATOM     11  C   UNL     1       1.865   7.393  19.738  0.00  0.00    +0.000 C 
ENDROOT
BRANCH  10  12
ATOM     12  C   UNL     1       1.119  10.050  18.510  0.00  0.00    +0.000 A 
ATOM     13  C   UNL     1      -0.223  10.019  18.148  0.00  0.00    +0.000 A 
ATOM     14  C   UNL     1      -1.074  11.025  18.597  0.00  0.00    +0.000 A 
ATOM     15  N   UNL     1      -0.607  12.030  19.375  0.00  0.00    +0.000 N 
ATOM     16  C   UNL     1       0.674  12.021  19.811  0.00  0.00    +0.000 A 
ATOM     17  C   UNL     1       1.563  11.040  19.382  0.00  0.00    +0.000 A 
BRANCH  15  18
ATOM     18  C   UNL     1      -1.476  13.201  19.666  0.00  0.00    +0.000 C 
BRANCH  18  19
ATOM     19  C   UNL     1      -2.015  13.154  21.062  0.00  0.00    +0.000 A 
ATOM     20  C   UNL     1      -1.235  13.515  22.167  0.00  0.00    +0.000 A 
ATOM     21  C   UNL     1      -1.762  13.413  23.457  0.00  0.00    +0.000 A 
ATOM     22  C   UNL     1      -3.067  12.960  23.651  0.00  0.00    +0.000 A 
ATOM     23  C   UNL     1      -3.859  12.624  22.556  0.00  0.00    +0.000 A 
ATOM     24  C   UNL     1      -3.327  12.726  21.277  0.00  0.00    +0.000 A 
ATOM     25  F   UNL     1      -4.088  12.396  20.224  0.00  0.00    +0.000 F 
ENDBRANCH  18  19
ENDBRANCH  15  18
ENDBRANCH  10  12
BRANCH   1  27
ATOM     26  C   UNL     1       1.298   2.566  21.860  0.00  0.00    +0.000 C 
ATOM     27  O   UNL     1       2.649   2.771  21.452  0.00  0.00    +0.000 OA
ENDBRANCH   1  27
BRANCH   6  28
ATOM     28  O   UNL     1       4.261   2.303  19.390  0.00  0.00    +0.000 OA
ATOM     29  C   UNL     1       3.707   1.381  18.459  0.00  0.00    +0.000 C 
ENDBRANCH   6  28
TORSDOF 5
ENDMDL
MODEL 4
REMARK VINA RESULT:      -8.2      1.540      2.266
REMARK  Name = 
REMARK  7 active torsions:
REMARK  status: ('A' for Active; 'I' for Inactive)
REMARK    1  A    between atoms: C_1  and  O_2
REMARK    2  A    between atoms: O_2  and  C_3
REMARK    3  A    between atoms: C_8  and  O_9
REMARK    4  A    between atoms: O_9  and  C_10
REMARK    5  A    between atoms: C_14  and  C_15
REMARK    6  A    between atoms: N_18  and  C_19
REMARK    7  A    between atoms: C_19  and  C_20
REMARK                            x       y       z     vdW  Elec       q    Type
REMARK                         _______ _______ _______ _____ _____    ______ ____
ROOT
ATOM      1  C   UNL     1      -3.466  10.533  16.003  0.00  0.00    +0.000 A 
ATOM      2  C   UNL     1      -2.319   9.760  16.219  0.00  0.00    +0.000 A 
ATOM      3  C   UNL     1      -1.612   9.943  17.391  0.00  0.00    +0.000 A 
ATOM      4  C   UNL     1      -2.009  10.903  18.316  0.00  0.00    +0.000 A 
ATOM      5  C   UNL     1      -3.111  11.716  18.115  0.00  0.00    +0.000 A 
ATOM      6  C   UNL     1      -3.854  11.530  16.939  0.00  0.00    +0.000 A 
ATOM      7  C   UNL     1      -1.097  10.859  19.470  0.00  0.00    +0.000 C 
ATOM      8  O   UNL     1      -1.144  11.558  20.459  0.00  0.00    +0.000 OA
ATOM      9  C   UNL     1      -0.113   9.759  19.203  0.00  0.00    +0.000 C 
ATOM     10  C   UNL     1       0.812   9.369  20.093  0.00  0.00    +0.000 C 
ATOM     11  C   UNL     1      -0.408   9.186  17.840  0.00  0.00    +0.000 C 
ENDROOT
BRANCH  10  12
ATOM     12  C   UNL     1       1.686   8.233  19.797  0.00  0.00    +0.000 A 
ATOM     13  C   UNL     1       2.313   8.123  18.560  0.00  0.00    +0.000 A 
ATOM     14  C   UNL     1       2.955   6.935  18.224  0.00  0.00    +0.000 A 
ATOM     15  N   UNL     1       2.970   5.890  19.085  0.00  0.00    +0.000 N 
ATOM     16  C   UNL     1       2.446   6.015  20.326  0.00  0.00    +0.000 A 
ATOM     17  C   UNL     1       1.788   7.181  20.703  0.00  0.00    +0.000 A 
BRANCH  15  18
ATOM     18  C   UNL     1       3.472   4.567  18.628  0.00  0.00    +0.000 C 
BRANCH  18  19
ATOM     19  C   UNL     1       4.875   4.656  18.114  0.00  0.00    +0.000 A 
ATOM     20  C   UNL     1       5.935   5.074  18.929  0.00  0.00    +0.000 A 
ATOM     21  C   UNL     1       7.222   5.187  18.397  0.00  0.00    +0.000 A 
ATOM     22  C   UNL     1       7.460   4.880  17.057  0.00  0.00    +0.000 A 
ATOM     23  C   UNL     1       6.418   4.439  16.246  0.00  0.00    +0.000 A 
ATOM     24  C   UNL     1       5.141   4.330  16.782  0.00  0.00    +0.000 A 
ATOM     25  F   UNL     1       4.136   3.911  15.999  0.00  0.00    +0.000 F 
ENDBRANCH  18  19
ENDBRANCH  15  18
ENDBRANCH  10  12
BRANCH   1  27
ATOM     26  C   UNL     1      -3.532  10.004  13.697  0.00  0.00    +0.000 C 
ATOM     27  O   UNL     1      -4.240  10.382  14.875  0.00  0.00    +0.000 OA
ENDBRANCH   1  27
BRANCH   6  28
ATOM     28  O   UNL     1      -4.979  12.249  16.617  0.00  0.00    +0.000 OA
ATOM     29  C   UNL     1      -6.009  12.334  17.595  0.00  0.00    +0.000 C 
ENDBRANCH   6  28
TORSDOF 5
ENDMDL
MODEL 5
REMARK VINA RESULT:      -8.1      3.098      4.520
REMARK  Name = 
REMARK  7 active torsions:
REMARK  status: ('A' for Active; 'I' for Inactive)
REMARK    1  A    between atoms: C_1  and  O_2
REMARK    2  A    between atoms: O_2  and  C_3
REMARK    3  A    between atoms: C_8  and  O_9
REMARK    4  A    between atoms: O_9  and  C_10
REMARK    5  A    between atoms: C_14  and  C_15
REMARK    6  A    between atoms: N_18  and  C_19
REMARK    7  A    between atoms: C_19  and  C_20
REMARK                            x       y       z     vdW  Elec       q    Type
REMARK                         _______ _______ _______ _____ _____    ______ ____
ROOT
ATOM      1  C   UNL     1      -2.508  12.631  20.832  0.00  0.00    +0.000 A 
ATOM      2  C   UNL     1      -1.737  11.687  20.145  0.00  0.00    +0.000 A 
ATOM      3  C   UNL     1      -0.918  10.847  20.874  0.00  0.00    +0.000 A 
ATOM      4  C   UNL     1      -0.832  10.967  22.257  0.00  0.00    +0.000 A 
ATOM      5  C   UNL     1      -1.545  11.918  22.966  0.00  0.00    +0.000 A 
ATOM      6  C   UNL     1      -2.398  12.766  22.243  0.00  0.00    +0.000 A 
ATOM      7  C   UNL     1       0.085   9.935  22.768  0.00  0.00    +0.000 C 
ATOM      8  O   UNL     1       0.396   9.750  23.925  0.00  0.00    +0.000 OA
ATOM      9  C   UNL     1       0.539   9.134  21.585  0.00  0.00    +0.000 C 
ATOM     10  C   UNL     1       1.311   8.041  21.690  0.00  0.00    +0.000 C 
ATOM     11  C   UNL     1      -0.069   9.741  20.346  0.00  0.00    +0.000 C 
ENDROOT
BRANCH  10  12
ATOM     12  C   UNL     1       1.648   7.261  20.499  0.00  0.00    +0.000 A 
ATOM     13  C   UNL     1       1.621   5.870  20.530  0.00  0.00    +0.000 A 
ATOM     14  C   UNL     1       2.154   5.153  19.464  0.00  0.00    +0.000 A 
ATOM     15  N   UNL     1       2.701   5.795  18.404  0.00  0.00    +0.000 N 
ATOM     16  C   UNL     1       2.649   7.145  18.317  0.00  0.00    +0.000 A 
ATOM     17  C   UNL     1       2.132   7.903  19.362  0.00  0.00    +0.000 A 
BRANCH  15  18
ATOM     18  C   UNL     1       3.451   5.019  17.380  0.00  0.00    +0.000 C 
BRANCH  18  19
ATOM     19  C   UNL     1       4.919   4.995  17.672  0.00  0.00    +0.000 A 
ATOM     20  C   UNL     1       5.431   5.389  18.914  0.00  0.00    +0.000 A 
ATOM     21  C   UNL     1       6.812   5.396  19.130  0.00  0.00    +0.000 A 
ATOM     22  C   UNL     1       7.685   5.003  18.115  0.00  0.00    +0.000 A 
ATOM     23  C   UNL     1       7.183   4.584  16.886  0.00  0.00    +0.000 A 
ATOM     24  C   UNL     1       5.810   4.583  16.678  0.00  0.00    +0.000 A 
ATOM     25  F   UNL     1       5.328   4.186  15.492  0.00  0.00    +0.000 F 
ENDBRANCH  18  19
ENDBRANCH  15  18
ENDBRANCH  10  12
BRANCH   1  27
ATOM     26  C   UNL     1      -4.645  12.921  19.857  0.00  0.00    +0.000 C 
ATOM     27  O   UNL     1      -3.372  13.478  20.177  0.00  0.00    +0.000 OA
ENDBRANCH   1  27
BRANCH   6  28
ATOM     28  O   UNL     1      -3.178  13.741  22.815  0.00  0.00    +0.000 OA
ATOM     29  C   UNL     1      -2.736  14.302  24.045  0.00  0.00    +0.000 C 
ENDBRANCH   6  28
TORSDOF 5
ENDMDL
MODEL 6
REMARK VINA RESULT:      -8.1      1.707      2.630
REMARK  Name = 
REMARK  7 active torsions:
REMARK  status: ('A' for Active; 'I' for Inactive)
REMARK    1  A    between atoms: C_1  and  O_2
REMARK    2  A    between atoms: O_2  and  C_3
REMARK    3  A    between atoms: C_8  and  O_9
REMARK    4  A    between atoms: O_9  and  C_10
REMARK    5  A    between atoms: C_14  and  C_15
REMARK    6  A    between atoms: N_18  and  C_19
REMARK    7  A    between atoms: C_19  and  C_20
REMARK                            x       y       z     vdW  Elec       q    Type
REMARK                         _______ _______ _______ _____ _____    ______ ____
ROOT
ATOM      1  C   UNL     1      -3.580  10.668  16.105  0.00  0.00    +0.000 A 
ATOM      2  C   UNL     1      -2.405   9.925  16.263  0.00  0.00    +0.000 A 
ATOM      3  C   UNL     1      -1.688  10.065  17.435  0.00  0.00    +0.000 A 
ATOM      4  C   UNL     1      -2.104  10.957  18.418  0.00  0.00    +0.000 A 
ATOM      5  C   UNL     1      -3.236  11.741  18.277  0.00  0.00    +0.000 A 
ATOM      6  C   UNL     1      -3.988  11.596  17.102  0.00  0.00    +0.000 A 
ATOM      7  C   UNL     1      -1.175  10.878  19.557  0.00  0.00    +0.000 C 
ATOM      8  O   UNL     1      -1.233  11.518  20.585  0.00  0.00    +0.000 OA
ATOM      9  C   UNL     1      -0.159   9.831  19.215  0.00  0.00    +0.000 C 
ATOM     10  C   UNL     1       0.792   9.422  20.071  0.00  0.00    +0.000 C 
ATOM     11  C   UNL     1      -0.453   9.327  17.825  0.00  0.00    +0.000 C 
ENDROOT
BRANCH  10  12
ATOM     12  C   UNL     1       1.699   8.337  19.700  0.00  0.00    +0.000 A 
ATOM     13  C   UNL     1       2.322   8.325  18.456  0.00  0.00    +0.000 A 
ATOM     14  C   UNL     1       2.999   7.182  18.042  0.00  0.00    +0.000 A 
ATOM     15  N   UNL     1       3.053   6.085  18.835  0.00  0.00    +0.000 N 
ATOM     16  C   UNL     1       2.533   6.115  20.084  0.00  0.00    +0.000 A 
ATOM     17  C   UNL     1       1.840   7.233  20.537  0.00  0.00    +0.000 A 
BRANCH  15  18
ATOM     18  C   UNL     1       3.594   4.811  18.293  0.00  0.00    +0.000 C 
BRANCH  18  19
ATOM     19  C   UNL     1       4.865   5.029  17.534  0.00  0.00    +0.000 A 
ATOM     20  C   UNL     1       4.921   4.915  16.139  0.00  0.00    +0.000 A 
ATOM     21  C   UNL     1       6.138   5.082  15.473  0.00  0.00    +0.000 A 
ATOM     22  C   UNL     1       7.300   5.369  16.190  0.00  0.00    +0.000 A 
ATOM     23  C   UNL     1       7.249   5.511  17.574  0.00  0.00    +0.000 A 
ATOM     24  C   UNL     1       6.036   5.342  18.229  0.00  0.00    +0.000 A 
ATOM     25  F   UNL     1       5.988   5.471  19.563  0.00  0.00    +0.000 F 
ENDBRANCH  18  19
ENDBRANCH  15  18
ENDBRANCH  10  12
BRANCH   1  27
ATOM     26  C   UNL     1      -3.727   9.961  13.851  0.00  0.00    +0.000 C 
ATOM     27  O   UNL     1      -4.364  10.556  14.980  0.00  0.00    +0.000 OA
ENDBRANCH   1  27
BRANCH   6  28
ATOM     28  O   UNL     1      -5.141  12.294  16.835  0.00  0.00    +0.000 OA
ATOM     29  C   UNL     1      -6.067  12.468  17.901  0.00  0.00    +0.000 C 
ENDBRANCH   6  28
TORSDOF 5
ENDMDL
MODEL 7
REMARK VINA RESULT:      -8.1      4.203      5.538
REMARK  Name = 
REMARK  7 active torsions:
REMARK  status: ('A' for Active; 'I' for Inactive)
REMARK    1  A    between atoms: C_1  and  O_2
REMARK    2  A    between atoms: O_2  and  C_3
REMARK    3  A    between atoms: C_8  and  O_9
REMARK    4  A    between atoms: O_9  and  C_10
REMARK    5  A    between atoms: C_14  and  C_15
REMARK    6  A    between atoms: N_18  and  C_19
REMARK    7  A    between atoms: C_19  and  C_20
REMARK                            x       y       z     vdW  Elec       q    Type
REMARK                         _______ _______ _______ _____ _____    ______ ____
ROOT
ATOM      1  C   UNL     1       3.041  16.047  18.313  0.00  0.00    +0.000 A 
ATOM      2  C   UNL     1       3.134  14.670  18.540  0.00  0.00    +0.000 A 
ATOM      3  C   UNL     1       1.990  13.981  18.893  0.00  0.00    +0.000 A 
ATOM      4  C   UNL     1       0.782  14.650  19.058  0.00  0.00    +0.000 A 
ATOM      5  C   UNL     1       0.662  16.018  18.885  0.00  0.00    +0.000 A 
ATOM      6  C   UNL     1       1.810  16.731  18.506  0.00  0.00    +0.000 A 
ATOM      7  C   UNL     1      -0.261  13.672  19.403  0.00  0.00    +0.000 C 
ATOM      8  O   UNL     1      -1.431  13.905  19.620  0.00  0.00    +0.000 OA
ATOM      9  C   UNL     1       0.393  12.323  19.405  0.00  0.00    +0.000 C 
ATOM     10  C   UNL     1      -0.284  11.178  19.585  0.00  0.00    +0.000 C 
ATOM     11  C   UNL     1       1.861  12.513  19.119  0.00  0.00    +0.000 C 
ENDROOT
BRANCH  10  12
ATOM     12  C   UNL     1       0.407   9.892  19.492  0.00  0.00    +0.000 A 
ATOM     13  C   UNL     1       0.648   9.131  20.631  0.00  0.00    +0.000 A 
ATOM     14  C   UNL     1       1.493   8.029  20.550  0.00  0.00    +0.000 A 
ATOM     15  N   UNL     1       2.084   7.696  19.378  0.00  0.00    +0.000 N 
ATOM     16  C   UNL     1       1.785   8.370  18.243  0.00  0.00    +0.000 A 
ATOM     17  C   UNL     1       0.952   9.482  18.278  0.00  0.00    +0.000 A 
BRANCH  15  18
ATOM     18  C   UNL     1       3.143   6.652  19.357  0.00  0.00    +0.000 C 
BRANCH  18  19
ATOM     19  C   UNL     1       2.571   5.291  19.112  0.00  0.00    +0.000 A 
ATOM     20  C   UNL     1       2.401   4.783  17.819  0.00  0.00    +0.000 A 
ATOM     21  C   UNL     1       1.820   3.526  17.632  0.00  0.00    +0.000 A 
ATOM     22  C   UNL     1       1.414   2.767  18.731  0.00  0.00    +0.000 A 
ATOM     23  C   UNL     1       1.604   3.253  20.023  0.00  0.00    +0.000 A 
ATOM     24  C   UNL     1       2.180   4.504  20.199  0.00  0.00    +0.000 A 
ATOM     25  F   UNL     1       2.356   4.974  21.443  0.00  0.00    +0.000 F 
ENDBRANCH  18  19
ENDBRANCH  15  18
ENDBRANCH  10  12
BRANCH   1  27
ATOM     26  C   UNL     1       5.234  16.774  18.828  0.00  0.00    +0.000 C 
ATOM     27  O   UNL     1       4.131  16.794  17.925  0.00  0.00    +0.000 OA
ENDBRANCH   1  27
BRANCH   6  28
ATOM     28  O   UNL     1       1.835  18.086  18.281  0.00  0.00    +0.000 OA
ATOM     29  C   UNL     1       0.837  18.630  17.426  0.00  0.00    +0.000 C 
ENDBRANCH   6  28
TORSDOF 5
ENDMDL
MODEL 8
REMARK VINA RESULT:      -8.1      4.153      5.467
REMARK  Name = 
REMARK  7 active torsions:
REMARK  status: ('A' for Active; 'I' for Inactive)
REMARK    1  A    between atoms: C_1  and  O_2
REMARK    2  A    between atoms: O_2  and  C_3
REMARK    3  A    between atoms: C_8  and  O_9
REMARK    4  A    between atoms: O_9  and  C_10
REMARK    5  A    between atoms: C_14  and  C_15
REMARK    6  A    between atoms: N_18  and  C_19
REMARK    7  A    between atoms: C_19  and  C_20
REMARK                            x       y       z     vdW  Elec       q    Type
REMARK                         _______ _______ _______ _____ _____    ______ ____
ROOT
ATOM      1  C   UNL     1       3.059  16.041  18.229  0.00  0.00    +0.000 A 
ATOM      2  C   UNL     1       3.175  14.660  18.422  0.00  0.00    +0.000 A 
ATOM      3  C   UNL     1       2.044  13.944  18.762  0.00  0.00    +0.000 A 
ATOM      4  C   UNL     1       0.826  14.590  18.949  0.00  0.00    +0.000 A 
ATOM      5  C   UNL     1       0.684  15.960  18.810  0.00  0.00    +0.000 A 
ATOM      6  C   UNL     1       1.818  16.700  18.444  0.00  0.00    +0.000 A 
ATOM      7  C   UNL     1      -0.200  13.587  19.274  0.00  0.00    +0.000 C 
ATOM      8  O   UNL     1      -1.372  13.796  19.501  0.00  0.00    +0.000 OA
ATOM      9  C   UNL     1       0.476  12.249  19.240  0.00  0.00    +0.000 C 
ATOM     10  C   UNL     1      -0.182  11.089  19.394  0.00  0.00    +0.000 C 
ATOM     11  C   UNL     1       1.939  12.469  18.953  0.00  0.00    +0.000 C 
ENDROOT
BRANCH  10  12
ATOM     12  C   UNL     1       0.529   9.817  19.267  0.00  0.00    +0.000 A 
ATOM     13  C   UNL     1       0.820   9.050  20.390  0.00  0.00    +0.000 A 
ATOM     14  C   UNL     1       1.682   7.965  20.272  0.00  0.00    +0.000 A 
ATOM     15  N   UNL     1       2.242   7.654  19.078  0.00  0.00    +0.000 N 
ATOM     16  C   UNL     1       1.894   8.333  17.959  0.00  0.00    +0.000 A 
ATOM     17  C   UNL     1       1.042   9.429  18.032  0.00  0.00    +0.000 A 
BRANCH  15  18
ATOM     18  C   UNL     1       3.318   6.630  19.013  0.00  0.00    +0.000 C 
BRANCH  18  19
ATOM     19  C   UNL     1       2.769   5.269  18.719  0.00  0.00    +0.000 A 
ATOM     20  C   UNL     1       1.851   4.643  19.571  0.00  0.00    +0.000 A 
ATOM     21  C   UNL     1       1.398   3.353  19.283  0.00  0.00    +0.000 A 
ATOM     22  C   UNL     1       1.850   2.685  18.144  0.00  0.00    +0.000 A 
ATOM     23  C   UNL     1       2.742   3.311  17.277  0.00  0.00    +0.000 A 
ATOM     24  C   UNL     1       3.190   4.592  17.571  0.00  0.00    +0.000 A 
ATOM     25  F   UNL     1       4.054   5.191  16.740  0.00  0.00    +0.000 F 
ENDBRANCH  18  19
ENDBRANCH  15  18
ENDBRANCH  10  12
BRANCH   1  27
ATOM     26  C   UNL     1       5.284  16.702  18.691  0.00  0.00    +0.000 C 
ATOM     27  O   UNL     1       4.134  16.815  17.855  0.00  0.00    +0.000 OA
ENDBRANCH   1  27
BRANCH   6  28
ATOM     28  O   UNL     1       1.820  18.060  18.252  0.00  0.00    +0.000 OA
ATOM     29  C   UNL     1       1.049  18.575  17.173  0.00  0.00    +0.000 C 
ENDBRANCH   6  28
TORSDOF 5
ENDMDL
MODEL 9
REMARK VINA RESULT:      -8.0      3.732      5.118
REMARK  Name = 
REMARK  7 active torsions:
REMARK  status: ('A' for Active; 'I' for Inactive)
REMARK    1  A    between atoms: C_1  and  O_2
REMARK    2  A    between atoms: O_2  and  C_3
REMARK    3  A    between atoms: C_8  and  O_9
REMARK    4  A    between atoms: O_9  and  C_10
REMARK    5  A    between atoms: C_14  and  C_15
REMARK    6  A    between atoms: N_18  and  C_19
REMARK    7  A    between atoms: C_19  and  C_20
REMARK                            x       y       z     vdW  Elec       q    Type
REMARK                         _______ _______ _______ _____ _____    ______ ____
ROOT
ATOM      1  C   UNL     1       2.007  15.954  19.708  0.00  0.00    +0.000 A 
ATOM      2  C   UNL     1       2.389  14.620  19.894  0.00  0.00    +0.000 A 
ATOM      3  C   UNL     1       1.537  13.624  19.458  0.00  0.00    +0.000 A 
ATOM      4  C   UNL     1       0.310  13.940  18.886  0.00  0.00    +0.000 A 
ATOM      5  C   UNL     1      -0.120  15.246  18.726  0.00  0.00    +0.000 A 
ATOM      6  C   UNL     1       0.741  16.272  19.144  0.00  0.00    +0.000 A 
ATOM      7  C   UNL     1      -0.368  12.694  18.494  0.00  0.00    +0.000 C 
ATOM      8  O   UNL     1      -1.457  12.595  17.969  0.00  0.00    +0.000 OA
ATOM      9  C   UNL     1       0.559  11.569  18.840  0.00  0.00    +0.000 C 
ATOM     10  C   UNL     1       0.307  10.287  18.532  0.00  0.00    +0.000 C 
ATOM     11  C   UNL     1       1.779  12.154  19.505  0.00  0.00    +0.000 C 
ENDROOT
BRANCH  10  12
ATOM     12  C   UNL     1       1.295   9.250  18.827  0.00  0.00    +0.000 A 
ATOM     13  C   UNL     1       2.170   8.801  17.843  0.00  0.00    +0.000 A 
ATOM     14  C   UNL     1       2.944   7.670  18.081  0.00  0.00    +0.000 A 
ATOM     15  N   UNL     1       2.850   7.003  19.257  0.00  0.00    +0.000 N 
ATOM     16  C   UNL     1       2.074   7.482  20.257  0.00  0.00    +0.000 A 
ATOM     17  C   UNL     1       1.277   8.605  20.061  0.00  0.00    +0.000 A 
BRANCH  15  18
ATOM     18  C   UNL     1       3.521   5.685  19.412  0.00  0.00    +0.000 C 
BRANCH  18  19
ATOM     19  C   UNL     1       2.537   4.558  19.388  0.00  0.00    +0.000 A 
ATOM     20  C   UNL     1       2.094   3.991  18.187  0.00  0.00    +0.000 A 
ATOM     21  C   UNL     1       1.139   2.970  18.207  0.00  0.00    +0.000 A 
ATOM     22  C   UNL     1       0.629   2.507  19.420  0.00  0.00    +0.000 A 
ATOM     23  C   UNL     1       1.084   3.047  20.620  0.00  0.00    +0.000 A 
ATOM     24  C   UNL     1       2.031   4.062  20.592  0.00  0.00    +0.000 A 
ATOM     25  F   UNL     1       2.464   4.586  21.748  0.00  0.00    +0.000 F 
ENDBRANCH  18  19
ENDBRANCH  15  18
ENDBRANCH  10  12
BRANCH   1  27
ATOM     26  C   UNL     1       4.158  16.935  19.603  0.00  0.00    +0.000 C 
ATOM     27  O   UNL     1       2.818  17.000  20.084  0.00  0.00    +0.000 OA
ENDBRANCH   1  27
BRANCH   6  28
ATOM     28  O   UNL     1       0.455  17.611  19.030  0.00  0.00    +0.000 OA
ATOM     29  C   UNL     1      -0.199  18.047  17.845  0.00  0.00    +0.000 C 
ENDBRANCH   6  28
TORSDOF 5
ENDMDL
