MODEL 1
REMARK VINA RESULT:      -9.6      0.000      0.000
REMARK  Name = 
REMARK  7 active torsions:
REMARK  status: ('A' for Active; 'I' for Inactive)
REMARK    1  A    between atoms: C_2  and  C_3
REMARK    2  A    between atoms: C_6  and  C_7
REMARK    3  A    between atoms: C_11  and  O_12
REMARK    4  A    between atoms: O_12  and  C_13
REMARK    5  A    between atoms: C_13  and  C_14
REMARK    6  A    between atoms: C_14  and  N_15
REMARK    7  A    between atoms: C_18  and  C_19
REMARK                            x       y       z     vdW  Elec       q    Type
REMARK                         _______ _______ _______ _____ _____    ______ ____
ROOT
ATOM      1  C   UNL     1       0.946   9.301  19.948  0.00  0.00    +0.000 A 
ATOM      2  C   UNL     1       1.305   9.680  18.645  0.00  0.00    +0.000 A 
ATOM      3  C   UNL     1       2.114   8.864  17.846  0.00  0.00    +0.000 A 
ATOM      4  C   UNL     1       2.582   7.649  18.339  0.00  0.00    +0.000 A 
ATOM      5  C   UNL     1       2.243   7.245  19.623  0.00  0.00    +0.000 A 
ATOM      6  C   UNL     1       1.451   8.079  20.423  0.00  0.00    +0.000 A 
ENDROOT
BRANCH   1  10
ATOM      7  C   UNL     1      -1.692  11.726  22.367  0.00  0.00    +0.000 A 
ATOM      8  C   UNL     1      -0.878  10.767  22.969  0.00  0.00    +0.000 A 
ATOM      9  C   UNL     1      -0.002  10.002  22.189  0.00  0.00    +0.000 A 
ATOM     10  C   UNL     1       0.061  10.147  20.787  0.00  0.00    +0.000 A 
ATOM     11  C   UNL     1      -0.736  11.154  20.217  0.00  0.00    +0.000 A 
ATOM     12  C   UNL     1      -1.555  11.967  21.001  0.00  0.00    +0.000 A 
BRANCH   7  14
ATOM     13  O   UNL     1      -3.814  12.130  23.253  0.00  0.00    +0.000 OA
ATOM     14  C   UNL     1      -2.646  12.509  23.195  0.00  0.00    +0.000 C 
ATOM     15  N   UNL     1      -2.189  13.648  23.853  0.00  0.00    +0.000 N 
ATOM     16  C   UNL     1      -3.072  14.404  24.721  0.00  0.00    +0.000 C 
ATOM     17  C   UNL     1      -2.664  15.852  24.496  0.00  0.00    +0.000 C 
ATOM     18  C   UNL     1      -1.168  15.754  24.250  0.00  0.00    +0.000 C 
ATOM     19  C   UNL     1      -1.007  14.434  23.509  0.00  0.00    +0.000 C 
ENDBRANCH   7  14
ENDBRANCH   1  10
BRANCH   5  20
ATOM     20  O   UNL     1       2.718   6.016  20.008  0.00  0.00    +0.000 OA
BRANCH  20  21
ATOM     21  C   UNL     1       1.915   5.364  20.997  0.00  0.00    +0.000 C 
BRANCH  21  22
ATOM     22  C   UNL     1       0.995   4.331  20.337  0.00  0.00    +0.000 C 
BRANCH  22  23
ATOM     23  N   UNL     1       1.710   3.423  19.405  0.00  0.00    +0.000 NA
ATOM     24  C   UNL     1       1.715   3.979  18.043  0.00  0.00    +0.000 C 
ATOM     25  C   UNL     1       2.575   3.191  17.054  0.00  0.00    +0.000 C 
ATOM     26  C   UNL     1       4.013   3.006  17.548  0.00  0.00    +0.000 C 
ATOM     27  C   UNL     1       3.926   2.362  18.945  0.00  0.00    +0.000 C 
ATOM     28  C   UNL     1       3.073   3.186  19.911  0.00  0.00    +0.000 C 
BRANCH  26  29
ATOM     29  C   UNL     1       4.907   4.245  17.488  0.00  0.00    +0.000 A 
ATOM     30  C   UNL     1       5.797   4.610  18.512  0.00  0.00    +0.000 A 
ATOM     31  C   UNL     1       6.587   5.759  18.418  0.00  0.00    +0.000 A 
ATOM     32  C   UNL     1       6.481   6.589  17.309  0.00  0.00    +0.000 A 
ATOM     33  C   UNL     1       5.583   6.267  16.296  0.00  0.00    +0.000 A 
ATOM     34  C   UNL     1       4.803   5.110  16.385  0.00  0.00    +0.000 A 
ENDBRANCH  26  29
ENDBRANCH  22  23
ENDBRANCH  21  22
ENDBRANCH  20  21
ENDBRANCH   5  20
TORSDOF 7
ENDMDL
MODEL 2
REMARK VINA RESULT:      -9.5      1.190      1.732
REMARK  Name = 
REMARK  7 active torsions:
REMARK  status: ('A' for Active; 'I' for Inactive)
REMARK    1  A    between atoms: C_2  and  C_3
REMARK    2  A    between atoms: C_6  and  C_7
REMARK    3  A    between atoms: C_11  and  O_12
REMARK    4  A    between atoms: O_12  and  C_13
REMARK    5  A    between atoms: C_13  and  C_14
REMARK    6  A    between atoms: C_14  and  N_15
REMARK    7  A    between atoms: C_18  and  C_19
REMARK                            x       y       z     vdW  Elec       q    Type
REMARK                         _______ _______ _______ _____ _____    ______ ____
ROOT
ATOM      1  C   UNL     1       1.110   9.045  20.270  0.00  0.00    +0.000 A 
ATOM      2  C   UNL     1       1.600   9.218  18.965  0.00  0.00    +0.000 A 
ATOM      3  C   UNL     1       2.253   8.181  18.289  0.00  0.00    +0.000 A 
ATOM      4  C   UNL     1       2.432   6.948  18.909  0.00  0.00    +0.000 A 
ATOM      5  C   UNL     1       1.957   6.744  20.197  0.00  0.00    +0.000 A 
ATOM      6  C   UNL     1       1.324   7.795  20.874  0.00  0.00    +0.000 A 
ENDROOT
BRANCH   1  10
ATOM      7  C   UNL     1      -0.940  12.214  22.378  0.00  0.00    +0.000 A 
ATOM      8  C   UNL     1      -0.433  12.441  21.099  0.00  0.00    +0.000 A 
ATOM      9  C   UNL     1       0.205  11.406  20.405  0.00  0.00    +0.000 A 
ATOM     10  C   UNL     1       0.386  10.130  20.978  0.00  0.00    +0.000 A 
ATOM     11  C   UNL     1      -0.179   9.918  22.248  0.00  0.00    +0.000 A 
ATOM     12  C   UNL     1      -0.878  10.927  22.910  0.00  0.00    +0.000 A 
BRANCH   7  14
ATOM     13  O   UNL     1      -0.911  13.935  23.955  0.00  0.00    +0.000 OA
ATOM     14  C   UNL     1      -1.584  13.326  23.125  0.00  0.00    +0.000 C 
ATOM     15  N   UNL     1      -2.921  13.619  22.874  0.00  0.00    +0.000 N 
ATOM     16  C   UNL     1      -3.569  14.737  23.535  0.00  0.00    +0.000 C 
ATOM     17  C   UNL     1      -4.985  14.247  23.792  0.00  0.00    +0.000 C 
ATOM     18  C   UNL     1      -5.264  13.356  22.593  0.00  0.00    +0.000 C 
ATOM     19  C   UNL     1      -3.914  12.720  22.292  0.00  0.00    +0.000 C 
ENDBRANCH   7  14
ENDBRANCH   1  10
BRANCH   5  20
ATOM     20  O   UNL     1       2.144   5.485  20.711  0.00  0.00    +0.000 OA
BRANCH  20  21
ATOM     21  C   UNL     1       0.978   4.656  20.662  0.00  0.00    +0.000 C 
BRANCH  21  22
ATOM     22  C   UNL     1       1.332   3.218  21.057  0.00  0.00    +0.000 C 
BRANCH  22  23
ATOM     23  N   UNL     1       2.024   2.469  19.977  0.00  0.00    +0.000 NA
ATOM     24  C   UNL     1       1.714   3.054  18.662  0.00  0.00    +0.000 C 
ATOM     25  C   UNL     1       2.517   2.449  17.510  0.00  0.00    +0.000 C 
ATOM     26  C   UNL     1       4.028   2.500  17.761  0.00  0.00    +0.000 C 
ATOM     27  C   UNL     1       4.279   1.816  19.118  0.00  0.00    +0.000 C 
ATOM     28  C   UNL     1       3.472   2.457  20.249  0.00  0.00    +0.000 C 
BRANCH  26  29
ATOM     29  C   UNL     1       4.684   3.875  17.627  0.00  0.00    +0.000 A 
ATOM     30  C   UNL     1       5.499   4.447  18.618  0.00  0.00    +0.000 A 
ATOM     31  C   UNL     1       6.068   5.712  18.457  0.00  0.00    +0.000 A 
ATOM     32  C   UNL     1       5.809   6.451  17.309  0.00  0.00    +0.000 A 
ATOM     33  C   UNL     1       4.979   5.922  16.326  0.00  0.00    +0.000 A 
ATOM     34  C   UNL     1       4.420   4.650  16.483  0.00  0.00    +0.000 A 
ENDBRANCH  26  29
ENDBRANCH  22  23
ENDBRANCH  21  22
ENDBRANCH  20  21
ENDBRANCH   5  20
TORSDOF 7
ENDMDL
MODEL 3
REMARK VINA RESULT:      -9.4      0.274      1.184
REMARK  Name = 
REMARK  7 active torsions:
REMARK  status: ('A' for Active; 'I' for Inactive)
REMARK    1  A    between atoms: C_2  and  C_3
REMARK    2  A    between atoms: C_6  and  C_7
REMARK    3  A    between atoms: C_11  and  O_12
REMARK    4  A    between atoms: O_12  and  C_13
REMARK    5  A    between atoms: C_13  and  C_14
REMARK    6  A    between atoms: C_14  and  N_15
REMARK    7  A    between atoms: C_18  and  C_19
REMARK                            x       y       z     vdW  Elec       q    Type
REMARK                         _______ _______ _______ _____ _____    ______ ____
ROOT
ATOM      1  C   UNL     1       0.785   9.395  20.043  0.00  0.00    +0.000 A 
ATOM      2  C   UNL     1       1.079   9.782  18.726  0.00  0.00    +0.000 A 
ATOM      3  C   UNL     1       1.908   9.008  17.907  0.00  0.00    +0.000 A 
ATOM      4  C   UNL     1       2.465   7.828  18.393  0.00  0.00    +0.000 A 
ATOM      5  C   UNL     1       2.191   7.417  19.690  0.00  0.00    +0.000 A 
ATOM      6  C   UNL     1       1.377   8.209  20.510  0.00  0.00    +0.000 A 
ENDROOT
BRANCH   1  10
ATOM      7  C   UNL     1      -1.798  11.760  22.578  0.00  0.00    +0.000 A 
ATOM      8  C   UNL     1      -1.769  11.990  21.202  0.00  0.00    +0.000 A 
ATOM      9  C   UNL     1      -0.954  11.204  20.378  0.00  0.00    +0.000 A 
ATOM     10  C   UNL     1      -0.122  10.194  20.904  0.00  0.00    +0.000 A 
ATOM     11  C   UNL     1      -0.211   9.954  22.286  0.00  0.00    +0.000 A 
ATOM     12  C   UNL     1      -1.076  10.687  23.098  0.00  0.00    +0.000 A 
BRANCH   7  14
ATOM     13  O   UNL     1      -3.786  12.258  23.696  0.00  0.00    +0.000 OA
ATOM     14  C   UNL     1      -2.637  12.621  23.452  0.00  0.00    +0.000 C 
ATOM     15  N   UNL     1      -2.099  13.808  23.942  0.00  0.00    +0.000 N 
ATOM     16  C   UNL     1      -2.862  14.644  24.850  0.00  0.00    +0.000 C 
ATOM     17  C   UNL     1      -2.491  16.063  24.448  0.00  0.00    +0.000 C 
ATOM     18  C   UNL     1      -1.040  15.931  24.017  0.00  0.00    +0.000 C 
ATOM     19  C   UNL     1      -0.975  14.550  23.379  0.00  0.00    +0.000 C 
ENDBRANCH   7  14
ENDBRANCH   1  10
BRANCH   5  20
ATOM     20  O   UNL     1       2.752   6.222  20.068  0.00  0.00    +0.000 OA
BRANCH  20  21
ATOM     21  C   UNL     1       1.947   5.462  20.976  0.00  0.00    +0.000 C 
BRANCH  21  22
ATOM     22  C   UNL     1       1.060   4.479  20.203  0.00  0.00    +0.000 C 
BRANCH  22  23
ATOM     23  N   UNL     1       1.832   3.555  19.334  0.00  0.00    +0.000 NA
ATOM     24  C   UNL     1       1.840   4.038  17.943  0.00  0.00    +0.000 C 
ATOM     25  C   UNL     1       2.751   3.237  17.014  0.00  0.00    +0.000 C 
ATOM     26  C   UNL     1       4.187   3.142  17.541  0.00  0.00    +0.000 C 
ATOM     27  C   UNL     1       4.100   2.570  18.970  0.00  0.00    +0.000 C 
ATOM     28  C   UNL     1       3.193   3.406  19.875  0.00  0.00    +0.000 C 
BRANCH  26  29
ATOM     29  C   UNL     1       5.027   4.415  17.430  0.00  0.00    +0.000 A 
ATOM     30  C   UNL     1       4.756   5.448  16.518  0.00  0.00    +0.000 A 
ATOM     31  C   UNL     1       5.559   6.588  16.444  0.00  0.00    +0.000 A 
ATOM     32  C   UNL     1       6.676   6.708  17.263  0.00  0.00    +0.000 A 
ATOM     33  C   UNL     1       6.986   5.684  18.152  0.00  0.00    +0.000 A 
ATOM     34  C   UNL     1       6.173   4.549  18.234  0.00  0.00    +0.000 A 
ENDBRANCH  26  29
ENDBRANCH  22  23
ENDBRANCH  21  22
ENDBRANCH  20  21
ENDBRANCH   5  20
TORSDOF 7
ENDMDL
MODEL 4
REMARK VINA RESULT:      -9.1      2.134      2.564
REMARK  Name = 
REMARK  7 active torsions:
REMARK  status: ('A' for Active; 'I' for Inactive)
REMARK    1  A    between atoms: C_2  and  C_3
REMARK    2  A    between atoms: C_6  and  C_7
REMARK    3  A    between atoms: C_11  and  O_12
REMARK    4  A    between atoms: O_12  and  C_13
REMARK    5  A    between atoms: C_13  and  C_14
REMARK    6  A    between atoms: C_14  and  N_15
REMARK    7  A    between atoms: C_18  and  C_19
REMARK                            x       y       z     vdW  Elec       q    Type
REMARK                         _______ _______ _______ _____ _____    ______ ____
ROOT
ATOM      1  C   UNL     1       1.394   9.260  19.239  0.00  0.00    +0.000 A 
ATOM      2  C   UNL     1       2.078   9.058  18.029  0.00  0.00    +0.000 A 
ATOM      3  C   UNL     1       2.737   7.854  17.757  0.00  0.00    +0.000 A 
ATOM      4  C   UNL     1       2.727   6.826  18.694  0.00  0.00    +0.000 A 
ATOM      5  C   UNL     1       2.058   6.993  19.899  0.00  0.00    +0.000 A 
ATOM      6  C   UNL     1       1.419   8.210  20.173  0.00  0.00    +0.000 A 
ENDROOT
BRANCH   1  10
ATOM      7  C   UNL     1      -0.790  12.895  20.076  0.00  0.00    +0.000 A 
ATOM      8  C   UNL     1       0.246  12.494  20.919  0.00  0.00    +0.000 A 
ATOM      9  C   UNL     1       0.973  11.332  20.631  0.00  0.00    +0.000 A 
ATOM     10  C   UNL     1       0.664  10.521  19.519  0.00  0.00    +0.000 A 
ATOM     11  C   UNL     1      -0.352  10.978  18.662  0.00  0.00    +0.000 A 
ATOM     12  C   UNL     1      -1.028  12.174  18.907  0.00  0.00    +0.000 A 
BRANCH   7  14
ATOM     13  O   UNL     1      -2.625  13.968  21.041  0.00  0.00    +0.000 OA
ATOM     14  C   UNL     1      -1.582  14.109  20.406  0.00  0.00    +0.000 C 
ATOM     15  N   UNL     1      -1.126  15.349  19.968  0.00  0.00    +0.000 N 
ATOM     16  C   UNL     1      -1.835  16.565  20.322  0.00  0.00    +0.000 C 
ATOM     17  C   UNL     1      -1.711  17.442  19.087  0.00  0.00    +0.000 C 
ATOM     18  C   UNL     1      -0.340  17.078  18.542  0.00  0.00    +0.000 C 
ATOM     19  C   UNL     1      -0.204  15.595  18.862  0.00  0.00    +0.000 C 
ENDBRANCH   7  14
ENDBRANCH   1  10
BRANCH   5  20
ATOM     20  O   UNL     1       2.069   5.911  20.744  0.00  0.00    +0.000 OA
BRANCH  20  21
ATOM     21  C   UNL     1       1.004   4.983  20.518  0.00  0.00    +0.000 C 
BRANCH  21  22
ATOM     22  C   UNL     1       1.385   3.596  21.048  0.00  0.00    +0.000 C 
BRANCH  22  23
ATOM     23  N   UNL     1       2.038   2.739  20.026  0.00  0.00    +0.000 NA
ATOM     24  C   UNL     1       1.732   3.226  18.671  0.00  0.00    +0.000 C 
ATOM     25  C   UNL     1       2.499   2.503  17.564  0.00  0.00    +0.000 C 
ATOM     26  C   UNL     1       4.014   2.521  17.795  0.00  0.00    +0.000 C 
ATOM     27  C   UNL     1       4.258   1.940  19.201  0.00  0.00    +0.000 C 
ATOM     28  C   UNL     1       3.488   2.698  20.284  0.00  0.00    +0.000 C 
BRANCH  26  29
ATOM     29  C   UNL     1       4.714   3.857  17.544  0.00  0.00    +0.000 A 
ATOM     30  C   UNL     1       4.633   4.561  16.330  0.00  0.00    +0.000 A 
ATOM     31  C   UNL     1       5.300   5.774  16.142  0.00  0.00    +0.000 A 
ATOM     32  C   UNL     1       6.093   6.297  17.156  0.00  0.00    +0.000 A 
ATOM     33  C   UNL     1       6.217   5.604  18.356  0.00  0.00    +0.000 A 
ATOM     34  C   UNL     1       5.538   4.396  18.547  0.00  0.00    +0.000 A 
ENDBRANCH  26  29
ENDBRANCH  22  23
ENDBRANCH  21  22
ENDBRANCH  20  21
ENDBRANCH   5  20
TORSDOF 7
ENDMDL
MODEL 5
REMARK VINA RESULT:      -9.0      1.605      1.929
REMARK  Name = 
REMARK  7 active torsions:
REMARK  status: ('A' for Active; 'I' for Inactive)
REMARK    1  A    between atoms: C_2  and  C_3
REMARK    2  A    between atoms: C_6  and  C_7
REMARK    3  A    between atoms: C_11  and  O_12
REMARK    4  A    between atoms: O_12  and  C_13
REMARK    5  A    between atoms: C_13  and  C_14
REMARK    6  A    between atoms: C_14  and  N_15
REMARK    7  A    between atoms: C_18  and  C_19
REMARK                            x       y       z     vdW  Elec       q    Type
REMARK                         _______ _______ _______ _____ _____    ______ ____
ROOT
ATOM      1  C   UNL     1       1.184   9.204  19.536  0.00  0.00    +0.000 A 
ATOM      2  C   UNL     1       1.873   9.127  18.315  0.00  0.00    +0.000 A 
ATOM      3  C   UNL     1       2.615   7.993  17.968  0.00  0.00    +0.000 A 
ATOM      4  C   UNL     1       2.685   6.911  18.841  0.00  0.00    +0.000 A 
ATOM      5  C   UNL     1       2.013   6.955  20.055  0.00  0.00    +0.000 A 
ATOM      6  C   UNL     1       1.290   8.103  20.403  0.00  0.00    +0.000 A 
ENDROOT
BRANCH   1  10
ATOM      7  C   UNL     1      -1.148  12.703  20.541  0.00  0.00    +0.000 A 
ATOM      8  C   UNL     1      -1.604  11.817  19.565  0.00  0.00    +0.000 A 
ATOM      9  C   UNL     1      -0.863  10.669  19.260  0.00  0.00    +0.000 A 
ATOM     10  C   UNL     1       0.366  10.390  19.893  0.00  0.00    +0.000 A 
ATOM     11  C   UNL     1       0.774  11.275  20.906  0.00  0.00    +0.000 A 
ATOM     12  C   UNL     1       0.000  12.380  21.262  0.00  0.00    +0.000 A 
BRANCH   7  14
ATOM     13  O   UNL     1      -1.469  15.013  20.441  0.00  0.00    +0.000 OA
ATOM     14  C   UNL     1      -1.920  13.939  20.835  0.00  0.00    +0.000 C 
ATOM     15  N   UNL     1      -3.105  13.836  21.558  0.00  0.00    +0.000 N 
ATOM     16  C   UNL     1      -3.920  15.010  21.811  0.00  0.00    +0.000 C 
ATOM     17  C   UNL     1      -4.469  14.787  23.211  0.00  0.00    +0.000 C 
ATOM     18  C   UNL     1      -4.647  13.279  23.275  0.00  0.00    +0.000 C 
ATOM     19  C   UNL     1      -3.490  12.741  22.444  0.00  0.00    +0.000 C 
ENDBRANCH   7  14
ENDBRANCH   1  10
BRANCH   5  20
ATOM     20  O   UNL     1       2.108   5.827  20.831  0.00  0.00    +0.000 OA
BRANCH  20  21
ATOM     21  C   UNL     1       1.047   4.888  20.627  0.00  0.00    +0.000 C 
BRANCH  21  22
ATOM     22  C   UNL     1       1.484   3.488  21.074  0.00  0.00    +0.000 C 
BRANCH  22  23
ATOM     23  N   UNL     1       2.096   2.690  19.980  0.00  0.00    +0.000 NA
ATOM     24  C   UNL     1       1.777   3.280  18.670  0.00  0.00    +0.000 C 
ATOM     25  C   UNL     1       2.505   2.619  17.499  0.00  0.00    +0.000 C 
ATOM     26  C   UNL     1       4.024   2.583  17.700  0.00  0.00    +0.000 C 
ATOM     27  C   UNL     1       4.279   1.897  19.057  0.00  0.00    +0.000 C 
ATOM     28  C   UNL     1       3.548   2.595  20.205  0.00  0.00    +0.000 C 
BRANCH  26  29
ATOM     29  C   UNL     1       4.755   3.916  17.530  0.00  0.00    +0.000 A 
ATOM     30  C   UNL     1       5.616   4.458  18.499  0.00  0.00    +0.000 A 
ATOM     31  C   UNL     1       6.254   5.686  18.305  0.00  0.00    +0.000 A 
ATOM     32  C   UNL     1       6.018   6.418  17.147  0.00  0.00    +0.000 A 
ATOM     33  C   UNL     1       5.144   5.918  16.187  0.00  0.00    +0.000 A 
ATOM     34  C   UNL     1       4.517   4.683  16.377  0.00  0.00    +0.000 A 
ENDBRANCH  26  29
ENDBRANCH  22  23
ENDBRANCH  21  22
ENDBRANCH  20  21
ENDBRANCH   5  20
TORSDOF 7
ENDMDL
MODEL 6
REMARK VINA RESULT:      -8.9      1.223      1.662
REMARK  Name = 
REMARK  7 active torsions:
REMARK  status: ('A' for Active; 'I' for Inactive)
REMARK    1  A    between atoms: C_2  and  C_3
REMARK    2  A    between atoms: C_6  and  C_7
REMARK    3  A    between atoms: C_11  and  O_12
REMARK    4  A    between atoms: O_12  and  C_13
REMARK    5  A    between atoms: C_13  and  C_14
REMARK    6  A    between atoms: C_14  and  N_15
REMARK    7  A    between atoms: C_18  and  C_19
REMARK                            x       y       z     vdW  Elec       q    Type
REMARK                         _______ _______ _______ _____ _____    ______ ____
ROOT
ATOM      1  C   UNL     1       1.058   9.268  19.804  0.00  0.00    +0.000 A 
ATOM      2  C   UNL     1       1.407   9.501  18.464  0.00  0.00    +0.000 A 
ATOM      3  C   UNL     1       2.169   8.578  17.739  0.00  0.00    +0.000 A 
ATOM      4  C   UNL     1       2.601   7.401  18.345  0.00  0.00    +0.000 A 
ATOM      5  C   UNL     1       2.271   7.140  19.668  0.00  0.00    +0.000 A 
ATOM      6  C   UNL     1       1.526   8.081  20.392  0.00  0.00    +0.000 A 
ENDROOT
BRANCH   1  10
ATOM      7  C   UNL     1      -1.442  12.032  21.995  0.00  0.00    +0.000 A 
ATOM      8  C   UNL     1      -0.835  10.965  22.657  0.00  0.00    +0.000 A 
ATOM      9  C   UNL     1      -0.002  10.087  21.953  0.00  0.00    +0.000 A 
ATOM     10  C   UNL     1       0.221  10.227  20.567  0.00  0.00    +0.000 A 
ATOM     11  C   UNL     1      -0.365  11.340  19.939  0.00  0.00    +0.000 A 
ATOM     12  C   UNL     1      -1.136  12.257  20.653  0.00  0.00    +0.000 A 
BRANCH   7  14
ATOM     13  O   UNL     1      -2.004  13.336  23.848  0.00  0.00    +0.000 OA
ATOM     14  C   UNL     1      -2.355  12.940  22.739  0.00  0.00    +0.000 C 
ATOM     15  N   UNL     1      -3.574  13.287  22.163  0.00  0.00    +0.000 N 
ATOM     16  C   UNL     1      -4.465  14.220  22.828  0.00  0.00    +0.000 C 
ATOM     17  C   UNL     1      -5.855  13.688  22.522  0.00  0.00    +0.000 C 
ATOM     18  C   UNL     1      -5.702  13.103  21.128  0.00  0.00    +0.000 C 
ATOM     19  C   UNL     1      -4.283  12.553  21.119  0.00  0.00    +0.000 C 
ENDBRANCH   7  14
ENDBRANCH   1  10
BRANCH   5  20
ATOM     20  O   UNL     1       2.707   5.938  20.167  0.00  0.00    +0.000 OA
BRANCH  20  21
ATOM     21  C   UNL     1       1.764   5.287  21.024  0.00  0.00    +0.000 C 
BRANCH  21  22
ATOM     22  C   UNL     1       0.894   4.317  20.216  0.00  0.00    +0.000 C 
BRANCH  22  23
ATOM     23  N   UNL     1       1.687   3.376  19.384  0.00  0.00    +0.000 NA
ATOM     24  C   UNL     1       1.726   3.829  17.985  0.00  0.00    +0.000 C 
ATOM     25  C   UNL     1       2.659   3.010  17.093  0.00  0.00    +0.000 C 
ATOM     26  C   UNL     1       4.082   2.929  17.655  0.00  0.00    +0.000 C 
ATOM     27  C   UNL     1       3.964   2.388  19.093  0.00  0.00    +0.000 C 
ATOM     28  C   UNL     1       3.036   3.241  19.959  0.00  0.00    +0.000 C 
BRANCH  26  29
ATOM     29  C   UNL     1       4.923   4.200  17.536  0.00  0.00    +0.000 A 
ATOM     30  C   UNL     1       5.786   4.659  18.546  0.00  0.00    +0.000 A 
ATOM     31  C   UNL     1       6.527   5.833  18.397  0.00  0.00    +0.000 A 
ATOM     32  C   UNL     1       6.398   6.597  17.243  0.00  0.00    +0.000 A 
ATOM     33  C   UNL     1       5.527   6.182  16.241  0.00  0.00    +0.000 A 
ATOM     34  C   UNL     1       4.795   4.999  16.386  0.00  0.00    +0.000 A 
ENDBRANCH  26  29
ENDBRANCH  22  23
ENDBRANCH  21  22
ENDBRANCH  20  21
ENDBRANCH   5  20
TORSDOF 7
ENDMDL
MODEL 7
REMARK VINA RESULT:      -8.7      3.335     10.859
REMARK  Name = 
REMARK  7 active torsions:
REMARK  status: ('A' for Active; 'I' for Inactive)
REMARK    1  A    between atoms: C_2  and  C_3
REMARK    2  A    between atoms: C_6  and  C_7
REMARK    3  A    between atoms: C_11  and  O_12
REMARK    4  A    between atoms: O_12  and  C_13
REMARK    5  A    between atoms: C_13  and  C_14
REMARK    6  A    between atoms: C_14  and  N_15
REMARK    7  A    between atoms: C_18  and  C_19
REMARK                            x       y       z     vdW  Elec       q    Type
REMARK                         _______ _______ _______ _____ _____    ______ ____
ROOT
ATOM      1  C   UNL     1       0.363  10.185  19.356  0.00  0.00    +0.000 A 
ATOM      2  C   UNL     1       0.591  11.188  20.312  0.00  0.00    +0.000 A 
ATOM      3  C   UNL     1      -0.201  12.341  20.360  0.00  0.00    +0.000 A 
ATOM      4  C   UNL     1      -1.237  12.515  19.446  0.00  0.00    +0.000 A 
ATOM      5  C   UNL     1      -1.489  11.540  18.491  0.00  0.00    +0.000 A 
ATOM      6  C   UNL     1      -0.677  10.399  18.436  0.00  0.00    +0.000 A 
ENDROOT
BRANCH   1  10
ATOM      7  C   UNL     1       2.797   6.613  19.264  0.00  0.00    +0.000 A 
ATOM      8  C   UNL     1       2.093   6.948  20.420  0.00  0.00    +0.000 A 
ATOM      9  C   UNL     1       1.282   8.089  20.440  0.00  0.00    +0.000 A 
ATOM     10  C   UNL     1       1.178   8.945  19.323  0.00  0.00    +0.000 A 
ATOM     11  C   UNL     1       1.859   8.553  18.158  0.00  0.00    +0.000 A 
ATOM     12  C   UNL     1       2.609   7.378  18.113  0.00  0.00    +0.000 A 
BRANCH   7  14
ATOM     13  O   UNL     1       4.898   5.599  19.351  0.00  0.00    +0.000 OA
ATOM     14  C   UNL     1       3.685   5.421  19.259  0.00  0.00    +0.000 C 
ATOM     15  N   UNL     1       3.115   4.158  19.131  0.00  0.00    +0.000 N 
ATOM     16  C   UNL     1       3.941   2.965  19.186  0.00  0.00    +0.000 C 
ATOM     17  C   UNL     1       3.300   2.023  18.180  0.00  0.00    +0.000 C 
ATOM     18  C   UNL     1       1.821   2.353  18.293  0.00  0.00    +0.000 C 
ATOM     19  C   UNL     1       1.803   3.849  18.569  0.00  0.00    +0.000 C 
ENDBRANCH   7  14
ENDBRANCH   1  10
BRANCH   5  20
ATOM     20  O   UNL     1      -2.555  11.779  17.659  0.00  0.00    +0.000 OA
BRANCH  20  21
ATOM     21  C   UNL     1      -3.693  10.950  17.916  0.00  0.00    +0.000 C 
BRANCH  21  22
ATOM     22  C   UNL     1      -4.875  11.387  17.044  0.00  0.00    +0.000 C 
BRANCH  22  23
ATOM     23  N   UNL     1      -6.103  11.675  17.828  0.00  0.00    +0.000 NA
ATOM     24  C   UNL     1      -6.279  10.681  18.899  0.00  0.00    +0.000 C 
ATOM     25  C   UNL     1      -7.426  10.999  19.858  0.00  0.00    +0.000 C 
ATOM     26  C   UNL     1      -7.311  12.402  20.463  0.00  0.00    +0.000 C 
ATOM     27  C   UNL     1      -7.196  13.388  19.284  0.00  0.00    +0.000 C 
ATOM     28  C   UNL     1      -6.029  13.048  18.356  0.00  0.00    +0.000 C 
BRANCH  26  29
ATOM     29  C   UNL     1      -6.234  12.584  21.533  0.00  0.00    +0.000 A 
ATOM     30  C   UNL     1      -6.519  12.782  22.895  0.00  0.00    +0.000 A 
ATOM     31  C   UNL     1      -5.501  12.955  23.837  0.00  0.00    +0.000 A 
ATOM     32  C   UNL     1      -4.172  12.967  23.432  0.00  0.00    +0.000 A 
ATOM     33  C   UNL     1      -3.865  12.806  22.085  0.00  0.00    +0.000 A 
ATOM     34  C   UNL     1      -4.884  12.619  21.145  0.00  0.00    +0.000 A 
ENDBRANCH  26  29
ENDBRANCH  22  23
ENDBRANCH  21  22
ENDBRANCH  20  21
ENDBRANCH   5  20
TORSDOF 7
ENDMDL
MODEL 8
REMARK VINA RESULT:      -8.6      2.313     10.534
REMARK  Name = 
REMARK  7 active torsions:
REMARK  status: ('A' for Active; 'I' for Inactive)
REMARK    1  A    between atoms: C_2  and  C_3
REMARK    2  A    between atoms: C_6  and  C_7
REMARK    3  A    between atoms: C_11  and  O_12
REMARK    4  A    between atoms: O_12  and  C_13
REMARK    5  A    between atoms: C_13  and  C_14
REMARK    6  A    between atoms: C_14  and  N_15
REMARK    7  A    between atoms: C_18  and  C_19
REMARK                            x       y       z     vdW  Elec       q    Type
REMARK                         _______ _______ _______ _____ _____    ______ ____
ROOT
ATOM      1  C   UNL     1       0.568  10.296  18.741  0.00  0.00    +0.000 A 
ATOM      2  C   UNL     1      -0.755  10.271  18.270  0.00  0.00    +0.000 A 
ATOM      3  C   UNL     1      -1.480  11.451  18.074  0.00  0.00    +0.000 A 
ATOM      4  C   UNL     1      -0.895  12.684  18.349  0.00  0.00    +0.000 A 
ATOM      5  C   UNL     1       0.412  12.742  18.813  0.00  0.00    +0.000 A 
ATOM      6  C   UNL     1       1.123  11.554  19.028  0.00  0.00    +0.000 A 
ENDROOT
BRANCH   1  10
ATOM      7  C   UNL     1       2.793   6.624  19.253  0.00  0.00    +0.000 A 
ATOM      8  C   UNL     1       2.836   7.303  18.035  0.00  0.00    +0.000 A 
ATOM      9  C   UNL     1       2.139   8.507  17.879  0.00  0.00    +0.000 A 
ATOM     10  C   UNL     1       1.354   9.049  18.918  0.00  0.00    +0.000 A 
ATOM     11  C   UNL     1       1.371   8.369  20.148  0.00  0.00    +0.000 A 
ATOM     12  C   UNL     1       2.123   7.208  20.327  0.00  0.00    +0.000 A 
BRANCH   7  14
ATOM     13  O   UNL     1       4.731   5.345  19.494  0.00  0.00    +0.000 OA
ATOM     14  C   UNL     1       3.505   5.328  19.401  0.00  0.00    +0.000 C 
ATOM     15  N   UNL     1       2.763   4.150  19.408  0.00  0.00    +0.000 N 
ATOM     16  C   UNL     1       3.413   2.869  19.615  0.00  0.00    +0.000 C 
ATOM     17  C   UNL     1       2.648   1.915  18.712  0.00  0.00    +0.000 C 
ATOM     18  C   UNL     1       1.229   2.458  18.760  0.00  0.00    +0.000 C 
ATOM     19  C   UNL     1       1.421   3.965  18.862  0.00  0.00    +0.000 C 
ENDBRANCH   7  14
ENDBRANCH   1  10
BRANCH   5  20
ATOM     20  O   UNL     1       0.917  14.002  19.019  0.00  0.00    +0.000 OA
BRANCH  20  21
ATOM     21  C   UNL     1       0.344  14.684  20.139  0.00  0.00    +0.000 C 
BRANCH  21  22
ATOM     22  C   UNL     1       1.107  14.333  21.421  0.00  0.00    +0.000 C 
BRANCH  22  23
ATOM     23  N   UNL     1       0.223  13.861  22.517  0.00  0.00    +0.000 NA
ATOM     24  C   UNL     1      -0.746  14.906  22.887  0.00  0.00    +0.000 C 
ATOM     25  C   UNL     1      -1.803  14.445  23.890  0.00  0.00    +0.000 C 
ATOM     26  C   UNL     1      -2.544  13.188  23.423  0.00  0.00    +0.000 C 
ATOM     27  C   UNL     1      -1.471  12.124  23.119  0.00  0.00    +0.000 C 
ATOM     28  C   UNL     1      -0.441  12.615  22.100  0.00  0.00    +0.000 C 
BRANCH  26  29
ATOM     29  C   UNL     1      -3.558  13.387  22.297  0.00  0.00    +0.000 A 
ATOM     30  C   UNL     1      -3.575  12.619  21.121  0.00  0.00    +0.000 A 
ATOM     31  C   UNL     1      -4.515  12.845  20.113  0.00  0.00    +0.000 A 
ATOM     32  C   UNL     1      -5.444  13.869  20.244  0.00  0.00    +0.000 A 
ATOM     33  C   UNL     1      -5.429  14.666  21.384  0.00  0.00    +0.000 A 
ATOM     34  C   UNL     1      -4.496  14.430  22.398  0.00  0.00    +0.000 A 
ENDBRANCH  26  29
ENDBRANCH  22  23
ENDBRANCH  21  22
ENDBRANCH  20  21
ENDBRANCH   5  20
TORSDOF 7
ENDMDL
MODEL 9
REMARK VINA RESULT:      -8.6      1.713      3.619
REMARK  Name = 
REMARK  7 active torsions:
REMARK  status: ('A' for Active; 'I' for Inactive)
REMARK    1  A    between atoms: C_2  and  C_3
REMARK    2  A    between atoms: C_6  and  C_7
REMARK    3  A    between atoms: C_11  and  O_12
REMARK    4  A    between atoms: O_12  and  C_13
REMARK    5  A    between atoms: C_13  and  C_14
REMARK    6  A    between atoms: C_14  and  N_15
REMARK    7  A    between atoms: C_18  and  C_19
REMARK                            x       y       z     vdW  Elec       q    Type
REMARK                         _______ _______ _______ _____ _____    ______ ____
ROOT
ATOM      1  C   UNL     1       0.673   9.133  20.680  0.00  0.00    +0.000 A 
ATOM      2  C   UNL     1       0.810   7.869  21.277  0.00  0.00    +0.000 A 
ATOM      3  C   UNL     1       1.591   6.867  20.690  0.00  0.00    +0.000 A 
ATOM      4  C   UNL     1       2.251   7.111  19.489  0.00  0.00    +0.000 A 
ATOM      5  C   UNL     1       2.138   8.351  18.875  0.00  0.00    +0.000 A 
ATOM      6  C   UNL     1       1.335   9.340  19.458  0.00  0.00    +0.000 A 
ENDROOT
BRANCH   1  10
ATOM      7  C   UNL     1      -1.596  12.290  22.571  0.00  0.00    +0.000 A 
ATOM      8  C   UNL     1      -1.185  12.423  21.245  0.00  0.00    +0.000 A 
ATOM      9  C   UNL     1      -0.476  11.388  20.624  0.00  0.00    +0.000 A 
ATOM     10  C   UNL     1      -0.126  10.210  21.315  0.00  0.00    +0.000 A 
ATOM     11  C   UNL     1      -0.596  10.084  22.634  0.00  0.00    +0.000 A 
ATOM     12  C   UNL     1      -1.366  11.083  23.231  0.00  0.00    +0.000 A 
BRANCH   7  14
ATOM     13  O   UNL     1      -1.716  14.060  24.088  0.00  0.00    +0.000 OA
ATOM     14  C   UNL     1      -2.316  13.407  23.237  0.00  0.00    +0.000 C 
ATOM     15  N   UNL     1      -3.641  13.655  22.889  0.00  0.00    +0.000 N 
ATOM     16  C   UNL     1      -4.360  14.774  23.468  0.00  0.00    +0.000 C 
ATOM     17  C   UNL     1      -5.777  14.253  23.647  0.00  0.00    +0.000 C 
ATOM     18  C   UNL     1      -5.952  13.317  22.463  0.00  0.00    +0.000 C 
ATOM     19  C   UNL     1      -4.569  12.710  22.272  0.00  0.00    +0.000 C 
ENDBRANCH   7  14
ENDBRANCH   1  10
BRANCH   5  20
ATOM     20  O   UNL     1       2.855   8.511  17.715  0.00  0.00    +0.000 OA
BRANCH  20  21
ATOM     21  C   UNL     1       3.253   7.281  17.101  0.00  0.00    +0.000 C 
BRANCH  21  22
ATOM     22  C   UNL     1       4.774   7.110  17.191  0.00  0.00    +0.000 C 
BRANCH  22  23
ATOM     23  N   UNL     1       5.190   5.709  17.451  0.00  0.00    +0.000 NA
ATOM     24  C   UNL     1       5.348   5.476  18.896  0.00  0.00    +0.000 C 
ATOM     25  C   UNL     1       5.612   4.015  19.263  0.00  0.00    +0.000 C 
ATOM     26  C   UNL     1       4.550   3.068  18.695  0.00  0.00    +0.000 C 
ATOM     27  C   UNL     1       4.489   3.325  17.176  0.00  0.00    +0.000 C 
ATOM     28  C   UNL     1       4.208   4.793  16.848  0.00  0.00    +0.000 C 
BRANCH  26  29
ATOM     29  C   UNL     1       3.186   3.099  19.386  0.00  0.00    +0.000 A 
ATOM     30  C   UNL     1       3.022   3.133  20.781  0.00  0.00    +0.000 A 
ATOM     31  C   UNL     1       1.755   3.148  21.368  0.00  0.00    +0.000 A 
ATOM     32  C   UNL     1       0.617   3.097  20.572  0.00  0.00    +0.000 A 
ATOM     33  C   UNL     1       0.752   3.030  19.189  0.00  0.00    +0.000 A 
ATOM     34  C   UNL     1       2.021   3.028  18.602  0.00  0.00    +0.000 A 
ENDBRANCH  26  29
ENDBRANCH  22  23
ENDBRANCH  21  22
ENDBRANCH  20  21
ENDBRANCH   5  20
TORSDOF 7
ENDMDL
