MODEL 1
REMARK VINA RESULT:      -8.2      0.000      0.000
REMARK  Name = 
REMARK  5 active torsions:
REMARK  status: ('A' for Active; 'I' for Inactive)
REMARK    1  A    between atoms: C_1  and  C_2
REMARK    2  A    between atoms: C_4  and  N_5
REMARK    3  A    between atoms: C_12  and  S_13
REMARK    4  A    between atoms: S_13  and  C_14
REMARK    5  A    between atoms: C_14  and  C_15
REMARK                            x       y       z     vdW  Elec       q    Type
REMARK                         _______ _______ _______ _____ _____    ______ ____
ROOT
ATOM      1  C   UNL     1       1.777   2.996  20.960  0.00  0.00    +0.000 C 
ATOM      2  C   UNL     1       2.444   4.155  20.289  0.00  0.00    +0.000 A 
ATOM      3  C   UNL     1       1.787   5.355  20.118  0.00  0.00    +0.000 A 
ATOM      4  C   UNL     1       2.501   6.413  19.580  0.00  0.00    +0.000 A 
ATOM      5  N   UNL     1       3.789   6.267  19.215  0.00  0.00    +0.000 NA
ATOM      6  C   UNL     1       4.340   5.054  19.384  0.00  0.00    +0.000 A 
ATOM      7  N   UNL     1       3.717   3.984  19.907  0.00  0.00    +0.000 NA
ENDROOT
BRANCH   4   8
ATOM      8  N   UNL     1       1.899   7.663  19.523  0.00  0.00    +0.000 N 
ATOM      9  C   UNL     1       1.537   8.321  20.775  0.00  0.00    +0.000 C 
ATOM     10  C   UNL     1       0.247   9.109  20.521  0.00  0.00    +0.000 C 
ATOM     11  C   UNL     1       0.375  10.059  19.326  0.00  0.00    +0.000 C 
ATOM     12  C   UNL     1       0.932   9.351  18.089  0.00  0.00    +0.000 C 
ATOM     13  C   UNL     1       2.206   8.573  18.420  0.00  0.00    +0.000 C 
ENDBRANCH   4   8
BRANCH   6  14
ATOM     14  S   UNL     1       5.989   4.753  18.809  0.00  0.00    +0.000 S 
BRANCH  14  15
ATOM     15  C   UNL     1       6.139   6.044  17.537  0.00  0.00    +0.000 C 
BRANCH  15  16
ATOM     16  C   UNL     1       6.223   5.422  16.179  0.00  0.00    +0.000 A 
ATOM     17  N   UNL     1       5.358   4.591  15.620  0.00  0.00    +0.000 NA
ATOM     18  C   UNL     1       5.844   4.335  14.356  0.00  0.00    +0.000 A 
ATOM     19  C   UNL     1       5.307   3.549  13.327  0.00  0.00    +0.000 A 
ATOM     20  C   UNL     1       6.004   3.462  12.113  0.00  0.00    +0.000 A 
ATOM     21  C   UNL     1       7.210   4.144  11.929  0.00  0.00    +0.000 A 
ATOM     22  C   UNL     1       7.759   4.934  12.945  0.00  0.00    +0.000 A 
ATOM     23  C   UNL     1       7.044   5.003  14.144  0.00  0.00    +0.000 A 
ATOM     24  N   UNL     1       7.271   5.670  15.318  0.00  0.00    +0.000 N 
ATOM     25  H   UNL     1       8.041   6.292  15.507  0.00  0.00    +0.000 HD
ENDBRANCH  15  16
ENDBRANCH  14  15
ENDBRANCH   6  14
TORSDOF 4
ENDMDL
MODEL 2
REMARK VINA RESULT:      -8.2      0.199      1.202
REMARK  Name = 
REMARK  5 active torsions:
REMARK  status: ('A' for Active; 'I' for Inactive)
REMARK    1  A    between atoms: C_1  and  C_2
REMARK    2  A    between atoms: C_4  and  N_5
REMARK    3  A    between atoms: C_12  and  S_13
REMARK    4  A    between atoms: S_13  and  C_14
REMARK    5  A    between atoms: C_14  and  C_15
REMARK                            x       y       z     vdW  Elec       q    Type
REMARK                         _______ _______ _______ _____ _____    ______ ____
ROOT
ATOM      1  C   UNL     1       1.690   2.851  20.625  0.00  0.00    +0.000 C 
ATOM      2  C   UNL     1       2.424   4.017  20.040  0.00  0.00    +0.000 A 
ATOM      3  C   UNL     1       1.810   5.243  19.889  0.00  0.00    +0.000 A 
ATOM      4  C   UNL     1       2.581   6.301  19.434  0.00  0.00    +0.000 A 
ATOM      5  N   UNL     1       3.882   6.131  19.130  0.00  0.00    +0.000 NA
ATOM      6  C   UNL     1       4.389   4.896  19.274  0.00  0.00    +0.000 A 
ATOM      7  N   UNL     1       3.710   3.824  19.717  0.00  0.00    +0.000 NA
ENDROOT
BRANCH   4   8
ATOM      8  N   UNL     1       2.018   7.569  19.402  0.00  0.00    +0.000 N 
ATOM      9  C   UNL     1       1.649   8.201  20.664  0.00  0.00    +0.000 C 
ATOM     10  C   UNL     1       0.389   9.036  20.407  0.00  0.00    +0.000 C 
ATOM     11  C   UNL     1       0.571  10.015  19.244  0.00  0.00    +0.000 C 
ATOM     12  C   UNL     1       1.133   9.326  17.998  0.00  0.00    +0.000 C 
ATOM     13  C   UNL     1       2.376   8.500  18.332  0.00  0.00    +0.000 C 
ENDBRANCH   4   8
BRANCH   6  14
ATOM     14  S   UNL     1       6.057   4.569  18.772  0.00  0.00    +0.000 S 
BRANCH  14  15
ATOM     15  C   UNL     1       6.348   5.972  17.650  0.00  0.00    +0.000 C 
BRANCH  15  16
ATOM     16  C   UNL     1       6.435   5.490  16.236  0.00  0.00    +0.000 A 
ATOM     17  N   UNL     1       7.390   5.744  15.356  0.00  0.00    +0.000 NA
ATOM     18  C   UNL     1       7.050   5.045  14.218  0.00  0.00    +0.000 A 
ATOM     19  C   UNL     1       7.727   4.932  12.996  0.00  0.00    +0.000 A 
ATOM     20  C   UNL     1       7.165   4.136  11.988  0.00  0.00    +0.000 A 
ATOM     21  C   UNL     1       5.956   3.467  12.193  0.00  0.00    +0.000 A 
ATOM     22  C   UNL     1       5.268   3.568  13.408  0.00  0.00    +0.000 A 
ATOM     23  C   UNL     1       5.850   4.367  14.395  0.00  0.00    +0.000 A 
ATOM     24  N   UNL     1       5.472   4.679  15.674  0.00  0.00    +0.000 N 
ATOM     25  H   UNL     1       4.659   4.326  16.154  0.00  0.00    +0.000 HD
ENDBRANCH  15  16
ENDBRANCH  14  15
ENDBRANCH   6  14
TORSDOF 4
ENDMDL
MODEL 3
REMARK VINA RESULT:      -8.0      4.682      7.289
REMARK  Name = 
REMARK  5 active torsions:
REMARK  status: ('A' for Active; 'I' for Inactive)
REMARK    1  A    between atoms: C_1  and  C_2
REMARK    2  A    between atoms: C_4  and  N_5
REMARK    3  A    between atoms: C_12  and  S_13
REMARK    4  A    between atoms: S_13  and  C_14
REMARK    5  A    between atoms: C_14  and  C_15
REMARK                            x       y       z     vdW  Elec       q    Type
REMARK                         _______ _______ _______ _____ _____    ______ ____
ROOT
ATOM      1  C   UNL     1       6.913   4.862  14.150  0.00  0.00    +0.000 C 
ATOM      2  C   UNL     1       6.502   5.118  15.566  0.00  0.00    +0.000 A 
ATOM      3  C   UNL     1       5.340   4.583  16.079  0.00  0.00    +0.000 A 
ATOM      4  C   UNL     1       5.075   4.780  17.425  0.00  0.00    +0.000 A 
ATOM      5  N   UNL     1       5.917   5.489  18.201  0.00  0.00    +0.000 NA
ATOM      6  C   UNL     1       7.008   6.004  17.611  0.00  0.00    +0.000 A 
ATOM      7  N   UNL     1       7.337   5.849  16.317  0.00  0.00    +0.000 NA
ENDROOT
BRANCH   4   8
ATOM      8  N   UNL     1       3.981   4.139  17.990  0.00  0.00    +0.000 N 
ATOM      9  C   UNL     1       4.212   3.178  19.063  0.00  0.00    +0.000 C 
ATOM     10  C   UNL     1       3.163   2.069  18.918  0.00  0.00    +0.000 C 
ATOM     11  C   UNL     1       1.737   2.625  18.868  0.00  0.00    +0.000 C 
ATOM     12  C   UNL     1       1.598   3.757  17.849  0.00  0.00    +0.000 C 
ATOM     13  C   UNL     1       2.685   4.816  18.043  0.00  0.00    +0.000 C 
ENDBRANCH   4   8
BRANCH   6  14
ATOM     14  S   UNL     1       8.093   7.055  18.539  0.00  0.00    +0.000 S 
BRANCH  14  15
ATOM     15  C   UNL     1       7.677   8.676  17.826  0.00  0.00    +0.000 C 
BRANCH  15  16
ATOM     16  C   UNL     1       8.651   9.710  18.295  0.00  0.00    +0.000 A 
ATOM     17  N   UNL     1       9.013   9.969  19.540  0.00  0.00    +0.000 NA
ATOM     18  C   UNL     1       9.961  10.966  19.459  0.00  0.00    +0.000 A 
ATOM     19  C   UNL     1      10.700  11.591  20.473  0.00  0.00    +0.000 A 
ATOM     20  C   UNL     1      11.625  12.583  20.117  0.00  0.00    +0.000 A 
ATOM     21  C   UNL     1      11.810  12.943  18.779  0.00  0.00    +0.000 A 
ATOM     22  C   UNL     1      11.083  12.327  17.755  0.00  0.00    +0.000 A 
ATOM     23  C   UNL     1      10.168  11.343  18.137  0.00  0.00    +0.000 A 
ATOM     24  N   UNL     1       9.315  10.546  17.422  0.00  0.00    +0.000 N 
ATOM     25  H   UNL     1       9.228  10.523  16.418  0.00  0.00    +0.000 HD
ENDBRANCH  15  16
ENDBRANCH  14  15
ENDBRANCH   6  14
TORSDOF 4
ENDMDL
MODEL 4
REMARK VINA RESULT:      -8.0      4.562      7.366
REMARK  Name = 
REMARK  5 active torsions:
REMARK  status: ('A' for Active; 'I' for Inactive)
REMARK    1  A    between atoms: C_1  and  C_2
REMARK    2  A    between atoms: C_4  and  N_5
REMARK    3  A    between atoms: C_12  and  S_13
REMARK    4  A    between atoms: S_13  and  C_14
REMARK    5  A    between atoms: C_14  and  C_15
REMARK                            x       y       z     vdW  Elec       q    Type
REMARK                         _______ _______ _______ _____ _____    ______ ____
ROOT
ATOM      1  C   UNL     1       6.950   4.553  14.157  0.00  0.00    +0.000 C 
ATOM      2  C   UNL     1       6.490   4.902  15.538  0.00  0.00    +0.000 A 
ATOM      3  C   UNL     1       5.308   4.403  16.043  0.00  0.00    +0.000 A 
ATOM      4  C   UNL     1       4.996   4.688  17.363  0.00  0.00    +0.000 A 
ATOM      5  N   UNL     1       5.813   5.444  18.121  0.00  0.00    +0.000 NA
ATOM      6  C   UNL     1       6.926   5.918  17.538  0.00  0.00    +0.000 A 
ATOM      7  N   UNL     1       7.301   5.679  16.270  0.00  0.00    +0.000 NA
ENDROOT
BRANCH   4   8
ATOM      8  N   UNL     1       3.880   4.086  17.929  0.00  0.00    +0.000 N 
ATOM      9  C   UNL     1       4.072   2.912  18.773  0.00  0.00    +0.000 C 
ATOM     10  C   UNL     1       2.867   1.990  18.555  0.00  0.00    +0.000 C 
ATOM     11  C   UNL     1       1.537   2.714  18.779  0.00  0.00    +0.000 C 
ATOM     12  C   UNL     1       1.465   4.033  18.007  0.00  0.00    +0.000 C 
ATOM     13  C   UNL     1       2.704   4.893  18.259  0.00  0.00    +0.000 C 
ENDBRANCH   4   8
BRANCH   6  14
ATOM     14  S   UNL     1       7.982   7.025  18.433  0.00  0.00    +0.000 S 
BRANCH  14  15
ATOM     15  C   UNL     1       7.801   8.536  17.437  0.00  0.00    +0.000 C 
BRANCH  15  16
ATOM     16  C   UNL     1       8.451   9.692  18.132  0.00  0.00    +0.000 A 
ATOM     17  N   UNL     1       8.614  10.921  17.671  0.00  0.00    +0.000 NA
ATOM     18  C   UNL     1       9.218  11.628  18.688  0.00  0.00    +0.000 A 
ATOM     19  C   UNL     1       9.585  12.980  18.748  0.00  0.00    +0.000 A 
ATOM     20  C   UNL     1      10.182  13.462  19.922  0.00  0.00    +0.000 A 
ATOM     21  C   UNL     1      10.408  12.615  21.011  0.00  0.00    +0.000 A 
ATOM     22  C   UNL     1      10.045  11.265  20.967  0.00  0.00    +0.000 A 
ATOM     23  C   UNL     1       9.452  10.810  19.787  0.00  0.00    +0.000 A 
ATOM     24  N   UNL     1       8.974   9.586  19.403  0.00  0.00    +0.000 N 
ATOM     25  H   UNL     1       8.947   8.756  19.975  0.00  0.00    +0.000 HD
ENDBRANCH  15  16
ENDBRANCH  14  15
ENDBRANCH   6  14
TORSDOF 4
ENDMDL
MODEL 5
REMARK VINA RESULT:      -8.0      4.273      7.051
REMARK  Name = 
REMARK  5 active torsions:
REMARK  status: ('A' for Active; 'I' for Inactive)
REMARK    1  A    between atoms: C_1  and  C_2
REMARK    2  A    between atoms: C_4  and  N_5
REMARK    3  A    between atoms: C_12  and  S_13
REMARK    4  A    between atoms: S_13  and  C_14
REMARK    5  A    between atoms: C_14  and  C_15
REMARK                            x       y       z     vdW  Elec       q    Type
REMARK                         _______ _______ _______ _____ _____    ______ ____
ROOT
ATOM      1  C   UNL     1       6.331   4.089  14.433  0.00  0.00    +0.000 C 
ATOM      2  C   UNL     1       6.015   4.425  15.856  0.00  0.00    +0.000 A 
ATOM      3  C   UNL     1       4.903   3.904  16.483  0.00  0.00    +0.000 A 
ATOM      4  C   UNL     1       4.730   4.179  17.830  0.00  0.00    +0.000 A 
ATOM      5  N   UNL     1       5.609   4.947  18.499  0.00  0.00    +0.000 NA
ATOM      6  C   UNL     1       6.646   5.442  17.803  0.00  0.00    +0.000 A 
ATOM      7  N   UNL     1       6.886   5.214  16.501  0.00  0.00    +0.000 NA
ENDROOT
BRANCH   4   8
ATOM      8  N   UNL     1       3.691   3.556  18.509  0.00  0.00    +0.000 N 
ATOM      9  C   UNL     1       2.563   3.042  17.739  0.00  0.00    +0.000 C 
ATOM     10  C   UNL     1       1.304   3.223  18.595  0.00  0.00    +0.000 C 
ATOM     11  C   UNL     1       1.455   2.597  19.984  0.00  0.00    +0.000 C 
ATOM     12  C   UNL     1       2.750   3.033  20.672  0.00  0.00    +0.000 C 
ATOM     13  C   UNL     1       3.959   2.840  19.756  0.00  0.00    +0.000 C 
ENDBRANCH   4   8
BRANCH   6  14
ATOM     14  S   UNL     1       7.772   6.565  18.586  0.00  0.00    +0.000 S 
BRANCH  14  15
ATOM     15  C   UNL     1       7.655   7.991  17.464  0.00  0.00    +0.000 C 
BRANCH  15  16
ATOM     16  C   UNL     1       8.311   9.187  18.080  0.00  0.00    +0.000 A 
ATOM     17  N   UNL     1       9.041   9.225  19.183  0.00  0.00    +0.000 NA
ATOM     18  C   UNL     1       9.461  10.531  19.312  0.00  0.00    +0.000 A 
ATOM     19  C   UNL     1      10.286  11.120  20.281  0.00  0.00    +0.000 A 
ATOM     20  C   UNL     1      10.575  12.488  20.176  0.00  0.00    +0.000 A 
ATOM     21  C   UNL     1      10.053  13.252  19.129  0.00  0.00    +0.000 A 
ATOM     22  C   UNL     1       9.230  12.680  18.153  0.00  0.00    +0.000 A 
ATOM     23  C   UNL     1       8.958  11.315  18.280  0.00  0.00    +0.000 A 
ATOM     24  N   UNL     1       8.220  10.445  17.524  0.00  0.00    +0.000 N 
ATOM     25  H   UNL     1       7.740  10.667  16.667  0.00  0.00    +0.000 HD
ENDBRANCH  15  16
ENDBRANCH  14  15
ENDBRANCH   6  14
TORSDOF 4
ENDMDL
MODEL 6
REMARK VINA RESULT:      -7.8      1.115      1.625
REMARK  Name = 
REMARK  5 active torsions:
REMARK  status: ('A' for Active; 'I' for Inactive)
REMARK    1  A    between atoms: C_1  and  C_2
REMARK    2  A    between atoms: C_4  and  N_5
REMARK    3  A    between atoms: C_12  and  S_13
REMARK    4  A    between atoms: S_13  and  C_14
REMARK    5  A    between atoms: C_14  and  C_15
REMARK                            x       y       z     vdW  Elec       q    Type
REMARK                         _______ _______ _______ _____ _____    ______ ____
ROOT
ATOM      1  C   UNL     1       3.911   2.105  20.380  0.00  0.00    +0.000 C 
ATOM      2  C   UNL     1       4.211   3.464  19.828  0.00  0.00    +0.000 A 
ATOM      3  C   UNL     1       3.239   4.441  19.771  0.00  0.00    +0.000 A 
ATOM      4  C   UNL     1       3.615   5.703  19.341  0.00  0.00    +0.000 A 
ATOM      5  N   UNL     1       4.883   5.960  18.970  0.00  0.00    +0.000 NA
ATOM      6  C   UNL     1       5.756   4.941  19.023  0.00  0.00    +0.000 A 
ATOM      7  N   UNL     1       5.472   3.695  19.437  0.00  0.00    +0.000 NA
ENDROOT
BRANCH   4   8
ATOM      8  N   UNL     1       2.685   6.732  19.403  0.00  0.00    +0.000 N 
ATOM      9  C   UNL     1       2.240   7.347  18.157  0.00  0.00    +0.000 C 
ATOM     10  C   UNL     1       1.993   8.833  18.443  0.00  0.00    +0.000 C 
ATOM     11  C   UNL     1       1.041   9.044  19.623  0.00  0.00    +0.000 C 
ATOM     12  C   UNL     1       1.458   8.230  20.849  0.00  0.00    +0.000 C 
ATOM     13  C   UNL     1       1.703   6.765  20.487  0.00  0.00    +0.000 C 
ENDBRANCH   4   8
BRANCH   6  14
ATOM     14  S   UNL     1       7.411   5.172  18.429  0.00  0.00    +0.000 S 
BRANCH  14  15
ATOM     15  C   UNL     1       7.113   6.328  17.056  0.00  0.00    +0.000 C 
BRANCH  15  16
ATOM     16  C   UNL     1       6.840   5.569  15.795  0.00  0.00    +0.000 A 
ATOM     17  N   UNL     1       5.758   4.869  15.495  0.00  0.00    +0.000 NA
ATOM     18  C   UNL     1       5.956   4.400  14.214  0.00  0.00    +0.000 A 
ATOM     19  C   UNL     1       5.114   3.634  13.396  0.00  0.00    +0.000 A 
ATOM     20  C   UNL     1       5.554   3.295  12.109  0.00  0.00    +0.000 A 
ATOM     21  C   UNL     1       6.806   3.709  11.647  0.00  0.00    +0.000 A 
ATOM     22  C   UNL     1       7.658   4.476  12.450  0.00  0.00    +0.000 A 
ATOM     23  C   UNL     1       7.195   4.800  13.728  0.00  0.00    +0.000 A 
ATOM     24  N   UNL     1       7.742   5.524  14.753  0.00  0.00    +0.000 N 
ATOM     25  H   UNL     1       8.629   6.001  14.734  0.00  0.00    +0.000 HD
ENDBRANCH  15  16
ENDBRANCH  14  15
ENDBRANCH   6  14
TORSDOF 4
ENDMDL
MODEL 7
REMARK VINA RESULT:      -7.7      1.612      3.936
REMARK  Name = 
REMARK  5 active torsions:
REMARK  status: ('A' for Active; 'I' for Inactive)
REMARK    1  A    between atoms: C_1  and  C_2
REMARK    2  A    between atoms: C_4  and  N_5
REMARK    3  A    between atoms: C_12  and  S_13
REMARK    4  A    between atoms: S_13  and  C_14
REMARK    5  A    between atoms: C_14  and  C_15
REMARK                            x       y       z     vdW  Elec       q    Type
REMARK                         _______ _______ _______ _____ _____    ______ ____
ROOT
ATOM      1  C   UNL     1       2.144   8.877  17.595  0.00  0.00    +0.000 C 
ATOM      2  C   UNL     1       2.942   7.674  17.992  0.00  0.00    +0.000 A 
ATOM      3  C   UNL     1       2.334   6.564  18.539  0.00  0.00    +0.000 A 
ATOM      4  C   UNL     1       3.121   5.452  18.789  0.00  0.00    +0.000 A 
ATOM      5  N   UNL     1       4.441   5.463  18.526  0.00  0.00    +0.000 NA
ATOM      6  C   UNL     1       4.957   6.598  18.026  0.00  0.00    +0.000 A 
ATOM      7  N   UNL     1       4.259   7.712  17.749  0.00  0.00    +0.000 NA
ENDROOT
BRANCH   4   8
ATOM      8  N   UNL     1       2.506   4.281  19.214  0.00  0.00    +0.000 N 
ATOM      9  C   UNL     1       2.265   3.225  18.237  0.00  0.00    +0.000 C 
ATOM     10  C   UNL     1       0.950   2.538  18.621  0.00  0.00    +0.000 C 
ATOM     11  C   UNL     1       0.950   2.060  20.075  0.00  0.00    +0.000 C 
ATOM     12  C   UNL     1       1.387   3.164  21.041  0.00  0.00    +0.000 C 
ATOM     13  C   UNL     1       2.694   3.814  20.588  0.00  0.00    +0.000 C 
ENDBRANCH   4   8
BRANCH   6  14
ATOM     14  S   UNL     1       6.707   6.730  17.776  0.00  0.00    +0.000 S 
BRANCH  14  15
ATOM     15  C   UNL     1       7.117   5.005  17.372  0.00  0.00    +0.000 C 
BRANCH  15  16
ATOM     16  C   UNL     1       6.988   4.777  15.898  0.00  0.00    +0.000 A 
ATOM     17  N   UNL     1       7.693   5.341  14.932  0.00  0.00    +0.000 NA
ATOM     18  C   UNL     1       7.241   4.779  13.757  0.00  0.00    +0.000 A 
ATOM     19  C   UNL     1       7.665   4.989  12.438  0.00  0.00    +0.000 A 
ATOM     20  C   UNL     1       7.039   4.271  11.409  0.00  0.00    +0.000 A 
ATOM     21  C   UNL     1       6.015   3.363  11.689  0.00  0.00    +0.000 A 
ATOM     22  C   UNL     1       5.582   3.140  13.001  0.00  0.00    +0.000 A 
ATOM     23  C   UNL     1       6.221   3.868  14.007  0.00  0.00    +0.000 A 
ATOM     24  N   UNL     1       6.068   3.898  15.367  0.00  0.00    +0.000 N 
ATOM     25  H   UNL     1       5.434   3.327  15.904  0.00  0.00    +0.000 HD
ENDBRANCH  15  16
ENDBRANCH  14  15
ENDBRANCH   6  14
TORSDOF 4
ENDMDL
MODEL 8
REMARK VINA RESULT:      -7.7      4.270      6.782
REMARK  Name = 
REMARK  5 active torsions:
REMARK  status: ('A' for Active; 'I' for Inactive)
REMARK    1  A    between atoms: C_1  and  C_2
REMARK    2  A    between atoms: C_4  and  N_5
REMARK    3  A    between atoms: C_12  and  S_13
REMARK    4  A    between atoms: S_13  and  C_14
REMARK    5  A    between atoms: C_14  and  C_15
REMARK                            x       y       z     vdW  Elec       q    Type
REMARK                         _______ _______ _______ _____ _____    ______ ____
ROOT
ATOM      1  C   UNL     1       5.620   4.101  14.560  0.00  0.00    +0.000 C 
ATOM      2  C   UNL     1       5.492   4.616  15.959  0.00  0.00    +0.000 A 
ATOM      3  C   UNL     1       4.377   4.341  16.722  0.00  0.00    +0.000 A 
ATOM      4  C   UNL     1       4.373   4.766  18.041  0.00  0.00    +0.000 A 
ATOM      5  N   UNL     1       5.417   5.445  18.554  0.00  0.00    +0.000 NA
ATOM      6  C   UNL     1       6.447   5.699  17.730  0.00  0.00    +0.000 A 
ATOM      7  N   UNL     1       6.528   5.313  16.446  0.00  0.00    +0.000 NA
ENDROOT
BRANCH   4   8
ATOM      8  N   UNL     1       3.319   4.385  18.861  0.00  0.00    +0.000 N 
ATOM      9  C   UNL     1       2.412   5.414  19.356  0.00  0.00    +0.000 C 
ATOM     10  C   UNL     1       1.973   4.998  20.765  0.00  0.00    +0.000 C 
ATOM     11  C   UNL     1       1.392   3.582  20.794  0.00  0.00    +0.000 C 
ATOM     12  C   UNL     1       2.308   2.572  20.098  0.00  0.00    +0.000 C 
ATOM     13  C   UNL     1       2.718   3.060  18.708  0.00  0.00    +0.000 C 
ENDBRANCH   4   8
BRANCH   6  14
ATOM     14  S   UNL     1       7.798   6.697  18.299  0.00  0.00    +0.000 S 
BRANCH  14  15
ATOM     15  C   UNL     1       7.411   8.276  17.483  0.00  0.00    +0.000 C 
BRANCH  15  16
ATOM     16  C   UNL     1       8.237   9.376  18.073  0.00  0.00    +0.000 A 
ATOM     17  N   UNL     1       8.952   9.338  19.185  0.00  0.00    +0.000 NA
ATOM     18  C   UNL     1       9.567  10.568  19.282  0.00  0.00    +0.000 A 
ATOM     19  C   UNL     1      10.461  11.053  20.244  0.00  0.00    +0.000 A 
ATOM     20  C   UNL     1      10.958  12.357  20.103  0.00  0.00    +0.000 A 
ATOM     21  C   UNL     1      10.571  13.158  19.026  0.00  0.00    +0.000 A 
ATOM     22  C   UNL     1       9.681  12.688  18.055  0.00  0.00    +0.000 A 
ATOM     23  C   UNL     1       9.201  11.386  18.219  0.00  0.00    +0.000 A 
ATOM     24  N   UNL     1       8.346  10.615  17.478  0.00  0.00    +0.000 N 
ATOM     25  H   UNL     1       7.915  10.880  16.607  0.00  0.00    +0.000 HD
ENDBRANCH  15  16
ENDBRANCH  14  15
ENDBRANCH   6  14
TORSDOF 4
ENDMDL
MODEL 9
REMARK VINA RESULT:      -7.7      2.562      3.336
REMARK  Name = 
REMARK  5 active torsions:
REMARK  status: ('A' for Active; 'I' for Inactive)
REMARK    1  A    between atoms: C_1  and  C_2
REMARK    2  A    between atoms: C_4  and  N_5
REMARK    3  A    between atoms: C_12  and  S_13
REMARK    4  A    between atoms: S_13  and  C_14
REMARK    5  A    between atoms: C_14  and  C_15
REMARK                            x       y       z     vdW  Elec       q    Type
REMARK                         _______ _______ _______ _____ _____    ______ ____
ROOT
ATOM      1  C   UNL     1       2.178   3.402  21.949  0.00  0.00    +0.000 C 
ATOM      2  C   UNL     1       2.125   4.164  20.662  0.00  0.00    +0.000 A 
ATOM      3  C   UNL     1       1.832   5.512  20.643  0.00  0.00    +0.000 A 
ATOM      4  C   UNL     1       1.899   6.171  19.426  0.00  0.00    +0.000 A 
ATOM      5  N   UNL     1       2.220   5.512  18.296  0.00  0.00    +0.000 NA
ATOM      6  C   UNL     1       2.457   4.194  18.402  0.00  0.00    +0.000 A 
ATOM      7  N   UNL     1       2.420   3.488  19.544  0.00  0.00    +0.000 NA
ENDROOT
BRANCH   4   8
ATOM      8  N   UNL     1       1.738   7.550  19.406  0.00  0.00    +0.000 N 
ATOM      9  C   UNL     1       1.579   8.253  20.674  0.00  0.00    +0.000 C 
ATOM     10  C   UNL     1       0.623   9.426  20.431  0.00  0.00    +0.000 C 
ATOM     11  C   UNL     1       1.082  10.316  19.273  0.00  0.00    +0.000 C 
ATOM     12  C   UNL     1       1.408   9.502  18.019  0.00  0.00    +0.000 C 
ATOM     13  C   UNL     1       2.351   8.342  18.339  0.00  0.00    +0.000 C 
ENDBRANCH   4   8
BRANCH   6  14
ATOM     14  S   UNL     1       2.759   3.238  16.939  0.00  0.00    +0.000 S 
BRANCH  14  15
ATOM     15  C   UNL     1       4.478   2.722  17.229  0.00  0.00    +0.000 C 
BRANCH  15  16
ATOM     16  C   UNL     1       5.355   3.923  17.395  0.00  0.00    +0.000 A 
ATOM     17  N   UNL     1       5.388   5.008  16.638  0.00  0.00    +0.000 NA
ATOM     18  C   UNL     1       6.317   5.845  17.217  0.00  0.00    +0.000 A 
ATOM     19  C   UNL     1       6.720   7.135  16.846  0.00  0.00    +0.000 A 
ATOM     20  C   UNL     1       7.690   7.785  17.623  0.00  0.00    +0.000 A 
ATOM     21  C   UNL     1       8.244   7.163  18.745  0.00  0.00    +0.000 A 
ATOM     22  C   UNL     1       7.850   5.877  19.130  0.00  0.00    +0.000 A 
ATOM     23  C   UNL     1       6.883   5.252  18.339  0.00  0.00    +0.000 A 
ATOM     24  N   UNL     1       6.271   4.030  18.420  0.00  0.00    +0.000 N 
ATOM     25  H   UNL     1       6.414   3.343  19.144  0.00  0.00    +0.000 HD
ENDBRANCH  15  16
ENDBRANCH  14  15
ENDBRANCH   6  14
TORSDOF 4
ENDMDL
