MODEL 1
REMARK VINA RESULT:      -7.7      0.000      0.000
REMARK  Name = 
REMARK  3 active torsions:
REMARK  status: ('A' for Active; 'I' for Inactive)
REMARK    1  A    between atoms: O_1  and  C_2
REMARK    2  A    between atoms: N_8  and  C_9
REMARK    3  A    between atoms: C_9  and  C_10
REMARK                            x       y       z     vdW  Elec       q    Type
REMARK                         _______ _______ _______ _____ _____    ______ ____
ROOT
ATOM      1  C   UNL     1       6.471   4.459  13.715  0.00  0.00    +0.000 C 
ATOM      2  C   UNL     1       7.454   4.405  14.865  0.00  0.00    +0.000 C 
ATOM      3  O   UNL     1       6.889   5.219  15.895  0.00  0.00    +0.000 OA
ATOM      4  C   UNL     1       5.447   5.123  15.798  0.00  0.00    +0.000 C 
ATOM      5  C   UNL     1       4.870   6.538  15.929  0.00  0.00    +0.000 C 
ATOM      6  C   UNL     1       4.984   7.065  17.360  0.00  0.00    +0.000 C 
ATOM      7  N   UNL     1       4.359   6.184  18.358  0.00  0.00    +0.000 NA
ATOM      8  C   UNL     1       5.023   4.870  18.305  0.00  0.00    +0.000 C 
ATOM      9  C   UNL     1       4.953   4.201  16.927  0.00  0.00    +0.000 C 
ATOM     10  C   UNL     1       5.136   4.511  14.423  0.00  0.00    +0.000 C 
ENDROOT
BRANCH   1  11
ATOM     11  O   UNL     1       6.544   3.328  12.865  0.00  0.00    +0.000 OA
ATOM     12  H   UNL     1       6.645   3.648  11.952  0.00  0.00    +0.000 HD
ENDBRANCH   1  11
BRANCH   7  13
ATOM     13  C   UNL     1       2.898   6.052  18.231  0.00  0.00    +0.000 C 
BRANCH  13  14
ATOM     14  C   UNL     1       2.302   4.910  19.022  0.00  0.00    +0.000 A 
ATOM     15  C   UNL     1       2.535   4.798  20.402  0.00  0.00    +0.000 A 
ATOM     16  C   UNL     1       1.991   3.738  21.122  0.00  0.00    +0.000 A 
ATOM     17  F   UNL     1       2.229   3.645  22.437  0.00  0.00    +0.000 F 
ATOM     18  C   UNL     1       1.205   2.778  20.500  0.00  0.00    +0.000 A 
ATOM     19  C   UNL     1       0.966   2.895  19.139  0.00  0.00    +0.000 A 
ATOM     20  F   UNL     1       0.200   1.981  18.525  0.00  0.00    +0.000 F 
ATOM     21  C   UNL     1       1.502   3.942  18.395  0.00  0.00    +0.000 A 
ENDBRANCH  13  14
ENDBRANCH   7  13
TORSDOF 3
ENDMDL
MODEL 2
REMARK VINA RESULT:      -7.7      0.087      1.838
REMARK  Name = 
REMARK  3 active torsions:
REMARK  status: ('A' for Active; 'I' for Inactive)
REMARK    1  A    between atoms: O_1  and  C_2
REMARK    2  A    between atoms: N_8  and  C_9
REMARK    3  A    between atoms: C_9  and  C_10
REMARK                            x       y       z     vdW  Elec       q    Type
REMARK                         _______ _______ _______ _____ _____    ______ ____
ROOT
ATOM      1  C   UNL     1       6.406   4.431  13.606  0.00  0.00    +0.000 C 
ATOM      2  C   UNL     1       7.405   4.365  14.742  0.00  0.00    +0.000 C 
ATOM      3  O   UNL     1       6.861   5.181  15.782  0.00  0.00    +0.000 OA
ATOM      4  C   UNL     1       5.418   5.096  15.706  0.00  0.00    +0.000 C 
ATOM      5  C   UNL     1       4.854   6.515  15.849  0.00  0.00    +0.000 C 
ATOM      6  C   UNL     1       4.992   7.037  17.280  0.00  0.00    +0.000 C 
ATOM      7  N   UNL     1       4.374   6.158  18.284  0.00  0.00    +0.000 NA
ATOM      8  C   UNL     1       5.028   4.839  18.218  0.00  0.00    +0.000 C 
ATOM      9  C   UNL     1       4.933   4.175  16.839  0.00  0.00    +0.000 C 
ATOM     10  C   UNL     1       5.082   4.491  14.333  0.00  0.00    +0.000 C 
ENDROOT
BRANCH   1  11
ATOM     11  O   UNL     1       6.459   3.302  12.752  0.00  0.00    +0.000 OA
ATOM     12  H   UNL     1       5.853   2.629  13.109  0.00  0.00    +0.000 HD
ENDBRANCH   1  11
BRANCH   7  13
ATOM     13  C   UNL     1       2.911   6.037  18.177  0.00  0.00    +0.000 C 
BRANCH  13  14
ATOM     14  C   UNL     1       2.315   4.914  18.994  0.00  0.00    +0.000 A 
ATOM     15  C   UNL     1       1.499   3.945  18.389  0.00  0.00    +0.000 A 
ATOM     16  C   UNL     1       0.946   2.919  19.150  0.00  0.00    +0.000 A 
ATOM     17  F   UNL     1       0.164   2.007  18.557  0.00  0.00    +0.000 F 
ATOM     18  C   UNL     1       1.192   2.824  20.513  0.00  0.00    +0.000 A 
ATOM     19  C   UNL     1       2.007   3.776  21.108  0.00  0.00    +0.000 A 
ATOM     20  F   UNL     1       2.263   3.693  22.422  0.00  0.00    +0.000 F 
ATOM     21  C   UNL     1       2.568   4.814  20.370  0.00  0.00    +0.000 A 
ENDBRANCH  13  14
ENDBRANCH   7  13
TORSDOF 3
ENDMDL
MODEL 3
REMARK VINA RESULT:      -7.6      4.075      7.021
REMARK  Name = 
REMARK  3 active torsions:
REMARK  status: ('A' for Active; 'I' for Inactive)
REMARK    1  A    between atoms: O_1  and  C_2
REMARK    2  A    between atoms: N_8  and  C_9
REMARK    3  A    between atoms: C_9  and  C_10
REMARK                            x       y       z     vdW  Elec       q    Type
REMARK                         _______ _______ _______ _____ _____    ______ ____
ROOT
ATOM      1  C   UNL     1       1.965   3.630  20.733  0.00  0.00    +0.000 C 
ATOM      2  C   UNL     1       2.021   5.119  20.465  0.00  0.00    +0.000 C 
ATOM      3  O   UNL     1       3.254   5.341  19.777  0.00  0.00    +0.000 OA
ATOM      4  C   UNL     1       3.541   4.165  18.984  0.00  0.00    +0.000 C 
ATOM      5  C   UNL     1       5.021   3.813  19.180  0.00  0.00    +0.000 C 
ATOM      6  C   UNL     1       5.938   4.812  18.473  0.00  0.00    +0.000 C 
ATOM      7  N   UNL     1       5.651   4.954  17.037  0.00  0.00    +0.000 NA
ATOM      8  C   UNL     1       4.263   5.424  16.881  0.00  0.00    +0.000 C 
ATOM      9  C   UNL     1       3.223   4.491  17.514  0.00  0.00    +0.000 C 
ATOM     10  C   UNL     1       2.622   3.047  19.503  0.00  0.00    +0.000 C 
ENDROOT
BRANCH   1  11
ATOM     11  O   UNL     1       0.644   3.139  20.878  0.00  0.00    +0.000 OA
ATOM     12  H   UNL     1       0.493   2.965  21.823  0.00  0.00    +0.000 HD
ENDBRANCH   1  11
BRANCH   7  13
ATOM     13  C   UNL     1       5.900   3.742  16.239  0.00  0.00    +0.000 C 
BRANCH  13  14
ATOM     14  C   UNL     1       6.299   4.009  14.805  0.00  0.00    +0.000 A 
ATOM     15  C   UNL     1       7.375   4.861  14.509  0.00  0.00    +0.000 A 
ATOM     16  C   UNL     1       7.729   5.109  13.186  0.00  0.00    +0.000 A 
ATOM     17  F   UNL     1       8.755   5.930  12.923  0.00  0.00    +0.000 F 
ATOM     18  C   UNL     1       7.039   4.520  12.136  0.00  0.00    +0.000 A 
ATOM     19  C   UNL     1       5.982   3.670  12.430  0.00  0.00    +0.000 A 
ATOM     20  F   UNL     1       5.311   3.085  11.427  0.00  0.00    +0.000 F 
ATOM     21  C   UNL     1       5.605   3.409  13.744  0.00  0.00    +0.000 A 
ENDBRANCH  13  14
ENDBRANCH   7  13
TORSDOF 3
ENDMDL
MODEL 4
REMARK VINA RESULT:      -7.5      2.140      3.340
REMARK  Name = 
REMARK  3 active torsions:
REMARK  status: ('A' for Active; 'I' for Inactive)
REMARK    1  A    between atoms: O_1  and  C_2
REMARK    2  A    between atoms: N_8  and  C_9
REMARK    3  A    between atoms: C_9  and  C_10
REMARK                            x       y       z     vdW  Elec       q    Type
REMARK                         _______ _______ _______ _____ _____    ______ ____
ROOT
ATOM      1  C   UNL     1       8.390   7.610  18.187  0.00  0.00    +0.000 C 
ATOM      2  C   UNL     1       7.301   8.246  17.350  0.00  0.00    +0.000 C 
ATOM      3  O   UNL     1       6.592   7.160  16.749  0.00  0.00    +0.000 OA
ATOM      4  C   UNL     1       6.632   6.040  17.666  0.00  0.00    +0.000 C 
ATOM      5  C   UNL     1       6.971   4.781  16.858  0.00  0.00    +0.000 C 
ATOM      6  C   UNL     1       5.797   4.338  15.983  0.00  0.00    +0.000 C 
ATOM      7  N   UNL     1       4.554   4.118  16.740  0.00  0.00    +0.000 NA
ATOM      8  C   UNL     1       4.177   5.381  17.399  0.00  0.00    +0.000 C 
ATOM      9  C   UNL     1       5.254   5.927  18.343  0.00  0.00    +0.000 C 
ATOM     10  C   UNL     1       7.722   6.355  18.702  0.00  0.00    +0.000 C 
ENDROOT
BRANCH   1  11
ATOM     11  O   UNL     1       8.818   8.429  19.261  0.00  0.00    +0.000 OA
ATOM     12  H   UNL     1       8.184   9.161  19.348  0.00  0.00    +0.000 HD
ENDBRANCH   1  11
BRANCH   7  13
ATOM     13  C   UNL     1       4.612   3.007  17.704  0.00  0.00    +0.000 C 
BRANCH  13  14
ATOM     14  C   UNL     1       3.406   2.904  18.611  0.00  0.00    +0.000 A 
ATOM     15  C   UNL     1       3.515   3.189  19.981  0.00  0.00    +0.000 A 
ATOM     16  C   UNL     1       2.403   3.081  20.810  0.00  0.00    +0.000 A 
ATOM     17  F   UNL     1       2.527   3.352  22.117  0.00  0.00    +0.000 F 
ATOM     18  C   UNL     1       1.167   2.701  20.307  0.00  0.00    +0.000 A 
ATOM     19  C   UNL     1       1.057   2.430  18.950  0.00  0.00    +0.000 A 
ATOM     20  F   UNL     1      -0.133   2.071  18.446  0.00  0.00    +0.000 F 
ATOM     21  C   UNL     1       2.155   2.525  18.101  0.00  0.00    +0.000 A 
ENDBRANCH  13  14
ENDBRANCH   7  13
TORSDOF 3
ENDMDL
MODEL 5
REMARK VINA RESULT:      -7.5      4.069      7.196
REMARK  Name = 
REMARK  3 active torsions:
REMARK  status: ('A' for Active; 'I' for Inactive)
REMARK    1  A    between atoms: O_1  and  C_2
REMARK    2  A    between atoms: N_8  and  C_9
REMARK    3  A    between atoms: C_9  and  C_10
REMARK                            x       y       z     vdW  Elec       q    Type
REMARK                         _______ _______ _______ _____ _____    ______ ____
ROOT
ATOM      1  C   UNL     1       2.271   3.318  21.464  0.00  0.00    +0.000 C 
ATOM      2  C   UNL     1       1.211   3.909  20.559  0.00  0.00    +0.000 C 
ATOM      3  O   UNL     1       1.923   4.615  19.539  0.00  0.00    +0.000 OA
ATOM      4  C   UNL     1       3.171   3.920  19.306  0.00  0.00    +0.000 C 
ATOM      5  C   UNL     1       4.288   4.970  19.230  0.00  0.00    +0.000 C 
ATOM      6  C   UNL     1       4.214   5.780  17.935  0.00  0.00    +0.000 C 
ATOM      7  N   UNL     1       4.237   4.947  16.722  0.00  0.00    +0.000 NA
ATOM      8  C   UNL     1       3.077   4.039  16.755  0.00  0.00    +0.000 C 
ATOM      9  C   UNL     1       3.041   3.132  17.991  0.00  0.00    +0.000 C 
ATOM     10  C   UNL     1       3.375   2.965  20.493  0.00  0.00    +0.000 C 
ENDROOT
BRANCH   1  11
ATOM     11  O   UNL     1       1.829   2.167  22.162  0.00  0.00    +0.000 OA
ATOM     12  H   UNL     1       2.581   1.554  22.230  0.00  0.00    +0.000 HD
ENDBRANCH   1  11
BRANCH   7  13
ATOM     13  C   UNL     1       5.492   4.206  16.511  0.00  0.00    +0.000 C 
BRANCH  13  14
ATOM     14  C   UNL     1       6.007   4.242  15.090  0.00  0.00    +0.000 A 
ATOM     15  C   UNL     1       5.328   3.562  14.066  0.00  0.00    +0.000 A 
ATOM     16  C   UNL     1       5.815   3.593  12.762  0.00  0.00    +0.000 A 
ATOM     17  F   UNL     1       5.157   2.933  11.799  0.00  0.00    +0.000 F 
ATOM     18  C   UNL     1       6.968   4.296  12.443  0.00  0.00    +0.000 A 
ATOM     19  C   UNL     1       7.632   4.977  13.453  0.00  0.00    +0.000 A 
ATOM     20  F   UNL     1       8.742   5.669  13.160  0.00  0.00    +0.000 F 
ATOM     21  C   UNL     1       7.169   4.958  14.766  0.00  0.00    +0.000 A 
ENDBRANCH  13  14
ENDBRANCH   7  13
TORSDOF 3
ENDMDL
MODEL 6
REMARK VINA RESULT:      -7.5      2.144      3.801
REMARK  Name = 
REMARK  3 active torsions:
REMARK  status: ('A' for Active; 'I' for Inactive)
REMARK    1  A    between atoms: O_1  and  C_2
REMARK    2  A    between atoms: N_8  and  C_9
REMARK    3  A    between atoms: C_9  and  C_10
REMARK                            x       y       z     vdW  Elec       q    Type
REMARK                         _______ _______ _______ _____ _____    ______ ____
ROOT
ATOM      1  C   UNL     1       8.360   7.679  18.114  0.00  0.00    +0.000 C 
ATOM      2  C   UNL     1       7.227   8.336  17.354  0.00  0.00    +0.000 C 
ATOM      3  O   UNL     1       6.507   7.268  16.735  0.00  0.00    +0.000 OA
ATOM      4  C   UNL     1       6.600   6.109  17.598  0.00  0.00    +0.000 C 
ATOM      5  C   UNL     1       6.920   4.892  16.720  0.00  0.00    +0.000 C 
ATOM      6  C   UNL     1       5.715   4.471  15.877  0.00  0.00    +0.000 C 
ATOM      7  N   UNL     1       4.509   4.200  16.675  0.00  0.00    +0.000 NA
ATOM      8  C   UNL     1       4.145   5.427  17.406  0.00  0.00    +0.000 C 
ATOM      9  C   UNL     1       5.255   5.946  18.328  0.00  0.00    +0.000 C 
ATOM     10  C   UNL     1       7.731   6.394  18.600  0.00  0.00    +0.000 C 
ENDROOT
BRANCH   1  11
ATOM     11  O   UNL     1       8.823   8.455  19.205  0.00  0.00    +0.000 OA
ATOM     12  H   UNL     1       8.786   7.900  20.002  0.00  0.00    +0.000 HD
ENDBRANCH   1  11
BRANCH   7  13
ATOM     13  C   UNL     1       4.622   3.048  17.585  0.00  0.00    +0.000 C 
BRANCH  13  14
ATOM     14  C   UNL     1       3.452   2.879  18.527  0.00  0.00    +0.000 A 
ATOM     15  C   UNL     1       2.183   2.533  18.036  0.00  0.00    +0.000 A 
ATOM     16  C   UNL     1       1.109   2.389  18.910  0.00  0.00    +0.000 A 
ATOM     17  F   UNL     1      -0.096   2.064  18.422  0.00  0.00    +0.000 F 
ATOM     18  C   UNL     1       1.265   2.574  20.276  0.00  0.00    +0.000 A 
ATOM     19  C   UNL     1       2.522   2.905  20.762  0.00  0.00    +0.000 A 
ATOM     20  F   UNL     1       2.692   3.078  22.081  0.00  0.00    +0.000 F 
ATOM     21  C   UNL     1       3.611   3.060  19.909  0.00  0.00    +0.000 A 
ENDBRANCH  13  14
ENDBRANCH   7  13
TORSDOF 3
ENDMDL
MODEL 7
REMARK VINA RESULT:      -7.3      3.954      7.099
REMARK  Name = 
REMARK  3 active torsions:
REMARK  status: ('A' for Active; 'I' for Inactive)
REMARK    1  A    between atoms: O_1  and  C_2
REMARK    2  A    between atoms: N_8  and  C_9
REMARK    3  A    between atoms: C_9  and  C_10
REMARK                            x       y       z     vdW  Elec       q    Type
REMARK                         _______ _______ _______ _____ _____    ______ ____
ROOT
ATOM      1  C   UNL     1       2.396   4.880  20.439  0.00  0.00    +0.000 C 
ATOM      2  C   UNL     1       2.461   6.315  19.961  0.00  0.00    +0.000 C 
ATOM      3  O   UNL     1       3.748   6.463  19.358  0.00  0.00    +0.000 OA
ATOM      4  C   UNL     1       4.116   5.191  18.773  0.00  0.00    +0.000 C 
ATOM      5  C   UNL     1       5.576   4.905  19.146  0.00  0.00    +0.000 C 
ATOM      6  C   UNL     1       6.542   5.812  18.383  0.00  0.00    +0.000 C 
ATOM      7  N   UNL     1       6.383   5.738  16.922  0.00  0.00    +0.000 NA
ATOM      8  C   UNL     1       5.010   6.149  16.579  0.00  0.00    +0.000 C 
ATOM      9  C   UNL     1       3.928   5.294  17.249  0.00  0.00    +0.000 C 
ATOM     10  C   UNL     1       3.165   4.140  19.368  0.00  0.00    +0.000 C 
ENDROOT
BRANCH   1  11
ATOM     11  O   UNL     1       1.072   4.385  20.538  0.00  0.00    +0.000 OA
ATOM     12  H   UNL     1       0.925   3.775  19.794  0.00  0.00    +0.000 HD
ENDBRANCH   1  11
BRANCH   7  13
ATOM     13  C   UNL     1       6.714   4.430  16.334  0.00  0.00    +0.000 C 
BRANCH  13  14
ATOM     14  C   UNL     1       6.800   4.426  14.825  0.00  0.00    +0.000 A 
ATOM     15  C   UNL     1       6.017   3.541  14.066  0.00  0.00    +0.000 A 
ATOM     16  C   UNL     1       6.110   3.537  12.678  0.00  0.00    +0.000 A 
ATOM     17  F   UNL     1       5.360   2.681  11.970  0.00  0.00    +0.000 F 
ATOM     18  C   UNL     1       6.963   4.407  12.013  0.00  0.00    +0.000 A 
ATOM     19  C   UNL     1       7.728   5.290  12.763  0.00  0.00    +0.000 A 
ATOM     20  F   UNL     1       8.550   6.143  12.136  0.00  0.00    +0.000 F 
ATOM     21  C   UNL     1       7.658   5.309  14.153  0.00  0.00    +0.000 A 
ENDBRANCH  13  14
ENDBRANCH   7  13
TORSDOF 3
ENDMDL
MODEL 8
REMARK VINA RESULT:      -7.2      4.079      7.090
REMARK  Name = 
REMARK  3 active torsions:
REMARK  status: ('A' for Active; 'I' for Inactive)
REMARK    1  A    between atoms: O_1  and  C_2
REMARK    2  A    between atoms: N_8  and  C_9
REMARK    3  A    between atoms: C_9  and  C_10
REMARK                            x       y       z     vdW  Elec       q    Type
REMARK                         _______ _______ _______ _____ _____    ______ ____
ROOT
ATOM      1  C   UNL     1       1.666   5.799  20.583  0.00  0.00    +0.000 C 
ATOM      2  C   UNL     1       2.509   4.636  21.060  0.00  0.00    +0.000 C 
ATOM      3  O   UNL     1       3.082   4.065  19.881  0.00  0.00    +0.000 OA
ATOM      4  C   UNL     1       3.290   5.132  18.926  0.00  0.00    +0.000 C 
ATOM      5  C   UNL     1       2.801   4.642  17.557  0.00  0.00    +0.000 C 
ATOM      6  C   UNL     1       3.743   3.595  16.962  0.00  0.00    +0.000 C 
ATOM      7  N   UNL     1       5.135   4.058  16.850  0.00  0.00    +0.000 NA
ATOM      8  C   UNL     1       5.626   4.396  18.198  0.00  0.00    +0.000 C 
ATOM      9  C   UNL     1       4.791   5.470  18.905  0.00  0.00    +0.000 C 
ATOM     10  C   UNL     1       2.470   6.335  19.420  0.00  0.00    +0.000 C 
ENDROOT
BRANCH   1  11
ATOM     11  O   UNL     1       1.486   6.799  21.571  0.00  0.00    +0.000 OA
ATOM     12  H   UNL     1       2.355   7.194  21.757  0.00  0.00    +0.000 HD
ENDBRANCH   1  11
BRANCH   7  13
ATOM     13  C   UNL     1       5.338   5.173  15.911  0.00  0.00    +0.000 C 
BRANCH  13  14
ATOM     14  C   UNL     1       5.985   4.780  14.603  0.00  0.00    +0.000 A 
ATOM     15  C   UNL     1       7.186   5.379  14.191  0.00  0.00    +0.000 A 
ATOM     16  C   UNL     1       7.770   5.018  12.980  0.00  0.00    +0.000 A 
ATOM     17  F   UNL     1       8.914   5.605  12.600  0.00  0.00    +0.000 F 
ATOM     18  C   UNL     1       7.191   4.059  12.162  0.00  0.00    +0.000 A 
ATOM     19  C   UNL     1       6.010   3.459  12.575  0.00  0.00    +0.000 A 
ATOM     20  F   UNL     1       5.441   2.523  11.800  0.00  0.00    +0.000 F 
ATOM     21  C   UNL     1       5.402   3.806  13.778  0.00  0.00    +0.000 A 
ENDBRANCH  13  14
ENDBRANCH   7  13
TORSDOF 3
ENDMDL
MODEL 9
REMARK VINA RESULT:      -7.2      3.955      6.861
REMARK  Name = 
REMARK  3 active torsions:
REMARK  status: ('A' for Active; 'I' for Inactive)
REMARK    1  A    between atoms: O_1  and  C_2
REMARK    2  A    between atoms: N_8  and  C_9
REMARK    3  A    between atoms: C_9  and  C_10
REMARK                            x       y       z     vdW  Elec       q    Type
REMARK                         _______ _______ _______ _____ _____    ______ ____
ROOT
ATOM      1  C   UNL     1       1.567   2.761  19.694  0.00  0.00    +0.000 C 
ATOM      2  C   UNL     1       2.657   3.242  20.628  0.00  0.00    +0.000 C 
ATOM      3  O   UNL     1       3.793   3.496  19.798  0.00  0.00    +0.000 OA
ATOM      4  C   UNL     1       3.311   3.933  18.505  0.00  0.00    +0.000 C 
ATOM      5  C   UNL     1       4.110   3.189  17.427  0.00  0.00    +0.000 C 
ATOM      6  C   UNL     1       5.549   3.699  17.337  0.00  0.00    +0.000 C 
ATOM      7  N   UNL     1       5.641   5.149  17.105  0.00  0.00    +0.000 NA
ATOM      8  C   UNL     1       4.982   5.845  18.225  0.00  0.00    +0.000 C 
ATOM      9  C   UNL     1       3.511   5.456  18.411  0.00  0.00    +0.000 C 
ATOM     10  C   UNL     1       1.817   3.577  18.446  0.00  0.00    +0.000 C 
ENDROOT
BRANCH   1  11
ATOM     11  O   UNL     1       0.262   2.994  20.193  0.00  0.00    +0.000 OA
ATOM     12  H   UNL     1       0.290   2.889  21.160  0.00  0.00    +0.000 HD
ENDBRANCH   1  11
BRANCH   7  13
ATOM     13  C   UNL     1       5.109   5.598  15.808  0.00  0.00    +0.000 C 
BRANCH  13  14
ATOM     14  C   UNL     1       5.858   5.066  14.607  0.00  0.00    +0.000 A 
ATOM     15  C   UNL     1       7.115   5.587  14.260  0.00  0.00    +0.000 A 
ATOM     16  C   UNL     1       7.793   5.099  13.147  0.00  0.00    +0.000 A 
ATOM     17  F   UNL     1       8.989   5.613  12.827  0.00  0.00    +0.000 F 
ATOM     18  C   UNL     1       7.254   4.087  12.365  0.00  0.00    +0.000 A 
ATOM     19  C   UNL     1       6.017   3.564  12.715  0.00  0.00    +0.000 A 
ATOM     20  F   UNL     1       5.487   2.580  11.976  0.00  0.00    +0.000 F 
ATOM     21  C   UNL     1       5.316   4.039  13.820  0.00  0.00    +0.000 A 
ENDBRANCH  13  14
ENDBRANCH   7  13
TORSDOF 3
ENDMDL
