MODEL 1
REMARK VINA RESULT:      -8.0      0.000      0.000
REMARK  Name = 
REMARK  12 active torsions:
REMARK  status: ('A' for Active; 'I' for Inactive)
REMARK    1  A    between atoms: C_1  and  O_2
REMARK    2  A    between atoms: O_2  and  C_3
REMARK    3  A    between atoms: C_5  and  C_6
REMARK    4  A    between atoms: C_7  and  C_8
REMARK    5  A    between atoms: N_10  and  O_11
REMARK    6  A    between atoms: C_14  and  O_15
REMARK    7  A    between atoms: O_15  and  C_16
REMARK    8  A    between atoms: C_16  and  C_17
REMARK    9  A    between atoms: C_17  and  C_18
REMARK   10  A    between atoms: C_17  and  N_28
REMARK   11  A    between atoms: C_18  and  C_19
REMARK   12  A    between atoms: C_29  and  C_31
REMARK                            x       y       z     vdW  Elec       q    Type
REMARK                         _______ _______ _______ _____ _____    ______ ____
ROOT
ATOM      1  C   UNL     1       1.875   7.289  20.431  0.00  0.00    +0.000 C 
ENDROOT
BRANCH   1   2
ATOM      2  N   UNL     1       1.030   8.502  20.437  0.00  0.00    +0.000 N 
ATOM      3  C   UNL     1       0.843   9.279  21.578  0.00  0.00    +0.000 C 
ATOM      4  O   UNL     1       1.264   8.931  22.684  0.00  0.00    +0.000 OA
ATOM      5  H   UNL     1       0.914   8.938  19.542  0.00  0.00    +0.000 HD
BRANCH   3   6
ATOM      6  C   UNL     1       0.189  10.624  21.400  0.00  0.00    +0.000 A 
ATOM      7  C   UNL     1       0.135  11.306  20.177  0.00  0.00    +0.000 A 
ATOM      8  C   UNL     1      -0.485  12.559  20.082  0.00  0.00    +0.000 A 
ATOM      9  C   UNL     1      -1.073  13.147  21.204  0.00  0.00    +0.000 A 
ATOM     10  C   UNL     1      -1.044  12.474  22.421  0.00  0.00    +0.000 A 
ATOM     11  C   UNL     1      -0.413  11.226  22.520  0.00  0.00    +0.000 A 
ENDBRANCH   3   6
ENDBRANCH   1   2
BRANCH   1  12
ATOM     12  C   UNL     1       2.657   7.134  19.100  0.00  0.00    +0.000 C 
BRANCH  12  13
ATOM     13  O   UNL     1       4.027   6.795  19.283  0.00  0.00    +0.000 OA
BRANCH  13  19
ATOM     14  C   UNL     1       5.822   5.252  18.451  0.00  0.00    +0.000 A 
ATOM     15  C   UNL     1       6.306   4.581  17.314  0.00  0.00    +0.000 A 
ATOM     16  C   UNL     1       5.741   4.781  16.049  0.00  0.00    +0.000 A 
ATOM     17  C   UNL     1       4.602   5.581  15.950  0.00  0.00    +0.000 A 
ATOM     18  C   UNL     1       4.063   6.174  17.088  0.00  0.00    +0.000 A 
ATOM     19  C   UNL     1       4.681   6.064  18.333  0.00  0.00    +0.000 A 
BRANCH  14  21
ATOM     20  C   UNL     1       7.800   5.556  19.723  0.00  0.00    +0.000 C 
ATOM     21  O   UNL     1       6.435   5.127  19.671  0.00  0.00    +0.000 OA
ENDBRANCH  14  21
BRANCH  16  22
ATOM     22  C   UNL     1       6.449   4.269  14.867  0.00  0.00    +0.000 C 
ATOM     23  C   UNL     1       5.859   3.964  13.702  0.00  0.00    +0.000 C 
BRANCH  23  24
ATOM     24  C   UNL     1       6.679   3.577  12.526  0.00  0.00    +0.000 C 
ATOM     25  O   UNL     1       7.385   4.361  11.898  0.00  0.00    +0.000 OA
ATOM     26  N   UNL     1       6.522   2.260  12.178  0.00  0.00    +0.000 N 
ATOM     27  H   UNL     1       5.817   1.632  12.564  0.00  0.00    +0.000 HD
BRANCH  26  28
ATOM     28  O   UNL     1       7.098   1.863  10.962  0.00  0.00    +0.000 OA
ATOM     29  H   UNL     1       6.440   1.215  10.616  0.00  0.00    +0.000 HD
ENDBRANCH  26  28
ENDBRANCH  23  24
ENDBRANCH  16  22
ENDBRANCH  13  19
ENDBRANCH  12  13
ENDBRANCH   1  12
BRANCH   1  30
ATOM     30  C   UNL     1       1.173   5.964  20.760  0.00  0.00    +0.000 C 
BRANCH  30  31
ATOM     31  C   UNL     1       1.852   4.643  20.518  0.00  0.00    +0.000 A 
ATOM     32  C   UNL     1       2.236   3.811  21.556  0.00  0.00    +0.000 A 
ATOM     33  N   UNL     1       3.398   3.249  21.110  0.00  0.00    +0.000 N 
ATOM     34  C   UNL     1       3.154   2.918  19.800  0.00  0.00    +0.000 A 
ATOM     35  C   UNL     1       3.718   1.903  19.030  0.00  0.00    +0.000 A 
ATOM     36  C   UNL     1       3.252   1.783  17.729  0.00  0.00    +0.000 A 
ATOM     37  C   UNL     1       2.366   2.728  17.208  0.00  0.00    +0.000 A 
ATOM     38  C   UNL     1       1.885   3.809  17.984  0.00  0.00    +0.000 A 
ATOM     39  C   UNL     1       2.222   3.867  19.352  0.00  0.00    +0.000 A 
ATOM     40  H   UNL     1       4.317   3.549  21.411  0.00  0.00    +0.000 HD
ENDBRANCH  30  31
ENDBRANCH   1  30
TORSDOF 11
ENDMDL
MODEL 2
REMARK VINA RESULT:      -7.8      3.128      7.521
REMARK  Name = 
REMARK  12 active torsions:
REMARK  status: ('A' for Active; 'I' for Inactive)
REMARK    1  A    between atoms: C_1  and  O_2
REMARK    2  A    between atoms: O_2  and  C_3
REMARK    3  A    between atoms: C_5  and  C_6
REMARK    4  A    between atoms: C_7  and  C_8
REMARK    5  A    between atoms: N_10  and  O_11
REMARK    6  A    between atoms: C_14  and  O_15
REMARK    7  A    between atoms: O_15  and  C_16
REMARK    8  A    between atoms: C_16  and  C_17
REMARK    9  A    between atoms: C_17  and  C_18
REMARK   10  A    between atoms: C_17  and  N_28
REMARK   11  A    between atoms: C_18  and  C_19
REMARK   12  A    between atoms: C_29  and  C_31
REMARK                            x       y       z     vdW  Elec       q    Type
REMARK                         _______ _______ _______ _____ _____    ______ ____
ROOT
ATOM      1  C   UNL     1       0.057  10.813  21.098  0.00  0.00    +0.000 C 
ENDROOT
BRANCH   1   2
ATOM      2  N   UNL     1      -0.886  10.477  20.010  0.00  0.00    +0.000 N 
ATOM      3  C   UNL     1      -1.480  11.449  19.207  0.00  0.00    +0.000 C 
ATOM      4  O   UNL     1      -1.359  12.654  19.438  0.00  0.00    +0.000 OA
ATOM      5  H   UNL     1      -0.788   9.550  19.640  0.00  0.00    +0.000 HD
BRANCH   3   6
ATOM      6  C   UNL     1      -2.202  10.978  17.972  0.00  0.00    +0.000 A 
ATOM      7  C   UNL     1      -1.708   9.987  17.112  0.00  0.00    +0.000 A 
ATOM      8  C   UNL     1      -2.430   9.600  15.976  0.00  0.00    +0.000 A 
ATOM      9  C   UNL     1      -3.664  10.186  15.684  0.00  0.00    +0.000 A 
ATOM     10  C   UNL     1      -4.176  11.159  16.538  0.00  0.00    +0.000 A 
ATOM     11  C   UNL     1      -3.449  11.555  17.669  0.00  0.00    +0.000 A 
ENDBRANCH   3   6
ENDBRANCH   1   2
BRANCH   1  12
ATOM     12  C   UNL     1       1.173   9.747  21.248  0.00  0.00    +0.000 C 
BRANCH  12  13
ATOM     13  O   UNL     1       0.799   8.462  20.761  0.00  0.00    +0.000 OA
BRANCH  13  19
ATOM     14  C   UNL     1       2.137   6.486  19.987  0.00  0.00    +0.000 A 
ATOM     15  C   UNL     1       2.969   6.010  18.958  0.00  0.00    +0.000 A 
ATOM     16  C   UNL     1       3.379   6.838  17.905  0.00  0.00    +0.000 A 
ATOM     17  C   UNL     1       2.852   8.128  17.831  0.00  0.00    +0.000 A 
ATOM     18  C   UNL     1       1.955   8.573  18.798  0.00  0.00    +0.000 A 
ATOM     19  C   UNL     1       1.624   7.792  19.904  0.00  0.00    +0.000 A 
BRANCH  14  21
ATOM     20  C   UNL     1       2.086   4.306  20.919  0.00  0.00    +0.000 C 
ATOM     21  O   UNL     1       1.813   5.704  21.065  0.00  0.00    +0.000 OA
ENDBRANCH  14  21
BRANCH  16  22
ATOM     22  C   UNL     1       4.452   6.373  17.015  0.00  0.00    +0.000 C 
ATOM     23  C   UNL     1       5.316   5.392  17.317  0.00  0.00    +0.000 C 
BRANCH  23  24
ATOM     24  C   UNL     1       6.283   4.906  16.299  0.00  0.00    +0.000 C 
ATOM     25  O   UNL     1       7.434   5.321  16.200  0.00  0.00    +0.000 OA
ATOM     26  N   UNL     1       5.737   3.984  15.443  0.00  0.00    +0.000 N 
ATOM     27  H   UNL     1       4.745   3.752  15.388  0.00  0.00    +0.000 HD
BRANCH  26  28
ATOM     28  O   UNL     1       6.515   3.627  14.333  0.00  0.00    +0.000 OA
ATOM     29  H   UNL     1       6.478   2.642  14.356  0.00  0.00    +0.000 HD
ENDBRANCH  26  28
ENDBRANCH  23  24
ENDBRANCH  16  22
ENDBRANCH  13  19
ENDBRANCH  12  13
ENDBRANCH   1  12
BRANCH   1  30
ATOM     30  C   UNL     1      -0.561  11.093  22.477  0.00  0.00    +0.000 C 
BRANCH  30  31
ATOM     31  C   UNL     1      -1.160  12.434  22.802  0.00  0.00    +0.000 A 
ATOM     32  C   UNL     1      -0.477  13.619  22.583  0.00  0.00    +0.000 A 
ATOM     33  N   UNL     1      -0.864  14.415  23.623  0.00  0.00    +0.000 N 
ATOM     34  C   UNL     1      -2.219  14.222  23.734  0.00  0.00    +0.000 A 
ATOM     35  C   UNL     1      -3.196  15.094  24.212  0.00  0.00    +0.000 A 
ATOM     36  C   UNL     1      -4.505  14.635  24.178  0.00  0.00    +0.000 A 
ATOM     37  C   UNL     1      -4.779  13.316  23.807  0.00  0.00    +0.000 A 
ATOM     38  C   UNL     1      -3.755  12.420  23.421  0.00  0.00    +0.000 A 
ATOM     39  C   UNL     1      -2.437  12.905  23.299  0.00  0.00    +0.000 A 
ATOM     40  H   UNL     1      -0.292  14.588  24.440  0.00  0.00    +0.000 HD
ENDBRANCH  30  31
ENDBRANCH   1  30
TORSDOF 11
ENDMDL
MODEL 3
REMARK VINA RESULT:      -7.7      3.271      6.098
REMARK  Name = 
REMARK  12 active torsions:
REMARK  status: ('A' for Active; 'I' for Inactive)
REMARK    1  A    between atoms: C_1  and  O_2
REMARK    2  A    between atoms: O_2  and  C_3
REMARK    3  A    between atoms: C_5  and  C_6
REMARK    4  A    between atoms: C_7  and  C_8
REMARK    5  A    between atoms: N_10  and  O_11
REMARK    6  A    between atoms: C_14  and  O_15
REMARK    7  A    between atoms: O_15  and  C_16
REMARK    8  A    between atoms: C_16  and  C_17
REMARK    9  A    between atoms: C_17  and  C_18
REMARK   10  A    between atoms: C_17  and  N_28
REMARK   11  A    between atoms: C_18  and  C_19
REMARK   12  A    between atoms: C_29  and  C_31
REMARK                            x       y       z     vdW  Elec       q    Type
REMARK                         _______ _______ _______ _____ _____    ______ ____
ROOT
ATOM      1  C   UNL     1       0.750  10.759  20.196  0.00  0.00    +0.000 C 
ENDROOT
BRANCH   1   2
ATOM      2  N   UNL     1       1.264  12.094  19.824  0.00  0.00    +0.000 N 
ATOM      3  C   UNL     1       1.266  13.169  20.711  0.00  0.00    +0.000 C 
ATOM      4  O   UNL     1       0.719  13.110  21.814  0.00  0.00    +0.000 OA
ATOM      5  H   UNL     1       1.932  12.094  19.077  0.00  0.00    +0.000 HD
BRANCH   3   6
ATOM      6  C   UNL     1       2.054  14.390  20.315  0.00  0.00    +0.000 A 
ATOM      7  C   UNL     1       1.635  15.703  20.572  0.00  0.00    +0.000 A 
ATOM      8  C   UNL     1       2.415  16.795  20.171  0.00  0.00    +0.000 A 
ATOM      9  C   UNL     1       3.633  16.596  19.517  0.00  0.00    +0.000 A 
ATOM     10  C   UNL     1       4.071  15.298  19.271  0.00  0.00    +0.000 A 
ATOM     11  C   UNL     1       3.286  14.205  19.661  0.00  0.00    +0.000 A 
ENDBRANCH   3   6
ENDBRANCH   1   2
BRANCH   1  12
ATOM     12  C   UNL     1       1.178   9.668  19.179  0.00  0.00    +0.000 C 
BRANCH  12  13
ATOM     13  O   UNL     1       1.546   8.436  19.790  0.00  0.00    +0.000 OA
BRANCH  13  19
ATOM     14  C   UNL     1       2.718   6.243  19.457  0.00  0.00    +0.000 A 
ATOM     15  C   UNL     1       3.562   5.526  18.590  0.00  0.00    +0.000 A 
ATOM     16  C   UNL     1       4.124   6.123  17.455  0.00  0.00    +0.000 A 
ATOM     17  C   UNL     1       3.741   7.425  17.131  0.00  0.00    +0.000 A 
ATOM     18  C   UNL     1       2.834   8.108  17.936  0.00  0.00    +0.000 A 
ATOM     19  C   UNL     1       2.351   7.558  19.123  0.00  0.00    +0.000 A 
BRANCH  14  21
ATOM     20  C   UNL     1       1.320   4.607  20.452  0.00  0.00    +0.000 C 
ATOM     21  O   UNL     1       2.244   5.687  20.616  0.00  0.00    +0.000 OA
ENDBRANCH  14  21
BRANCH  16  22
ATOM     22  C   UNL     1       5.200   5.418  16.743  0.00  0.00    +0.000 C 
ATOM     23  C   UNL     1       5.097   4.944  15.493  0.00  0.00    +0.000 C 
BRANCH  23  24
ATOM     24  C   UNL     1       6.282   4.360  14.813  0.00  0.00    +0.000 C 
ATOM     25  O   UNL     1       7.440   4.563  15.167  0.00  0.00    +0.000 OA
ATOM     26  N   UNL     1       5.950   3.615  13.711  0.00  0.00    +0.000 N 
ATOM     27  H   UNL     1       5.022   3.572  13.290  0.00  0.00    +0.000 HD
BRANCH  26  28
ATOM     28  O   UNL     1       7.014   3.198  12.897  0.00  0.00    +0.000 OA
ATOM     29  H   UNL     1       7.293   4.040  12.466  0.00  0.00    +0.000 HD
ENDBRANCH  26  28
ENDBRANCH  23  24
ENDBRANCH  16  22
ENDBRANCH  13  19
ENDBRANCH  12  13
ENDBRANCH   1  12
BRANCH   1  30
ATOM     30  C   UNL     1      -0.763  10.652  20.441  0.00  0.00    +0.000 C 
BRANCH  30  31
ATOM     31  C   UNL     1      -1.752  11.205  19.451  0.00  0.00    +0.000 A 
ATOM     32  C   UNL     1      -2.360  12.437  19.626  0.00  0.00    +0.000 A 
ATOM     33  N   UNL     1      -3.617  12.254  19.125  0.00  0.00    +0.000 N 
ATOM     34  C   UNL     1      -3.436  11.553  17.958  0.00  0.00    +0.000 A 
ATOM     35  C   UNL     1      -4.224  11.541  16.809  0.00  0.00    +0.000 A 
ATOM     36  C   UNL     1      -3.775  10.751  15.760  0.00  0.00    +0.000 A 
ATOM     37  C   UNL     1      -2.665   9.921  15.929  0.00  0.00    +0.000 A 
ATOM     38  C   UNL     1      -1.941   9.879  17.143  0.00  0.00    +0.000 A 
ATOM     39  C   UNL     1      -2.282  10.783  18.170  0.00  0.00    +0.000 A 
ATOM     40  H   UNL     1      -4.434  12.106  19.703  0.00  0.00    +0.000 HD
ENDBRANCH  30  31
ENDBRANCH   1  30
TORSDOF 11
ENDMDL
MODEL 4
REMARK VINA RESULT:      -7.6      2.961      7.425
REMARK  Name = 
REMARK  12 active torsions:
REMARK  status: ('A' for Active; 'I' for Inactive)
REMARK    1  A    between atoms: C_1  and  O_2
REMARK    2  A    between atoms: O_2  and  C_3
REMARK    3  A    between atoms: C_5  and  C_6
REMARK    4  A    between atoms: C_7  and  C_8
REMARK    5  A    between atoms: N_10  and  O_11
REMARK    6  A    between atoms: C_14  and  O_15
REMARK    7  A    between atoms: O_15  and  C_16
REMARK    8  A    between atoms: C_16  and  C_17
REMARK    9  A    between atoms: C_17  and  C_18
REMARK   10  A    between atoms: C_17  and  N_28
REMARK   11  A    between atoms: C_18  and  C_19
REMARK   12  A    between atoms: C_29  and  C_31
REMARK                            x       y       z     vdW  Elec       q    Type
REMARK                         _______ _______ _______ _____ _____    ______ ____
ROOT
ATOM      1  C   UNL     1       0.208  10.415  21.266  0.00  0.00    +0.000 C 
ENDROOT
BRANCH   1   2
ATOM      2  N   UNL     1      -0.862  10.311  20.251  0.00  0.00    +0.000 N 
ATOM      3  C   UNL     1      -1.143  11.339  19.353  0.00  0.00    +0.000 C 
ATOM      4  O   UNL     1      -0.607  12.446  19.434  0.00  0.00    +0.000 OA
ATOM      5  H   UNL     1      -1.107   9.375  19.992  0.00  0.00    +0.000 HD
BRANCH   3   6
ATOM      6  C   UNL     1      -2.061  11.019  18.202  0.00  0.00    +0.000 A 
ATOM      7  C   UNL     1      -3.295  11.651  17.993  0.00  0.00    +0.000 A 
ATOM      8  C   UNL     1      -4.104  11.301  16.904  0.00  0.00    +0.000 A 
ATOM      9  C   UNL     1      -3.690  10.323  15.997  0.00  0.00    +0.000 A 
ATOM     10  C   UNL     1      -2.459   9.700  16.181  0.00  0.00    +0.000 A 
ATOM     11  C   UNL     1      -1.655  10.040  17.276  0.00  0.00    +0.000 A 
ENDBRANCH   3   6
ENDBRANCH   1   2
BRANCH   1  12
ATOM     12  C   UNL     1       1.020   9.098  21.388  0.00  0.00    +0.000 C 
BRANCH  12  13
ATOM     13  O   UNL     1       0.748   8.166  20.348  0.00  0.00    +0.000 OA
BRANCH  13  19
ATOM     14  C   UNL     1       2.156   8.467  18.293  0.00  0.00    +0.000 A 
ATOM     15  C   UNL     1       3.216   7.916  17.551  0.00  0.00    +0.000 A 
ATOM     16  C   UNL     1       3.793   6.688  17.899  0.00  0.00    +0.000 A 
ATOM     17  C   UNL     1       3.371   6.065  19.074  0.00  0.00    +0.000 A 
ATOM     18  C   UNL     1       2.385   6.653  19.861  0.00  0.00    +0.000 A 
ATOM     19  C   UNL     1       1.733   7.820  19.468  0.00  0.00    +0.000 A 
BRANCH  14  21
ATOM     20  C   UNL     1       2.261  10.829  18.123  0.00  0.00    +0.000 C 
ATOM     21  O   UNL     1       1.530   9.620  17.897  0.00  0.00    +0.000 OA
ENDBRANCH  14  21
BRANCH  16  22
ATOM     22  C   UNL     1       4.703   6.037  16.945  0.00  0.00    +0.000 C 
ATOM     23  C   UNL     1       5.780   5.320  17.294  0.00  0.00    +0.000 C 
BRANCH  23  24
ATOM     24  C   UNL     1       6.563   4.593  16.261  0.00  0.00    +0.000 C 
ATOM     25  O   UNL     1       7.789   4.536  16.250  0.00  0.00    +0.000 OA
ATOM     26  N   UNL     1       5.773   4.039  15.286  0.00  0.00    +0.000 N 
ATOM     27  H   UNL     1       4.776   4.216  15.170  0.00  0.00    +0.000 HD
BRANCH  26  28
ATOM     28  O   UNL     1       6.439   3.513  14.170  0.00  0.00    +0.000 OA
ATOM     29  H   UNL     1       5.710   3.064  13.680  0.00  0.00    +0.000 HD
ENDBRANCH  26  28
ENDBRANCH  23  24
ENDBRANCH  16  22
ENDBRANCH  13  19
ENDBRANCH  12  13
ENDBRANCH   1  12
BRANCH   1  30
ATOM     30  C   UNL     1      -0.220  10.874  22.667  0.00  0.00    +0.000 C 
BRANCH  30  31
ATOM     31  C   UNL     1      -1.222  11.981  22.850  0.00  0.00    +0.000 A 
ATOM     32  C   UNL     1      -2.497  11.747  23.339  0.00  0.00    +0.000 A 
ATOM     33  N   UNL     1      -3.277  12.635  22.654  0.00  0.00    +0.000 N 
ATOM     34  C   UNL     1      -2.566  13.810  22.658  0.00  0.00    +0.000 A 
ATOM     35  C   UNL     1      -3.034  15.121  22.600  0.00  0.00    +0.000 A 
ATOM     36  C   UNL     1      -2.076  16.123  22.653  0.00  0.00    +0.000 A 
ATOM     37  C   UNL     1      -0.717  15.800  22.628  0.00  0.00    +0.000 A 
ATOM     38  C   UNL     1      -0.269  14.459  22.587  0.00  0.00    +0.000 A 
ATOM     39  C   UNL     1      -1.218  13.421  22.687  0.00  0.00    +0.000 A 
ATOM     40  H   UNL     1      -3.858  12.379  21.866  0.00  0.00    +0.000 HD
ENDBRANCH  30  31
ENDBRANCH   1  30
TORSDOF 11
ENDMDL
MODEL 5
REMARK VINA RESULT:      -7.5      3.289      6.042
REMARK  Name = 
REMARK  12 active torsions:
REMARK  status: ('A' for Active; 'I' for Inactive)
REMARK    1  A    between atoms: C_1  and  O_2
REMARK    2  A    between atoms: O_2  and  C_3
REMARK    3  A    between atoms: C_5  and  C_6
REMARK    4  A    between atoms: C_7  and  C_8
REMARK    5  A    between atoms: N_10  and  O_11
REMARK    6  A    between atoms: C_14  and  O_15
REMARK    7  A    between atoms: O_15  and  C_16
REMARK    8  A    between atoms: C_16  and  C_17
REMARK    9  A    between atoms: C_17  and  C_18
REMARK   10  A    between atoms: C_17  and  N_28
REMARK   11  A    between atoms: C_18  and  C_19
REMARK   12  A    between atoms: C_29  and  C_31
REMARK                            x       y       z     vdW  Elec       q    Type
REMARK                         _______ _______ _______ _____ _____    ______ ____
ROOT
ATOM      1  C   UNL     1       0.411  10.131  20.520  0.00  0.00    +0.000 C 
ENDROOT
BRANCH   1   2
ATOM      2  N   UNL     1       0.978  11.473  20.262  0.00  0.00    +0.000 N 
ATOM      3  C   UNL     1       1.630  11.793  19.074  0.00  0.00    +0.000 C 
ATOM      4  O   UNL     1       1.893  10.943  18.220  0.00  0.00    +0.000 OA
ATOM      5  H   UNL     1       0.556  12.215  20.787  0.00  0.00    +0.000 HD
BRANCH   3   6
ATOM      6  C   UNL     1       1.922  13.248  18.816  0.00  0.00    +0.000 A 
ATOM      7  C   UNL     1       3.170  13.729  18.398  0.00  0.00    +0.000 A 
ATOM      8  C   UNL     1       3.375  15.098  18.181  0.00  0.00    +0.000 A 
ATOM      9  C   UNL     1       2.334  16.010  18.367  0.00  0.00    +0.000 A 
ATOM     10  C   UNL     1       1.084  15.546  18.765  0.00  0.00    +0.000 A 
ATOM     11  C   UNL     1       0.881  14.179  18.993  0.00  0.00    +0.000 A 
ENDBRANCH   3   6
ENDBRANCH   1   2
BRANCH   1  12
ATOM     12  C   UNL     1       1.512   9.093  20.862  0.00  0.00    +0.000 C 
BRANCH  12  13
ATOM     13  O   UNL     1       1.198   7.772  20.435  0.00  0.00    +0.000 OA
BRANCH  13  19
ATOM     14  C   UNL     1       2.647   5.763  20.035  0.00  0.00    +0.000 A 
ATOM     15  C   UNL     1       3.597   5.203  19.162  0.00  0.00    +0.000 A 
ATOM     16  C   UNL     1       4.108   5.925  18.076  0.00  0.00    +0.000 A 
ATOM     17  C   UNL     1       3.572   7.183  17.803  0.00  0.00    +0.000 A 
ATOM     18  C   UNL     1       2.565   7.704  18.610  0.00  0.00    +0.000 A 
ATOM     19  C   UNL     1       2.125   7.038  19.753  0.00  0.00    +0.000 A 
BRANCH  14  21
ATOM     20  C   UNL     1       1.474   3.895  20.904  0.00  0.00    +0.000 C 
ATOM     21  O   UNL     1       2.218   5.093  21.150  0.00  0.00    +0.000 OA
ENDBRANCH  14  21
BRANCH  16  22
ATOM     22  C   UNL     1       5.283   5.397  17.366  0.00  0.00    +0.000 C 
ATOM     23  C   UNL     1       5.565   5.646  16.079  0.00  0.00    +0.000 C 
BRANCH  23  24
ATOM     24  C   UNL     1       6.843   5.174  15.487  0.00  0.00    +0.000 C 
ATOM     25  O   UNL     1       7.708   4.575  16.120  0.00  0.00    +0.000 OA
ATOM     26  N   UNL     1       6.982   5.527  14.169  0.00  0.00    +0.000 N 
ATOM     27  H   UNL     1       6.369   6.170  13.667  0.00  0.00    +0.000 HD
BRANCH  26  28
ATOM     28  O   UNL     1       8.240   5.300  13.592  0.00  0.00    +0.000 OA
ATOM     29  H   UNL     1       8.009   5.079  12.659  0.00  0.00    +0.000 HD
ENDBRANCH  26  28
ENDBRANCH  23  24
ENDBRANCH  16  22
ENDBRANCH  13  19
ENDBRANCH  12  13
ENDBRANCH   1  12
BRANCH   1  30
ATOM     30  C   UNL     1      -0.504   9.554  19.431  0.00  0.00    +0.000 C 
BRANCH  30  31
ATOM     31  C   UNL     1      -1.543  10.408  18.755  0.00  0.00    +0.000 A 
ATOM     32  C   UNL     1      -1.981  11.603  19.298  0.00  0.00    +0.000 A 
ATOM     33  N   UNL     1      -3.304  11.648  18.963  0.00  0.00    +0.000 N 
ATOM     34  C   UNL     1      -3.353  11.241  17.653  0.00  0.00    +0.000 A 
ATOM     35  C   UNL     1      -4.277  11.571  16.663  0.00  0.00    +0.000 A 
ATOM     36  C   UNL     1      -4.056  11.027  15.406  0.00  0.00    +0.000 A 
ATOM     37  C   UNL     1      -3.034  10.097  15.210  0.00  0.00    +0.000 A 
ATOM     38  C   UNL     1      -2.171   9.703  16.259  0.00  0.00    +0.000 A 
ATOM     39  C   UNL     1      -2.275  10.354  17.506  0.00  0.00    +0.000 A 
ATOM     40  H   UNL     1      -4.053  11.428  19.607  0.00  0.00    +0.000 HD
ENDBRANCH  30  31
ENDBRANCH   1  30
TORSDOF 11
ENDMDL
MODEL 6
REMARK VINA RESULT:      -7.5      3.914      7.550
REMARK  Name = 
REMARK  12 active torsions:
REMARK  status: ('A' for Active; 'I' for Inactive)
REMARK    1  A    between atoms: C_1  and  O_2
REMARK    2  A    between atoms: O_2  and  C_3
REMARK    3  A    between atoms: C_5  and  C_6
REMARK    4  A    between atoms: C_7  and  C_8
REMARK    5  A    between atoms: N_10  and  O_11
REMARK    6  A    between atoms: C_14  and  O_15
REMARK    7  A    between atoms: O_15  and  C_16
REMARK    8  A    between atoms: C_16  and  C_17
REMARK    9  A    between atoms: C_17  and  C_18
REMARK   10  A    between atoms: C_17  and  N_28
REMARK   11  A    between atoms: C_18  and  C_19
REMARK   12  A    between atoms: C_29  and  C_31
REMARK                            x       y       z     vdW  Elec       q    Type
REMARK                         _______ _______ _______ _____ _____    ______ ____
ROOT
ATOM      1  C   UNL     1      -0.288  12.987  20.736  0.00  0.00    +0.000 C 
ENDROOT
BRANCH   1   2
ATOM      2  N   UNL     1      -0.394  14.157  19.837  0.00  0.00    +0.000 N 
ATOM      3  C   UNL     1       0.107  15.411  20.179  0.00  0.00    +0.000 C 
ATOM      4  O   UNL     1       0.551  15.656  21.303  0.00  0.00    +0.000 OA
ATOM      5  H   UNL     1      -0.489  13.933  18.865  0.00  0.00    +0.000 HD
BRANCH   3   6
ATOM      6  C   UNL     1       0.183  16.446  19.088  0.00  0.00    +0.000 A 
ATOM      7  C   UNL     1       1.354  16.744  18.378  0.00  0.00    +0.000 A 
ATOM      8  C   UNL     1       1.356  17.724  17.377  0.00  0.00    +0.000 A 
ATOM      9  C   UNL     1       0.185  18.416  17.059  0.00  0.00    +0.000 A 
ATOM     10  C   UNL     1      -0.990  18.119  17.743  0.00  0.00    +0.000 A 
ATOM     11  C   UNL     1      -0.990  17.148  18.752  0.00  0.00    +0.000 A 
ENDBRANCH   3   6
ENDBRANCH   1   2
BRANCH   1  12
ATOM     12  C   UNL     1       0.904  12.070  20.355  0.00  0.00    +0.000 C 
BRANCH  12  13
ATOM     13  O   UNL     1       0.622  11.198  19.265  0.00  0.00    +0.000 OA
BRANCH  13  19
ATOM     14  C   UNL     1       1.180   8.958  20.247  0.00  0.00    +0.000 A 
ATOM     15  C   UNL     1       1.787   7.718  19.977  0.00  0.00    +0.000 A 
ATOM     16  C   UNL     1       2.455   7.477  18.770  0.00  0.00    +0.000 A 
ATOM     17  C   UNL     1       2.412   8.459  17.780  0.00  0.00    +0.000 A 
ATOM     18  C   UNL     1       1.733   9.652  18.008  0.00  0.00    +0.000 A 
ATOM     19  C   UNL     1       1.156   9.941  19.243  0.00  0.00    +0.000 A 
BRANCH  14  21
ATOM     20  C   UNL     1       1.490   9.148  22.590  0.00  0.00    +0.000 C 
ATOM     21  O   UNL     1       0.610   9.225  21.464  0.00  0.00    +0.000 OA
ENDBRANCH  14  21
BRANCH  16  22
ATOM     22  C   UNL     1       3.293   6.275  18.652  0.00  0.00    +0.000 C 
ATOM     23  C   UNL     1       3.058   5.268  17.798  0.00  0.00    +0.000 C 
BRANCH  23  24
ATOM     24  C   UNL     1       4.035   4.157  17.663  0.00  0.00    +0.000 C 
ATOM     25  O   UNL     1       4.301   3.369  18.566  0.00  0.00    +0.000 OA
ATOM     26  N   UNL     1       4.653   4.138  16.439  0.00  0.00    +0.000 N 
ATOM     27  H   UNL     1       4.587   4.875  15.737  0.00  0.00    +0.000 HD
BRANCH  26  28
ATOM     28  O   UNL     1       5.731   3.252  16.299  0.00  0.00    +0.000 OA
ATOM     29  H   UNL     1       6.427   3.825  15.897  0.00  0.00    +0.000 HD
ENDBRANCH  26  28
ENDBRANCH  23  24
ENDBRANCH  16  22
ENDBRANCH  13  19
ENDBRANCH  12  13
ENDBRANCH   1  12
BRANCH   1  30
ATOM     30  C   UNL     1      -1.552  12.130  20.895  0.00  0.00    +0.000 C 
BRANCH  30  31
ATOM     31  C   UNL     1      -2.661  12.183  19.880  0.00  0.00    +0.000 A 
ATOM     32  C   UNL     1      -3.825  12.901  20.095  0.00  0.00    +0.000 A 
ATOM     33  N   UNL     1      -4.791  12.144  19.498  0.00  0.00    +0.000 N 
ATOM     34  C   UNL     1      -4.245  11.749  18.302  0.00  0.00    +0.000 A 
ATOM     35  C   UNL     1      -4.884  11.439  17.103  0.00  0.00    +0.000 A 
ATOM     36  C   UNL     1      -4.065  11.096  16.036  0.00  0.00    +0.000 A 
ATOM     37  C   UNL     1      -2.689  10.947  16.224  0.00  0.00    +0.000 A 
ATOM     38  C   UNL     1      -2.078  11.172  17.480  0.00  0.00    +0.000 A 
ATOM     39  C   UNL     1      -2.864  11.669  18.540  0.00  0.00    +0.000 A 
ATOM     40  H   UNL     1      -5.426  11.541  20.007  0.00  0.00    +0.000 HD
ENDBRANCH  30  31
ENDBRANCH   1  30
TORSDOF 11
ENDMDL
MODEL 7
REMARK VINA RESULT:      -7.5      2.287      5.554
REMARK  Name = 
REMARK  12 active torsions:
REMARK  status: ('A' for Active; 'I' for Inactive)
REMARK    1  A    between atoms: C_1  and  O_2
REMARK    2  A    between atoms: O_2  and  C_3
REMARK    3  A    between atoms: C_5  and  C_6
REMARK    4  A    between atoms: C_7  and  C_8
REMARK    5  A    between atoms: N_10  and  O_11
REMARK    6  A    between atoms: C_14  and  O_15
REMARK    7  A    between atoms: O_15  and  C_16
REMARK    8  A    between atoms: C_16  and  C_17
REMARK    9  A    between atoms: C_17  and  C_18
REMARK   10  A    between atoms: C_17  and  N_28
REMARK   11  A    between atoms: C_18  and  C_19
REMARK   12  A    between atoms: C_29  and  C_31
REMARK                            x       y       z     vdW  Elec       q    Type
REMARK                         _______ _______ _______ _____ _____    ______ ____
ROOT
ATOM      1  C   UNL     1       1.338   8.835  19.522  0.00  0.00    +0.000 C 
ENDROOT
BRANCH   1   2
ATOM      2  N   UNL     1      -0.016   9.247  19.093  0.00  0.00    +0.000 N 
ATOM      3  C   UNL     1      -0.258  10.453  18.439  0.00  0.00    +0.000 C 
ATOM      4  O   UNL     1       0.617  11.309  18.296  0.00  0.00    +0.000 OA
ATOM      5  H   UNL     1      -0.660   8.492  18.951  0.00  0.00    +0.000 HD
BRANCH   3   6
ATOM      6  C   UNL     1      -1.617  10.640  17.816  0.00  0.00    +0.000 A 
ATOM      7  C   UNL     1      -2.018  10.020  16.624  0.00  0.00    +0.000 A 
ATOM      8  C   UNL     1      -3.297  10.242  16.096  0.00  0.00    +0.000 A 
ATOM      9  C   UNL     1      -4.201  11.078  16.754  0.00  0.00    +0.000 A 
ATOM     10  C   UNL     1      -3.824  11.687  17.947  0.00  0.00    +0.000 A 
ATOM     11  C   UNL     1      -2.542  11.475  18.470  0.00  0.00    +0.000 A 
ENDBRANCH   3   6
ENDBRANCH   1   2
BRANCH   1  12
ATOM     12  C   UNL     1       1.643   7.362  19.143  0.00  0.00    +0.000 C 
BRANCH  12  13
ATOM     13  O   UNL     1       3.023   7.026  19.236  0.00  0.00    +0.000 OA
BRANCH  13  19
ATOM     14  C   UNL     1       3.778   4.952  18.043  0.00  0.00    +0.000 A 
ATOM     15  C   UNL     1       4.436   4.477  16.895  0.00  0.00    +0.000 A 
ATOM     16  C   UNL     1       5.032   5.352  15.978  0.00  0.00    +0.000 A 
ATOM     17  C   UNL     1       4.864   6.724  16.164  0.00  0.00    +0.000 A 
ATOM     18  C   UNL     1       4.133   7.198  17.250  0.00  0.00    +0.000 A 
ATOM     19  C   UNL     1       3.627   6.338  18.223  0.00  0.00    +0.000 A 
BRANCH  14  21
ATOM     20  C   UNL     1       1.895   3.752  18.843  0.00  0.00    +0.000 C 
ATOM     21  O   UNL     1       3.277   4.093  18.987  0.00  0.00    +0.000 OA
ENDBRANCH  14  21
BRANCH  16  22
ATOM     22  C   UNL     1       5.929   4.800  14.952  0.00  0.00    +0.000 C 
ATOM     23  C   UNL     1       5.521   4.078  13.898  0.00  0.00    +0.000 C 
BRANCH  23  24
ATOM     24  C   UNL     1       6.490   3.674  12.847  0.00  0.00    +0.000 C 
ATOM     25  O   UNL     1       7.371   4.411  12.412  0.00  0.00    +0.000 OA
ATOM     26  N   UNL     1       6.261   2.409  12.370  0.00  0.00    +0.000 N 
ATOM     27  H   UNL     1       5.439   1.843  12.581  0.00  0.00    +0.000 HD
BRANCH  26  28
ATOM     28  O   UNL     1       6.998   2.026  11.240  0.00  0.00    +0.000 OA
ATOM     29  H   UNL     1       7.398   1.172  11.526  0.00  0.00    +0.000 HD
ENDBRANCH  26  28
ENDBRANCH  23  24
ENDBRANCH  16  22
ENDBRANCH  13  19
ENDBRANCH  12  13
ENDBRANCH   1  12
BRANCH   1  30
ATOM     30  C   UNL     1       1.683   9.055  21.002  0.00  0.00    +0.000 C 
BRANCH  30  31
ATOM     31  C   UNL     1       0.736   9.776  21.922  0.00  0.00    +0.000 A 
ATOM     32  C   UNL     1       0.355   9.252  23.146  0.00  0.00    +0.000 A 
ATOM     33  N   UNL     1      -0.945   9.647  23.279  0.00  0.00    +0.000 N 
ATOM     34  C   UNL     1      -0.962  10.959  22.873  0.00  0.00    +0.000 A 
ATOM     35  C   UNL     1      -1.816  11.989  23.263  0.00  0.00    +0.000 A 
ATOM     36  C   UNL     1      -1.575  13.236  22.704  0.00  0.00    +0.000 A 
ATOM     37  C   UNL     1      -0.609  13.387  21.706  0.00  0.00    +0.000 A 
ATOM     38  C   UNL     1       0.177  12.299  21.258  0.00  0.00    +0.000 A 
ATOM     39  C   UNL     1       0.060  11.058  21.916  0.00  0.00    +0.000 A 
ATOM     40  H   UNL     1      -1.736   9.038  23.111  0.00  0.00    +0.000 HD
ENDBRANCH  30  31
ENDBRANCH   1  30
TORSDOF 11
ENDMDL
MODEL 8
REMARK VINA RESULT:      -7.4      3.798      7.796
REMARK  Name = 
REMARK  12 active torsions:
REMARK  status: ('A' for Active; 'I' for Inactive)
REMARK    1  A    between atoms: C_1  and  O_2
REMARK    2  A    between atoms: O_2  and  C_3
REMARK    3  A    between atoms: C_5  and  C_6
REMARK    4  A    between atoms: C_7  and  C_8
REMARK    5  A    between atoms: N_10  and  O_11
REMARK    6  A    between atoms: C_14  and  O_15
REMARK    7  A    between atoms: O_15  and  C_16
REMARK    8  A    between atoms: C_16  and  C_17
REMARK    9  A    between atoms: C_17  and  C_18
REMARK   10  A    between atoms: C_17  and  N_28
REMARK   11  A    between atoms: C_18  and  C_19
REMARK   12  A    between atoms: C_29  and  C_31
REMARK                            x       y       z     vdW  Elec       q    Type
REMARK                         _______ _______ _______ _____ _____    ______ ____
ROOT
ATOM      1  C   UNL     1      -0.336  11.687  19.096  0.00  0.00    +0.000 C 
ENDROOT
BRANCH   1   2
ATOM      2  N   UNL     1      -0.215  13.077  18.608  0.00  0.00    +0.000 N 
ATOM      3  C   UNL     1      -0.066  14.162  19.470  0.00  0.00    +0.000 C 
ATOM      4  O   UNL     1      -0.158  14.046  20.694  0.00  0.00    +0.000 OA
ATOM      5  H   UNL     1       0.127  13.165  17.670  0.00  0.00    +0.000 HD
BRANCH   3   6
ATOM      6  C   UNL     1       0.316  15.484  18.856  0.00  0.00    +0.000 A 
ATOM      7  C   UNL     1      -0.612  16.472  18.497  0.00  0.00    +0.000 A 
ATOM      8  C   UNL     1      -0.189  17.679  17.925  0.00  0.00    +0.000 A 
ATOM      9  C   UNL     1       1.169  17.926  17.712  0.00  0.00    +0.000 A 
ATOM     10  C   UNL     1       2.104  16.963  18.080  0.00  0.00    +0.000 A 
ATOM     11  C   UNL     1       1.681  15.750  18.642  0.00  0.00    +0.000 A 
ENDBRANCH   3   6
ENDBRANCH   1   2
BRANCH   1  12
ATOM     12  C   UNL     1       1.035  11.103  19.528  0.00  0.00    +0.000 C 
BRANCH  12  13
ATOM     13  O   UNL     1       1.619  10.246  18.552  0.00  0.00    +0.000 OA
BRANCH  13  19
ATOM     14  C   UNL     1       1.644   8.235  20.052  0.00  0.00    +0.000 A 
ATOM     15  C   UNL     1       2.006   6.878  20.127  0.00  0.00    +0.000 A 
ATOM     16  C   UNL     1       2.694   6.244  19.084  0.00  0.00    +0.000 A 
ATOM     17  C   UNL     1       2.918   6.958  17.907  0.00  0.00    +0.000 A 
ATOM     18  C   UNL     1       2.479   8.274  17.793  0.00  0.00    +0.000 A 
ATOM     19  C   UNL     1       1.888   8.944  18.863  0.00  0.00    +0.000 A 
BRANCH  14  21
ATOM     20  C   UNL     1      -0.220   8.371  21.511  0.00  0.00    +0.000 C 
ATOM     21  O   UNL     1       1.056   8.878  21.110  0.00  0.00    +0.000 OA
ENDBRANCH  14  21
BRANCH  16  22
ATOM     22  C   UNL     1       3.278   4.917  19.325  0.00  0.00    +0.000 C 
ATOM     23  C   UNL     1       2.831   3.781  18.772  0.00  0.00    +0.000 C 
BRANCH  23  24
ATOM     24  C   UNL     1       3.569   2.507  18.975  0.00  0.00    +0.000 C 
ATOM     25  O   UNL     1       3.163   1.415  18.590  0.00  0.00    +0.000 OA
ATOM     26  N   UNL     1       4.727   2.672  19.691  0.00  0.00    +0.000 N 
ATOM     27  H   UNL     1       5.001   3.528  20.173  0.00  0.00    +0.000 HD
BRANCH  26  28
ATOM     28  O   UNL     1       5.378   1.500  20.102  0.00  0.00    +0.000 OA
ATOM     29  H   UNL     1       4.661   1.011  20.570  0.00  0.00    +0.000 HD
ENDBRANCH  26  28
ENDBRANCH  23  24
ENDBRANCH  16  22
ENDBRANCH  13  19
ENDBRANCH  12  13
ENDBRANCH   1  12
BRANCH   1  30
ATOM     30  C   UNL     1      -1.035  10.691  18.159  0.00  0.00    +0.000 C 
BRANCH  30  31
ATOM     31  C   UNL     1      -2.485  10.853  17.794  0.00  0.00    +0.000 A 
ATOM     32  C   UNL     1      -3.083  10.102  16.796  0.00  0.00    +0.000 A 
ATOM     33  N   UNL     1      -3.972  10.967  16.225  0.00  0.00    +0.000 N 
ATOM     34  C   UNL     1      -4.571  11.610  17.280  0.00  0.00    +0.000 A 
ATOM     35  C   UNL     1      -5.846  12.167  17.361  0.00  0.00    +0.000 A 
ATOM     36  C   UNL     1      -6.198  12.731  18.579  0.00  0.00    +0.000 A 
ATOM     37  C   UNL     1      -5.255  12.841  19.603  0.00  0.00    +0.000 A 
ATOM     38  C   UNL     1      -3.934  12.355  19.458  0.00  0.00    +0.000 A 
ATOM     39  C   UNL     1      -3.596  11.640  18.290  0.00  0.00    +0.000 A 
ATOM     40  H   UNL     1      -3.805  11.445  15.349  0.00  0.00    +0.000 HD
ENDBRANCH  30  31
ENDBRANCH   1  30
TORSDOF 11
ENDMDL
MODEL 9
REMARK VINA RESULT:      -7.3      3.860      8.087
REMARK  Name = 
REMARK  12 active torsions:
REMARK  status: ('A' for Active; 'I' for Inactive)
REMARK    1  A    between atoms: C_1  and  O_2
REMARK    2  A    between atoms: O_2  and  C_3
REMARK    3  A    between atoms: C_5  and  C_6
REMARK    4  A    between atoms: C_7  and  C_8
REMARK    5  A    between atoms: N_10  and  O_11
REMARK    6  A    between atoms: C_14  and  O_15
REMARK    7  A    between atoms: O_15  and  C_16
REMARK    8  A    between atoms: C_16  and  C_17
REMARK    9  A    between atoms: C_17  and  C_18
REMARK   10  A    between atoms: C_17  and  N_28
REMARK   11  A    between atoms: C_18  and  C_19
REMARK   12  A    between atoms: C_29  and  C_31
REMARK                            x       y       z     vdW  Elec       q    Type
REMARK                         _______ _______ _______ _____ _____    ______ ____
ROOT
ATOM      1  C   UNL     1      -1.716  11.569  18.425  0.00  0.00    +0.000 C 
ENDROOT
BRANCH   1   2
ATOM      2  N   UNL     1      -1.049  12.881  18.287  0.00  0.00    +0.000 N 
ATOM      3  C   UNL     1      -0.663  13.643  19.387  0.00  0.00    +0.000 C 
ATOM      4  O   UNL     1      -0.971  13.335  20.540  0.00  0.00    +0.000 OA
ATOM      5  H   UNL     1      -0.562  13.015  17.422  0.00  0.00    +0.000 HD
BRANCH   3   6
ATOM      6  C   UNL     1       0.241  14.821  19.129  0.00  0.00    +0.000 A 
ATOM      7  C   UNL     1       1.578  14.701  18.726  0.00  0.00    +0.000 A 
ATOM      8  C   UNL     1       2.366  15.840  18.508  0.00  0.00    +0.000 A 
ATOM      9  C   UNL     1       1.828  17.118  18.678  0.00  0.00    +0.000 A 
ATOM     10  C   UNL     1       0.497  17.253  19.060  0.00  0.00    +0.000 A 
ATOM     11  C   UNL     1      -0.288  16.115  19.290  0.00  0.00    +0.000 A 
ENDBRANCH   3   6
ENDBRANCH   1   2
BRANCH   1  12
ATOM     12  C   UNL     1      -0.755  10.393  18.109  0.00  0.00    +0.000 C 
BRANCH  12  13
ATOM     13  O   UNL     1       0.400  10.365  18.942  0.00  0.00    +0.000 OA
BRANCH  13  19
ATOM     14  C   UNL     1       1.219   8.320  20.143  0.00  0.00    +0.000 A 
ATOM     15  C   UNL     1       2.034   7.181  20.021  0.00  0.00    +0.000 A 
ATOM     16  C   UNL     1       2.832   6.969  18.889  0.00  0.00    +0.000 A 
ATOM     17  C   UNL     1       2.719   7.859  17.821  0.00  0.00    +0.000 A 
ATOM     18  C   UNL     1       1.843   8.938  17.900  0.00  0.00    +0.000 A 
ATOM     19  C   UNL     1       1.125   9.214  19.062  0.00  0.00    +0.000 A 
BRANCH  14  21
ATOM     20  C   UNL     1       1.164   9.415  22.245  0.00  0.00    +0.000 C 
ATOM     21  O   UNL     1       0.511   8.574  21.289  0.00  0.00    +0.000 OA
ENDBRANCH  14  21
BRANCH  16  22
ATOM     22  C   UNL     1       3.856   5.915  18.932  0.00  0.00    +0.000 C 
ATOM     23  C   UNL     1       4.942   5.882  18.147  0.00  0.00    +0.000 C 
BRANCH  23  24
ATOM     24  C   UNL     1       5.985   4.844  18.354  0.00  0.00    +0.000 C 
ATOM     25  O   UNL     1       5.987   4.058  19.297  0.00  0.00    +0.000 OA
ATOM     26  N   UNL     1       6.979   4.893  17.411  0.00  0.00    +0.000 N 
ATOM     27  H   UNL     1       7.100   5.638  16.725  0.00  0.00    +0.000 HD
BRANCH  26  28
ATOM     28  O   UNL     1       8.102   4.086  17.647  0.00  0.00    +0.000 OA
ATOM     29  H   UNL     1       7.827   3.565  18.438  0.00  0.00    +0.000 HD
ENDBRANCH  26  28
ENDBRANCH  23  24
ENDBRANCH  16  22
ENDBRANCH  13  19
ENDBRANCH  12  13
ENDBRANCH   1  12
BRANCH   1  30
ATOM     30  C   UNL     1      -3.021  11.378  17.638  0.00  0.00    +0.000 C 
BRANCH  30  31
ATOM     31  C   UNL     1      -4.361  11.520  18.306  0.00  0.00    +0.000 A 
ATOM     32  C   UNL     1      -5.467  10.792  17.901  0.00  0.00    +0.000 A 
ATOM     33  N   UNL     1      -6.509  11.656  18.080  0.00  0.00    +0.000 N 
ATOM     34  C   UNL     1      -6.278  12.245  19.299  0.00  0.00    +0.000 A 
ATOM     35  C   UNL     1      -7.193  12.769  20.210  0.00  0.00    +0.000 A 
ATOM     36  C   UNL     1      -6.668  13.279  21.389  0.00  0.00    +0.000 A 
ATOM     37  C   UNL     1      -5.285  13.373  21.562  0.00  0.00    +0.000 A 
ATOM     38  C   UNL     1      -4.377  12.924  20.575  0.00  0.00    +0.000 A 
ATOM     39  C   UNL     1      -4.881  12.261  19.437  0.00  0.00    +0.000 A 
ATOM     40  H   UNL     1      -6.947  12.170  17.326  0.00  0.00    +0.000 HD
ENDBRANCH  30  31
ENDBRANCH   1  30
TORSDOF 11
ENDMDL
