MODEL 1
REMARK VINA RESULT:      -7.5      0.000      0.000
REMARK  Name = 
REMARK  5 active torsions:
REMARK  status: ('A' for Active; 'I' for Inactive)
REMARK    1  A    between atoms: C_1  and  C_2
REMARK    2  A    between atoms: N_12  and  C_13
REMARK    3  A    between atoms: C_16  and  N_17
REMARK    4  A    between atoms: N_17  and  S_18
REMARK    5  A    between atoms: S_18  and  C_21
REMARK                            x       y       z     vdW  Elec       q    Type
REMARK                         _______ _______ _______ _____ _____    ______ ____
ROOT
ATOM      1  C   UNL     1       0.850  10.654  19.142  0.00  0.00    +0.000 A 
ATOM      2  C   UNL     1       1.676  11.754  19.404  0.00  0.00    +0.000 A 
ATOM      3  C   UNL     1       1.189  13.059  19.258  0.00  0.00    +0.000 A 
ATOM      4  C   UNL     1      -0.128  13.274  18.854  0.00  0.00    +0.000 A 
ATOM      5  C   UNL     1      -0.951  12.185  18.567  0.00  0.00    +0.000 A 
ATOM      6  C   UNL     1      -0.461  10.880  18.701  0.00  0.00    +0.000 A 
ENDROOT
BRANCH   1  18
ATOM      7  C   UNL     1       0.294   9.333  21.652  0.00  0.00    +0.000 C 
ATOM      8  C   UNL     1       1.106   8.663  20.564  0.00  0.00    +0.000 A 
ATOM      9  N   UNL     1       1.518   7.458  20.809  0.00  0.00    +0.000 NA
ATOM     10  C   UNL     1       2.266   6.789  19.837  0.00  0.00    +0.000 A 
ATOM     11  C   UNL     1       2.771   5.520  20.132  0.00  0.00    +0.000 A 
ATOM     12  C   UNL     1       3.606   4.857  19.229  0.00  0.00    +0.000 A 
ATOM     13  C   UNL     1       3.921   5.451  18.008  0.00  0.00    +0.000 A 
ATOM     14  C   UNL     1       3.380   6.694  17.681  0.00  0.00    +0.000 A 
ATOM     15  C   UNL     1       2.555   7.357  18.601  0.00  0.00    +0.000 A 
ATOM     16  C   UNL     1       1.999   8.694  18.310  0.00  0.00    +0.000 A 
ATOM     17  O   UNL     1       2.182   9.174  17.194  0.00  0.00    +0.000 OA
ATOM     18  N   UNL     1       1.326   9.327  19.367  0.00  0.00    +0.000 N 
ENDBRANCH   1  18
BRANCH   4  19
ATOM     19  N   UNL     1      -0.624  14.596  18.752  0.00  0.00    +0.000 N 
ATOM     20  H   UNL     1      -0.627  15.085  17.858  0.00  0.00    +0.000 HD
BRANCH  19  21
ATOM     21  S   UNL     1      -0.959  15.498  20.122  0.00  0.00    +0.000 S 
ATOM     22  O   UNL     1       0.309  15.940  20.653  0.00  0.00    +0.000 OA
ATOM     23  O   UNL     1      -2.022  16.438  19.826  0.00  0.00    +0.000 OA
BRANCH  21  24
ATOM     24  C   UNL     1      -1.607  14.282  21.252  0.00  0.00    +0.000 A 
ATOM     25  C   UNL     1      -0.808  13.841  22.315  0.00  0.00    +0.000 A 
ATOM     26  C   UNL     1      -1.318  12.907  23.217  0.00  0.00    +0.000 A 
ATOM     27  C   UNL     1      -2.616  12.432  23.052  0.00  0.00    +0.000 A 
ATOM     28  F   UNL     1      -3.100  11.529  23.915  0.00  0.00    +0.000 F 
ATOM     29  C   UNL     1      -3.424  12.887  22.013  0.00  0.00    +0.000 A 
ATOM     30  C   UNL     1      -2.923  13.826  21.111  0.00  0.00    +0.000 A 
ENDBRANCH  21  24
ENDBRANCH  19  21
ENDBRANCH   4  19
TORSDOF 4
ENDMDL
MODEL 2
REMARK VINA RESULT:      -7.5      4.266      9.347
REMARK  Name = 
REMARK  5 active torsions:
REMARK  status: ('A' for Active; 'I' for Inactive)
REMARK    1  A    between atoms: C_1  and  C_2
REMARK    2  A    between atoms: N_12  and  C_13
REMARK    3  A    between atoms: C_16  and  N_17
REMARK    4  A    between atoms: N_17  and  S_18
REMARK    5  A    between atoms: S_18  and  C_21
REMARK                            x       y       z     vdW  Elec       q    Type
REMARK                         _______ _______ _______ _____ _____    ______ ____
ROOT
ATOM      1  C   UNL     1       0.484   9.380  20.073  0.00  0.00    +0.000 A 
ATOM      2  C   UNL     1       0.536   8.331  20.999  0.00  0.00    +0.000 A 
ATOM      3  C   UNL     1       1.443   7.278  20.831  0.00  0.00    +0.000 A 
ATOM      4  C   UNL     1       2.307   7.267  19.737  0.00  0.00    +0.000 A 
ATOM      5  C   UNL     1       2.246   8.294  18.795  0.00  0.00    +0.000 A 
ATOM      6  C   UNL     1       1.332   9.341  18.958  0.00  0.00    +0.000 A 
ENDROOT
BRANCH   1  18
ATOM      7  C   UNL     1      -1.423  10.131  18.036  0.00  0.00    +0.000 C 
ATOM      8  C   UNL     1      -1.300  10.904  19.332  0.00  0.00    +0.000 A 
ATOM      9  N   UNL     1      -2.110  11.904  19.489  0.00  0.00    +0.000 NA
ATOM     10  C   UNL     1      -2.045  12.647  20.669  0.00  0.00    +0.000 A 
ATOM     11  C   UNL     1      -2.868  13.769  20.804  0.00  0.00    +0.000 A 
ATOM     12  C   UNL     1      -2.765  14.598  21.924  0.00  0.00    +0.000 A 
ATOM     13  C   UNL     1      -1.853  14.294  22.933  0.00  0.00    +0.000 A 
ATOM     14  C   UNL     1      -1.064  13.148  22.834  0.00  0.00    +0.000 A 
ATOM     15  C   UNL     1      -1.164  12.332  21.698  0.00  0.00    +0.000 A 
ATOM     16  C   UNL     1      -0.314  11.135  21.536  0.00  0.00    +0.000 A 
ATOM     17  O   UNL     1       0.411  10.801  22.469  0.00  0.00    +0.000 OA
ATOM     18  N   UNL     1      -0.387  10.490  20.290  0.00  0.00    +0.000 N 
ENDBRANCH   1  18
BRANCH   4  19
ATOM     19  N   UNL     1       3.250   6.220  19.598  0.00  0.00    +0.000 N 
ATOM     20  H   UNL     1       4.210   6.335  19.921  0.00  0.00    +0.000 HD
BRANCH  19  21
ATOM     21  S   UNL     1       2.912   4.875  18.659  0.00  0.00    +0.000 S 
ATOM     22  O   UNL     1       3.236   3.716  19.456  0.00  0.00    +0.000 OA
ATOM     23  O   UNL     1       1.605   5.034  18.052  0.00  0.00    +0.000 OA
BRANCH  21  24
ATOM     24  C   UNL     1       4.129   4.978  17.361  0.00  0.00    +0.000 A 
ATOM     25  C   UNL     1       4.634   3.798  16.802  0.00  0.00    +0.000 A 
ATOM     26  C   UNL     1       5.570   3.872  15.770  0.00  0.00    +0.000 A 
ATOM     27  C   UNL     1       5.982   5.118  15.305  0.00  0.00    +0.000 A 
ATOM     28  F   UNL     1       6.887   5.185  14.320  0.00  0.00    +0.000 F 
ATOM     29  C   UNL     1       5.463   6.294  15.840  0.00  0.00    +0.000 A 
ATOM     30  C   UNL     1       4.523   6.228  16.868  0.00  0.00    +0.000 A 
ENDBRANCH  21  24
ENDBRANCH  19  21
ENDBRANCH   4  19
TORSDOF 4
ENDMDL
MODEL 3
REMARK VINA RESULT:      -7.4      4.681      9.619
REMARK  Name = 
REMARK  5 active torsions:
REMARK  status: ('A' for Active; 'I' for Inactive)
REMARK    1  A    between atoms: C_1  and  C_2
REMARK    2  A    between atoms: N_12  and  C_13
REMARK    3  A    between atoms: C_16  and  N_17
REMARK    4  A    between atoms: N_17  and  S_18
REMARK    5  A    between atoms: S_18  and  C_21
REMARK                            x       y       z     vdW  Elec       q    Type
REMARK                         _______ _______ _______ _____ _____    ______ ____
ROOT
ATOM      1  C   UNL     1       1.409   8.188  20.059  0.00  0.00    +0.000 A 
ATOM      2  C   UNL     1       2.170   8.219  18.884  0.00  0.00    +0.000 A 
ATOM      3  C   UNL     1       2.811   7.063  18.421  0.00  0.00    +0.000 A 
ATOM      4  C   UNL     1       2.692   5.866  19.128  0.00  0.00    +0.000 A 
ATOM      5  C   UNL     1       1.956   5.831  20.312  0.00  0.00    +0.000 A 
ATOM      6  C   UNL     1       1.325   6.989  20.781  0.00  0.00    +0.000 A 
ENDROOT
BRANCH   1  18
ATOM      7  C   UNL     1       1.803   9.219  22.729  0.00  0.00    +0.000 C 
ATOM      8  C   UNL     1       0.831   9.864  21.764  0.00  0.00    +0.000 A 
ATOM      9  N   UNL     1       0.204  10.916  22.191  0.00  0.00    +0.000 NA
ATOM     10  C   UNL     1      -0.700  11.555  21.338  0.00  0.00    +0.000 A 
ATOM     11  C   UNL     1      -1.429  12.643  21.826  0.00  0.00    +0.000 A 
ATOM     12  C   UNL     1      -2.414  13.250  21.042  0.00  0.00    +0.000 A 
ATOM     13  C   UNL     1      -2.659  12.787  19.751  0.00  0.00    +0.000 A 
ATOM     14  C   UNL     1      -1.901  11.735  19.235  0.00  0.00    +0.000 A 
ATOM     15  C   UNL     1      -0.925  11.124  20.036  0.00  0.00    +0.000 A 
ATOM     16  C   UNL     1      -0.133   9.979  19.542  0.00  0.00    +0.000 A 
ATOM     17  O   UNL     1      -0.266   9.637  18.370  0.00  0.00    +0.000 OA
ATOM     18  N   UNL     1       0.694   9.348  20.484  0.00  0.00    +0.000 N 
ENDBRANCH   1  18
BRANCH   4  19
ATOM     19  N   UNL     1       3.308   4.693  18.629  0.00  0.00    +0.000 N 
ATOM     20  H   UNL     1       2.749   3.935  18.240  0.00  0.00    +0.000 HD
BRANCH  19  21
ATOM     21  S   UNL     1       4.929   4.385  18.911  0.00  0.00    +0.000 S 
ATOM     22  O   UNL     1       5.443   5.504  19.665  0.00  0.00    +0.000 OA
ATOM     23  O   UNL     1       5.081   3.023  19.384  0.00  0.00    +0.000 OA
BRANCH  21  24
ATOM     24  C   UNL     1       5.643   4.477  17.281  0.00  0.00    +0.000 A 
ATOM     25  C   UNL     1       4.819   4.298  16.162  0.00  0.00    +0.000 A 
ATOM     26  C   UNL     1       5.367   4.393  14.883  0.00  0.00    +0.000 A 
ATOM     27  C   UNL     1       6.722   4.671  14.736  0.00  0.00    +0.000 A 
ATOM     28  F   UNL     1       7.247   4.753  13.506  0.00  0.00    +0.000 F 
ATOM     29  C   UNL     1       7.541   4.876  15.844  0.00  0.00    +0.000 A 
ATOM     30  C   UNL     1       6.999   4.789  17.127  0.00  0.00    +0.000 A 
ENDBRANCH  21  24
ENDBRANCH  19  21
ENDBRANCH   4  19
TORSDOF 4
ENDMDL
MODEL 4
REMARK VINA RESULT:      -7.4      0.447      1.001
REMARK  Name = 
REMARK  5 active torsions:
REMARK  status: ('A' for Active; 'I' for Inactive)
REMARK    1  A    between atoms: C_1  and  C_2
REMARK    2  A    between atoms: N_12  and  C_13
REMARK    3  A    between atoms: C_16  and  N_17
REMARK    4  A    between atoms: N_17  and  S_18
REMARK    5  A    between atoms: S_18  and  C_21
REMARK                            x       y       z     vdW  Elec       q    Type
REMARK                         _______ _______ _______ _____ _____    ______ ____
ROOT
ATOM      1  C   UNL     1       0.654  10.767  19.489  0.00  0.00    +0.000 A 
ATOM      2  C   UNL     1      -0.646  10.966  19.011  0.00  0.00    +0.000 A 
ATOM      3  C   UNL     1      -1.163  12.261  18.874  0.00  0.00    +0.000 A 
ATOM      4  C   UNL     1      -0.381  13.365  19.211  0.00  0.00    +0.000 A 
ATOM      5  C   UNL     1       0.907  13.176  19.711  0.00  0.00    +0.000 A 
ATOM      6  C   UNL     1       1.419  11.882  19.858  0.00  0.00    +0.000 A 
ENDROOT
BRANCH   1  18
ATOM      7  C   UNL     1       0.220   9.141  21.838  0.00  0.00    +0.000 C 
ATOM      8  C   UNL     1       1.044   8.643  20.668  0.00  0.00    +0.000 A 
ATOM      9  N   UNL     1       1.523   7.443  20.768  0.00  0.00    +0.000 NA
ATOM     10  C   UNL     1       2.284   6.931  19.714  0.00  0.00    +0.000 A 
ATOM     11  C   UNL     1       2.862   5.665  19.855  0.00  0.00    +0.000 A 
ATOM     12  C   UNL     1       3.711   5.156  18.870  0.00  0.00    +0.000 A 
ATOM     13  C   UNL     1       3.969   5.901  17.720  0.00  0.00    +0.000 A 
ATOM     14  C   UNL     1       3.357   7.142  17.546  0.00  0.00    +0.000 A 
ATOM     15  C   UNL     1       2.518   7.650  18.548  0.00  0.00    +0.000 A 
ATOM     16  C   UNL     1       1.887   8.980  18.420  0.00  0.00    +0.000 A 
ATOM     17  O   UNL     1       2.022   9.593  17.364  0.00  0.00    +0.000 OA
ATOM     18  N   UNL     1       1.204   9.451  19.552  0.00  0.00    +0.000 N 
ENDBRANCH   1  18
BRANCH   4  19
ATOM     19  N   UNL     1      -0.896  14.671  19.028  0.00  0.00    +0.000 N 
ATOM     20  H   UNL     1      -0.881  15.115  18.111  0.00  0.00    +0.000 HD
BRANCH  19  21
ATOM     21  S   UNL     1      -1.285  15.635  20.341  0.00  0.00    +0.000 S 
ATOM     22  O   UNL     1      -0.039  16.085  20.915  0.00  0.00    +0.000 OA
ATOM     23  O   UNL     1      -2.321  16.572  19.955  0.00  0.00    +0.000 OA
BRANCH  21  24
ATOM     24  C   UNL     1      -2.003  14.475  21.489  0.00  0.00    +0.000 A 
ATOM     25  C   UNL     1      -1.246  14.038  22.583  0.00  0.00    +0.000 A 
ATOM     26  C   UNL     1      -1.811  13.148  23.498  0.00  0.00    +0.000 A 
ATOM     27  C   UNL     1      -3.121  12.715  23.314  0.00  0.00    +0.000 A 
ATOM     28  F   UNL     1      -3.656  11.854  24.189  0.00  0.00    +0.000 F 
ATOM     29  C   UNL     1      -3.886  13.167  22.242  0.00  0.00    +0.000 A 
ATOM     30  C   UNL     1      -3.331  14.061  21.327  0.00  0.00    +0.000 A 
ENDBRANCH  21  24
ENDBRANCH  19  21
ENDBRANCH   4  19
TORSDOF 4
ENDMDL
MODEL 5
REMARK VINA RESULT:      -7.3      4.238      9.322
REMARK  Name = 
REMARK  5 active torsions:
REMARK  status: ('A' for Active; 'I' for Inactive)
REMARK    1  A    between atoms: C_1  and  C_2
REMARK    2  A    between atoms: N_12  and  C_13
REMARK    3  A    between atoms: C_16  and  N_17
REMARK    4  A    between atoms: N_17  and  S_18
REMARK    5  A    between atoms: S_18  and  C_21
REMARK                            x       y       z     vdW  Elec       q    Type
REMARK                         _______ _______ _______ _____ _____    ______ ____
ROOT
ATOM      1  C   UNL     1       0.486   9.445  20.246  0.00  0.00    +0.000 A 
ATOM      2  C   UNL     1       1.347   9.432  19.142  0.00  0.00    +0.000 A 
ATOM      3  C   UNL     1       2.224   8.360  18.937  0.00  0.00    +0.000 A 
ATOM      4  C   UNL     1       2.245   7.291  19.833  0.00  0.00    +0.000 A 
ATOM      5  C   UNL     1       1.409   7.307  20.949  0.00  0.00    +0.000 A 
ATOM      6  C   UNL     1       0.540   8.383  21.160  0.00  0.00    +0.000 A 
ENDROOT
BRANCH   1  18
ATOM      7  C   UNL     1      -1.338  10.083  18.097  0.00  0.00    +0.000 C 
ATOM      8  C   UNL     1      -1.338  10.860  19.397  0.00  0.00    +0.000 A 
ATOM      9  N   UNL     1      -2.215  11.810  19.502  0.00  0.00    +0.000 NA
ATOM     10  C   UNL     1      -2.264  12.554  20.683  0.00  0.00    +0.000 A 
ATOM     11  C   UNL     1      -3.159  13.626  20.765  0.00  0.00    +0.000 A 
ATOM     12  C   UNL     1      -3.172  14.458  21.888  0.00  0.00    +0.000 A 
ATOM     13  C   UNL     1      -2.306  14.208  22.950  0.00  0.00    +0.000 A 
ATOM     14  C   UNL     1      -1.445  13.111  22.901  0.00  0.00    +0.000 A 
ATOM     15  C   UNL     1      -1.429  12.291  21.763  0.00  0.00    +0.000 A 
ATOM     16  C   UNL     1      -0.501  11.147  21.654  0.00  0.00    +0.000 A 
ATOM     17  O   UNL     1       0.186  10.856  22.630  0.00  0.00    +0.000 OA
ATOM     18  N   UNL     1      -0.461  10.501  20.409  0.00  0.00    +0.000 N 
ENDBRANCH   1  18
BRANCH   4  19
ATOM     19  N   UNL     1       3.104   6.192  19.594  0.00  0.00    +0.000 N 
ATOM     20  H   UNL     1       4.067   6.200  19.927  0.00  0.00    +0.000 HD
BRANCH  19  21
ATOM     21  S   UNL     1       2.670   4.975  18.528  0.00  0.00    +0.000 S 
ATOM     22  O   UNL     1       2.801   3.727  19.242  0.00  0.00    +0.000 OA
ATOM     23  O   UNL     1       1.434   5.340  17.866  0.00  0.00    +0.000 OA
BRANCH  21  24
ATOM     24  C   UNL     1       3.973   5.026  17.313  0.00  0.00    +0.000 A 
ATOM     25  C   UNL     1       4.472   6.266  16.895  0.00  0.00    +0.000 A 
ATOM     26  C   UNL     1       5.508   6.312  15.962  0.00  0.00    +0.000 A 
ATOM     27  C   UNL     1       6.037   5.124  15.466  0.00  0.00    +0.000 A 
ATOM     28  F   UNL     1       7.026   5.171  14.564  0.00  0.00    +0.000 F 
ATOM     29  C   UNL     1       5.563   3.888  15.898  0.00  0.00    +0.000 A 
ATOM     30  C   UNL     1       4.531   3.834  16.835  0.00  0.00    +0.000 A 
ENDBRANCH  21  24
ENDBRANCH  19  21
ENDBRANCH   4  19
TORSDOF 4
ENDMDL
MODEL 6
REMARK VINA RESULT:      -7.2      4.282      9.204
REMARK  Name = 
REMARK  5 active torsions:
REMARK  status: ('A' for Active; 'I' for Inactive)
REMARK    1  A    between atoms: C_1  and  C_2
REMARK    2  A    between atoms: N_12  and  C_13
REMARK    3  A    between atoms: C_16  and  N_17
REMARK    4  A    between atoms: N_17  and  S_18
REMARK    5  A    between atoms: S_18  and  C_21
REMARK                            x       y       z     vdW  Elec       q    Type
REMARK                         _______ _______ _______ _____ _____    ______ ____
ROOT
ATOM      1  C   UNL     1       0.998   9.822  19.607  0.00  0.00    +0.000 A 
ATOM      2  C   UNL     1       0.726   9.084  20.766  0.00  0.00    +0.000 A 
ATOM      3  C   UNL     1       1.257   7.799  20.932  0.00  0.00    +0.000 A 
ATOM      4  C   UNL     1       2.068   7.244  19.941  0.00  0.00    +0.000 A 
ATOM      5  C   UNL     1       2.323   7.960  18.773  0.00  0.00    +0.000 A 
ATOM      6  C   UNL     1       1.783   9.241  18.602  0.00  0.00    +0.000 A 
ENDROOT
BRANCH   1  18
ATOM      7  C   UNL     1      -1.290  10.373  17.929  0.00  0.00    +0.000 C 
ATOM      8  C   UNL     1      -0.559  11.477  18.664  0.00  0.00    +0.000 A 
ATOM      9  N   UNL     1      -1.028  12.677  18.519  0.00  0.00    +0.000 NA
ATOM     10  C   UNL     1      -0.397  13.733  19.181  0.00  0.00    +0.000 A 
ATOM     11  C   UNL     1      -0.858  15.034  18.964  0.00  0.00    +0.000 A 
ATOM     12  C   UNL     1      -0.195  16.129  19.525  0.00  0.00    +0.000 A 
ATOM     13  C   UNL     1       0.922  15.926  20.333  0.00  0.00    +0.000 A 
ATOM     14  C   UNL     1       1.360  14.628  20.598  0.00  0.00    +0.000 A 
ATOM     15  C   UNL     1       0.697  13.538  20.017  0.00  0.00    +0.000 A 
ATOM     16  C   UNL     1       1.157  12.152  20.238  0.00  0.00    +0.000 A 
ATOM     17  O   UNL     1       2.072  11.959  21.035  0.00  0.00    +0.000 OA
ATOM     18  N   UNL     1       0.519  11.160  19.478  0.00  0.00    +0.000 N 
ENDBRANCH   1  18
BRANCH   4  19
ATOM     19  N   UNL     1       2.635   5.962  20.137  0.00  0.00    +0.000 N 
ATOM     20  H   UNL     1       3.294   5.792  20.896  0.00  0.00    +0.000 HD
BRANCH  19  21
ATOM     21  S   UNL     1       2.471   4.762  18.981  0.00  0.00    +0.000 S 
ATOM     22  O   UNL     1       2.267   3.521  19.691  0.00  0.00    +0.000 OA
ATOM     23  O   UNL     1       1.546   5.208  17.958  0.00  0.00    +0.000 OA
BRANCH  21  24
ATOM     24  C   UNL     1       4.095   4.687  18.249  0.00  0.00    +0.000 A 
ATOM     25  C   UNL     1       5.202   5.112  18.996  0.00  0.00    +0.000 A 
ATOM     26  C   UNL     1       6.478   5.034  18.438  0.00  0.00    +0.000 A 
ATOM     27  C   UNL     1       6.634   4.528  17.151  0.00  0.00    +0.000 A 
ATOM     28  F   UNL     1       7.860   4.463  16.615  0.00  0.00    +0.000 F 
ATOM     29  C   UNL     1       5.540   4.080  16.415  0.00  0.00    +0.000 A 
ATOM     30  C   UNL     1       4.262   4.149  16.968  0.00  0.00    +0.000 A 
ENDBRANCH  21  24
ENDBRANCH  19  21
ENDBRANCH   4  19
TORSDOF 4
ENDMDL
MODEL 7
REMARK VINA RESULT:      -7.2      2.145      2.558
REMARK  Name = 
REMARK  5 active torsions:
REMARK  status: ('A' for Active; 'I' for Inactive)
REMARK    1  A    between atoms: C_1  and  C_2
REMARK    2  A    between atoms: N_12  and  C_13
REMARK    3  A    between atoms: C_16  and  N_17
REMARK    4  A    between atoms: N_17  and  S_18
REMARK    5  A    between atoms: S_18  and  C_21
REMARK                            x       y       z     vdW  Elec       q    Type
REMARK                         _______ _______ _______ _____ _____    ______ ____
ROOT
ATOM      1  C   UNL     1       0.428  10.163  19.432  0.00  0.00    +0.000 A 
ATOM      2  C   UNL     1       0.925  11.334  20.017  0.00  0.00    +0.000 A 
ATOM      3  C   UNL     1       0.136  12.490  20.077  0.00  0.00    +0.000 A 
ATOM      4  C   UNL     1      -1.158  12.482  19.555  0.00  0.00    +0.000 A 
ATOM      5  C   UNL     1      -1.653  11.328  18.948  0.00  0.00    +0.000 A 
ATOM      6  C   UNL     1      -0.860  10.176  18.878  0.00  0.00    +0.000 A 
ENDROOT
BRANCH   1  18
ATOM      7  C   UNL     1       0.234   8.344  21.669  0.00  0.00    +0.000 C 
ATOM      8  C   UNL     1       1.166   8.076  20.505  0.00  0.00    +0.000 A 
ATOM      9  N   UNL     1       1.853   6.978  20.555  0.00  0.00    +0.000 NA
ATOM     10  C   UNL     1       2.723   6.678  19.504  0.00  0.00    +0.000 A 
ATOM     11  C   UNL     1       3.517   5.531  19.596  0.00  0.00    +0.000 A 
ATOM     12  C   UNL     1       4.472   5.245  18.616  0.00  0.00    +0.000 A 
ATOM     13  C   UNL     1       4.620   6.093  17.521  0.00  0.00    +0.000 A 
ATOM     14  C   UNL     1       3.797   7.212  17.393  0.00  0.00    +0.000 A 
ATOM     15  C   UNL     1       2.853   7.499  18.390  0.00  0.00    +0.000 A 
ATOM     16  C   UNL     1       1.994   8.697  18.312  0.00  0.00    +0.000 A 
ATOM     17  O   UNL     1       2.043   9.388  17.298  0.00  0.00    +0.000 OA
ATOM     18  N   UNL     1       1.206   8.966  19.442  0.00  0.00    +0.000 N 
ENDBRANCH   1  18
BRANCH   4  19
ATOM     19  N   UNL     1      -1.963  13.641  19.659  0.00  0.00    +0.000 N 
ATOM     20  H   UNL     1      -1.888  14.393  18.975  0.00  0.00    +0.000 HD
BRANCH  19  21
ATOM     21  S   UNL     1      -2.853  13.950  21.043  0.00  0.00    +0.000 S 
ATOM     22  O   UNL     1      -2.177  13.287  22.133  0.00  0.00    +0.000 OA
ATOM     23  O   UNL     1      -3.173  15.362  21.100  0.00  0.00    +0.000 OA
BRANCH  21  24
ATOM     24  C   UNL     1      -4.370  13.061  20.748  0.00  0.00    +0.000 A 
ATOM     25  C   UNL     1      -5.295  12.921  21.791  0.00  0.00    +0.000 A 
ATOM     26  C   UNL     1      -6.494  12.247  21.560  0.00  0.00    +0.000 A 
ATOM     27  C   UNL     1      -6.758  11.730  20.295  0.00  0.00    +0.000 A 
ATOM     28  F   UNL     1      -7.907  11.075  20.079  0.00  0.00    +0.000 F 
ATOM     29  C   UNL     1      -5.854  11.889  19.248  0.00  0.00    +0.000 A 
ATOM     30  C   UNL     1      -4.655  12.567  19.470  0.00  0.00    +0.000 A 
ENDBRANCH  21  24
ENDBRANCH  19  21
ENDBRANCH   4  19
TORSDOF 4
ENDMDL
MODEL 8
REMARK VINA RESULT:      -7.2      4.630      9.543
REMARK  Name = 
REMARK  5 active torsions:
REMARK  status: ('A' for Active; 'I' for Inactive)
REMARK    1  A    between atoms: C_1  and  C_2
REMARK    2  A    between atoms: N_12  and  C_13
REMARK    3  A    between atoms: C_16  and  N_17
REMARK    4  A    between atoms: N_17  and  S_18
REMARK    5  A    between atoms: S_18  and  C_21
REMARK                            x       y       z     vdW  Elec       q    Type
REMARK                         _______ _______ _______ _____ _____    ______ ____
ROOT
ATOM      1  C   UNL     1       1.602   8.445  19.532  0.00  0.00    +0.000 A 
ATOM      2  C   UNL     1       2.023   8.122  18.236  0.00  0.00    +0.000 A 
ATOM      3  C   UNL     1       2.612   6.880  17.969  0.00  0.00    +0.000 A 
ATOM      4  C   UNL     1       2.782   5.950  18.995  0.00  0.00    +0.000 A 
ATOM      5  C   UNL     1       2.389   6.273  20.293  0.00  0.00    +0.000 A 
ATOM      6  C   UNL     1       1.810   7.519  20.563  0.00  0.00    +0.000 A 
ENDROOT
BRANCH   1  18
ATOM      7  C   UNL     1      -0.408   8.593  21.603  0.00  0.00    +0.000 C 
ATOM      8  C   UNL     1      -0.057   9.793  20.749  0.00  0.00    +0.000 A 
ATOM      9  N   UNL     1      -0.689  10.894  21.012  0.00  0.00    +0.000 NA
ATOM     10  C   UNL     1      -0.399  12.035  20.260  0.00  0.00    +0.000 A 
ATOM     11  C   UNL     1      -1.134  13.201  20.495  0.00  0.00    +0.000 A 
ATOM     12  C   UNL     1      -0.947  14.334  19.700  0.00  0.00    +0.000 A 
ATOM     13  C   UNL     1      -0.001  14.318  18.677  0.00  0.00    +0.000 A 
ATOM     14  C   UNL     1       0.775  13.178  18.467  0.00  0.00    +0.000 A 
ATOM     15  C   UNL     1       0.568  12.040  19.261  0.00  0.00    +0.000 A 
ATOM     16  C   UNL     1       1.338  10.800  19.040  0.00  0.00    +0.000 A 
ATOM     17  O   UNL     1       2.247  10.814  18.214  0.00  0.00    +0.000 OA
ATOM     18  N   UNL     1       0.932   9.680  19.784  0.00  0.00    +0.000 N 
ENDBRANCH   1  18
BRANCH   4  19
ATOM     19  N   UNL     1       3.339   4.681  18.706  0.00  0.00    +0.000 N 
ATOM     20  H   UNL     1       2.740   3.876  18.529  0.00  0.00    +0.000 HD
BRANCH  19  21
ATOM     21  S   UNL     1       4.974   4.390  18.920  0.00  0.00    +0.000 S 
ATOM     22  O   UNL     1       5.504   5.507  19.665  0.00  0.00    +0.000 OA
ATOM     23  O   UNL     1       5.160   3.025  19.372  0.00  0.00    +0.000 OA
BRANCH  21  24
ATOM     24  C   UNL     1       5.620   4.507  17.263  0.00  0.00    +0.000 A 
ATOM     25  C   UNL     1       6.979   4.794  17.078  0.00  0.00    +0.000 A 
ATOM     26  C   UNL     1       7.496   4.863  15.784  0.00  0.00    +0.000 A 
ATOM     27  C   UNL     1       6.656   4.639  14.697  0.00  0.00    +0.000 A 
ATOM     28  F   UNL     1       7.155   4.715  13.456  0.00  0.00    +0.000 F 
ATOM     29  C   UNL     1       5.311   4.328  14.877  0.00  0.00    +0.000 A 
ATOM     30  C   UNL     1       4.788   4.250  16.168  0.00  0.00    +0.000 A 
ENDBRANCH  21  24
ENDBRANCH  19  21
ENDBRANCH   4  19
TORSDOF 4
ENDMDL
MODEL 9
REMARK VINA RESULT:      -7.1      4.568      9.264
REMARK  Name = 
REMARK  5 active torsions:
REMARK  status: ('A' for Active; 'I' for Inactive)
REMARK    1  A    between atoms: C_1  and  C_2
REMARK    2  A    between atoms: N_12  and  C_13
REMARK    3  A    between atoms: C_16  and  N_17
REMARK    4  A    between atoms: N_17  and  S_18
REMARK    5  A    between atoms: S_18  and  C_21
REMARK                            x       y       z     vdW  Elec       q    Type
REMARK                         _______ _______ _______ _____ _____    ______ ____
ROOT
ATOM      1  C   UNL     1       0.173   9.832  19.184  0.00  0.00    +0.000 A 
ATOM      2  C   UNL     1       0.916   9.858  17.998  0.00  0.00    +0.000 A 
ATOM      3  C   UNL     1       2.007   8.997  17.824  0.00  0.00    +0.000 A 
ATOM      4  C   UNL     1       2.361   8.103  18.833  0.00  0.00    +0.000 A 
ATOM      5  C   UNL     1       1.643   8.088  20.029  0.00  0.00    +0.000 A 
ATOM      6  C   UNL     1       0.559   8.955  20.207  0.00  0.00    +0.000 A 
ENDROOT
BRANCH   1  18
ATOM      7  C   UNL     1       0.085  11.845  21.257  0.00  0.00    +0.000 C 
ATOM      8  C   UNL     1      -1.083  11.616  20.321  0.00  0.00    +0.000 A 
ATOM      9  N   UNL     1      -2.114  12.386  20.484  0.00  0.00    +0.000 NA
ATOM     10  C   UNL     1      -3.217  12.223  19.644  0.00  0.00    +0.000 A 
ATOM     11  C   UNL     1      -4.355  13.004  19.869  0.00  0.00    +0.000 A 
ATOM     12  C   UNL     1      -5.516  12.805  19.117  0.00  0.00    +0.000 A 
ATOM     13  C   UNL     1      -5.538  11.840  18.113  0.00  0.00    +0.000 A 
ATOM     14  C   UNL     1      -4.392  11.091  17.844  0.00  0.00    +0.000 A 
ATOM     15  C   UNL     1      -3.237  11.288  18.615  0.00  0.00    +0.000 A 
ATOM     16  C   UNL     1      -2.018  10.485  18.391  0.00  0.00    +0.000 A 
ATOM     17  O   UNL     1      -1.994   9.710  17.438  0.00  0.00    +0.000 OA
ATOM     18  N   UNL     1      -0.985  10.655  19.326  0.00  0.00    +0.000 N 
ENDBRANCH   1  18
BRANCH   4  19
ATOM     19  N   UNL     1       3.439   7.207  18.631  0.00  0.00    +0.000 N 
ATOM     20  H   UNL     1       4.381   7.554  18.459  0.00  0.00    +0.000 HD
BRANCH  19  21
ATOM     21  S   UNL     1       3.166   5.573  18.389  0.00  0.00    +0.000 S 
ATOM     22  O   UNL     1       3.634   4.891  19.572  0.00  0.00    +0.000 OA
ATOM     23  O   UNL     1       1.819   5.383  17.890  0.00  0.00    +0.000 OA
BRANCH  21  24
ATOM     24  C   UNL     1       4.296   5.172  17.069  0.00  0.00    +0.000 A 
ATOM     25  C   UNL     1       4.868   6.207  16.319  0.00  0.00    +0.000 A 
ATOM     26  C   UNL     1       5.771   5.901  15.301  0.00  0.00    +0.000 A 
ATOM     27  C   UNL     1       6.097   4.571  15.051  0.00  0.00    +0.000 A 
ATOM     28  F   UNL     1       6.958   4.280  14.067  0.00  0.00    +0.000 F 
ATOM     29  C   UNL     1       5.552   3.539  15.811  0.00  0.00    +0.000 A 
ATOM     30  C   UNL     1       4.653   3.838  16.835  0.00  0.00    +0.000 A 
ENDBRANCH  21  24
ENDBRANCH  19  21
ENDBRANCH   4  19
TORSDOF 4
ENDMDL
