MODEL 1
REMARK VINA RESULT:      -8.9      0.000      0.000
REMARK  Name = 
REMARK  2 active torsions:
REMARK  status: ('A' for Active; 'I' for Inactive)
REMARK    1  A    between atoms: C_11  and  C_12
REMARK    2  A    between atoms: C_15  and  N_16
REMARK                            x       y       z     vdW  Elec       q    Type
REMARK                         _______ _______ _______ _____ _____    ______ ____
ROOT
ATOM      1  O   UNL     1       6.086   5.230  16.272  0.00  0.00    +0.000 OA
ATOM      2  C   UNL     1       5.134   4.698  16.800  0.00  0.00    +0.000 C 
ATOM      3  N   UNL     1       4.898   3.336  16.942  0.00  0.00    +0.000 N 
ATOM      4  C   UNL     1       3.690   3.095  17.594  0.00  0.00    +0.000 A 
ATOM      5  C   UNL     1       3.144   1.861  17.886  0.00  0.00    +0.000 A 
ATOM      6  C   UNL     1       1.899   1.844  18.521  0.00  0.00    +0.000 A 
ATOM      7  C   UNL     1       1.233   3.043  18.826  0.00  0.00    +0.000 A 
ATOM      8  C   UNL     1       1.806   4.282  18.518  0.00  0.00    +0.000 A 
ATOM      9  C   UNL     1       3.055   4.298  17.922  0.00  0.00    +0.000 A 
ATOM     10  C   UNL     1       3.956   5.364  17.473  0.00  0.00    +0.000 C 
ATOM     11  C   UNL     1       3.925   6.696  17.615  0.00  0.00    +0.000 C 
ATOM     12  H   UNL     1       5.532   2.635  16.592  0.00  0.00    +0.000 HD
ENDROOT
BRANCH  11  13
ATOM     13  C   UNL     1       2.915   7.450  18.357  0.00  0.00    +0.000 A 
ATOM     14  C   UNL     1       2.572   7.070  19.656  0.00  0.00    +0.000 A 
ATOM     15  C   UNL     1       1.628   7.806  20.373  0.00  0.00    +0.000 A 
ATOM     16  C   UNL     1       0.992   8.926  19.831  0.00  0.00    +0.000 A 
ATOM     17  C   UNL     1       1.332   9.283  18.515  0.00  0.00    +0.000 A 
ATOM     18  C   UNL     1       2.284   8.557  17.789  0.00  0.00    +0.000 A 
BRANCH  16  19
ATOM     19  N   UNL     1       0.078   9.652  20.562  0.00  0.00    +0.000 N 
ATOM     20  C   UNL     1      -0.182  11.076  20.306  0.00  0.00    +0.000 C 
ATOM     21  C   UNL     1       0.169  11.928  21.532  0.00  0.00    +0.000 C 
ATOM     22  O   UNL     1      -0.470  11.436  22.721  0.00  0.00    +0.000 OA
ATOM     23  C   UNL     1      -0.059  10.083  22.981  0.00  0.00    +0.000 C 
ATOM     24  C   UNL     1      -0.449   9.138  21.831  0.00  0.00    +0.000 C 
ENDBRANCH  16  19
ENDBRANCH  11  13
TORSDOF 2
ENDMDL
MODEL 2
REMARK VINA RESULT:      -8.7      0.758      1.398
REMARK  Name = 
REMARK  2 active torsions:
REMARK  status: ('A' for Active; 'I' for Inactive)
REMARK    1  A    between atoms: C_11  and  C_12
REMARK    2  A    between atoms: C_15  and  N_16
REMARK                            x       y       z     vdW  Elec       q    Type
REMARK                         _______ _______ _______ _____ _____    ______ ____
ROOT
ATOM      1  O   UNL     1       6.152   5.064  16.492  0.00  0.00    +0.000 OA
ATOM      2  C   UNL     1       5.141   4.598  16.971  0.00  0.00    +0.000 C 
ATOM      3  N   UNL     1       4.832   3.255  17.149  0.00  0.00    +0.000 N 
ATOM      4  C   UNL     1       3.570   3.096  17.720  0.00  0.00    +0.000 A 
ATOM      5  C   UNL     1       2.947   1.900  18.020  0.00  0.00    +0.000 A 
ATOM      6  C   UNL     1       1.661   1.965  18.562  0.00  0.00    +0.000 A 
ATOM      7  C   UNL     1       1.032   3.205  18.770  0.00  0.00    +0.000 A 
ATOM      8  C   UNL     1       1.683   4.403  18.455  0.00  0.00    +0.000 A 
ATOM      9  C   UNL     1       2.970   4.338  17.953  0.00  0.00    +0.000 A 
ATOM     10  C   UNL     1       3.951   5.343  17.529  0.00  0.00    +0.000 C 
ATOM     11  C   UNL     1       3.972   6.680  17.615  0.00  0.00    +0.000 C 
ATOM     12  H   UNL     1       5.455   2.512  16.874  0.00  0.00    +0.000 HD
ENDROOT
BRANCH  11  13
ATOM     13  C   UNL     1       2.948   7.509  18.251  0.00  0.00    +0.000 A 
ATOM     14  C   UNL     1       2.309   8.514  17.522  0.00  0.00    +0.000 A 
ATOM     15  C   UNL     1       1.314   9.287  18.122  0.00  0.00    +0.000 A 
ATOM     16  C   UNL     1       0.928   9.098  19.452  0.00  0.00    +0.000 A 
ATOM     17  C   UNL     1       1.596   8.098  20.178  0.00  0.00    +0.000 A 
ATOM     18  C   UNL     1       2.590   7.310  19.584  0.00  0.00    +0.000 A 
BRANCH  16  19
ATOM     19  N   UNL     1      -0.070   9.857  20.020  0.00  0.00    +0.000 N 
ATOM     20  C   UNL     1      -1.109  10.519  19.219  0.00  0.00    +0.000 C 
ATOM     21  C   UNL     1      -1.050  12.042  19.391  0.00  0.00    +0.000 C 
ATOM     22  O   UNL     1      -1.070  12.421  20.777  0.00  0.00    +0.000 OA
ATOM     23  C   UNL     1       0.053  11.846  21.465  0.00  0.00    +0.000 C 
ATOM     24  C   UNL     1       0.027  10.308  21.413  0.00  0.00    +0.000 C 
ENDBRANCH  16  19
ENDBRANCH  11  13
TORSDOF 2
ENDMDL
MODEL 3
REMARK VINA RESULT:      -8.7      0.372      1.063
REMARK  Name = 
REMARK  2 active torsions:
REMARK  status: ('A' for Active; 'I' for Inactive)
REMARK    1  A    between atoms: C_11  and  C_12
REMARK    2  A    between atoms: C_15  and  N_16
REMARK                            x       y       z     vdW  Elec       q    Type
REMARK                         _______ _______ _______ _____ _____    ______ ____
ROOT
ATOM      1  O   UNL     1       5.566   5.425  15.902  0.00  0.00    +0.000 OA
ATOM      2  C   UNL     1       4.741   4.859  16.586  0.00  0.00    +0.000 C 
ATOM      3  N   UNL     1       4.613   3.492  16.798  0.00  0.00    +0.000 N 
ATOM      4  C   UNL     1       3.537   3.206  17.637  0.00  0.00    +0.000 A 
ATOM      5  C   UNL     1       3.118   1.954  18.041  0.00  0.00    +0.000 A 
ATOM      6  C   UNL     1       1.990   1.889  18.862  0.00  0.00    +0.000 A 
ATOM      7  C   UNL     1       1.306   3.058  19.236  0.00  0.00    +0.000 A 
ATOM      8  C   UNL     1       1.748   4.316  18.810  0.00  0.00    +0.000 A 
ATOM      9  C   UNL     1       2.887   4.382  18.028  0.00  0.00    +0.000 A 
ATOM     10  C   UNL     1       3.641   5.480  17.417  0.00  0.00    +0.000 C 
ATOM     11  C   UNL     1       3.550   6.813  17.527  0.00  0.00    +0.000 C 
ATOM     12  H   UNL     1       5.227   2.816  16.372  0.00  0.00    +0.000 HD
ENDROOT
BRANCH  11  13
ATOM     13  C   UNL     1       2.623   7.534  18.397  0.00  0.00    +0.000 A 
ATOM     14  C   UNL     1       1.878   8.603  17.894  0.00  0.00    +0.000 A 
ATOM     15  C   UNL     1       0.973   9.273  18.718  0.00  0.00    +0.000 A 
ATOM     16  C   UNL     1       0.784   8.917  20.056  0.00  0.00    +0.000 A 
ATOM     17  C   UNL     1       1.556   7.855  20.554  0.00  0.00    +0.000 A 
ATOM     18  C   UNL     1       2.461   7.169  19.733  0.00  0.00    +0.000 A 
BRANCH  16  19
ATOM     19  N   UNL     1      -0.129   9.578  20.848  0.00  0.00    +0.000 N 
ATOM     20  C   UNL     1      -0.464  10.995  20.650  0.00  0.00    +0.000 C 
ATOM     21  C   UNL     1      -0.099  11.826  21.886  0.00  0.00    +0.000 C 
ATOM     22  O   UNL     1      -0.662  11.269  23.085  0.00  0.00    +0.000 OA
ATOM     23  C   UNL     1      -0.179   9.929  23.284  0.00  0.00    +0.000 C 
ATOM     24  C   UNL     1      -0.576   9.002  22.122  0.00  0.00    +0.000 C 
ENDBRANCH  16  19
ENDBRANCH  11  13
TORSDOF 2
ENDMDL
MODEL 4
REMARK VINA RESULT:      -8.7      0.868      1.143
REMARK  Name = 
REMARK  2 active torsions:
REMARK  status: ('A' for Active; 'I' for Inactive)
REMARK    1  A    between atoms: C_11  and  C_12
REMARK    2  A    between atoms: C_15  and  N_16
REMARK                            x       y       z     vdW  Elec       q    Type
REMARK                         _______ _______ _______ _____ _____    ______ ____
ROOT
ATOM      1  O   UNL     1       6.227   4.997  16.749  0.00  0.00    +0.000 OA
ATOM      2  C   UNL     1       5.188   4.550  17.182  0.00  0.00    +0.000 C 
ATOM      3  N   UNL     1       4.862   3.214  17.385  0.00  0.00    +0.000 N 
ATOM      4  C   UNL     1       3.568   3.078  17.887  0.00  0.00    +0.000 A 
ATOM      5  C   UNL     1       2.922   1.895  18.187  0.00  0.00    +0.000 A 
ATOM      6  C   UNL     1       1.608   1.981  18.651  0.00  0.00    +0.000 A 
ATOM      7  C   UNL     1       0.974   3.229  18.782  0.00  0.00    +0.000 A 
ATOM      8  C   UNL     1       1.648   4.414  18.469  0.00  0.00    +0.000 A 
ATOM      9  C   UNL     1       2.962   4.329  18.044  0.00  0.00    +0.000 A 
ATOM     10  C   UNL     1       3.971   5.316  17.647  0.00  0.00    +0.000 C 
ATOM     11  C   UNL     1       3.994   6.656  17.691  0.00  0.00    +0.000 C 
ATOM     12  H   UNL     1       5.496   2.461  17.170  0.00  0.00    +0.000 HD
ENDROOT
BRANCH  11  13
ATOM     13  C   UNL     1       2.940   7.508  18.240  0.00  0.00    +0.000 A 
ATOM     14  C   UNL     1       2.552   7.371  19.575  0.00  0.00    +0.000 A 
ATOM     15  C   UNL     1       1.565   8.203  20.104  0.00  0.00    +0.000 A 
ATOM     16  C   UNL     1       0.929   9.182  19.336  0.00  0.00    +0.000 A 
ATOM     17  C   UNL     1       1.313   9.292  17.990  0.00  0.00    +0.000 A 
ATOM     18  C   UNL     1       2.309   8.469  17.449  0.00  0.00    +0.000 A 
BRANCH  16  19
ATOM     19  N   UNL     1      -0.029  10.007  19.882  0.00  0.00    +0.000 N 
ATOM     20  C   UNL     1      -1.098  10.615  19.077  0.00  0.00    +0.000 C 
ATOM     21  C   UNL     1      -1.008  12.146  19.108  0.00  0.00    +0.000 C 
ATOM     22  O   UNL     1      -0.952  12.646  20.454  0.00  0.00    +0.000 OA
ATOM     23  C   UNL     1       0.196  12.114  21.135  0.00  0.00    +0.000 C 
ATOM     24  C   UNL     1       0.146  10.579  21.222  0.00  0.00    +0.000 C 
ENDBRANCH  16  19
ENDBRANCH  11  13
TORSDOF 2
ENDMDL
MODEL 5
REMARK VINA RESULT:      -8.2      1.564      1.897
REMARK  Name = 
REMARK  2 active torsions:
REMARK  status: ('A' for Active; 'I' for Inactive)
REMARK    1  A    between atoms: C_11  and  C_12
REMARK    2  A    between atoms: C_15  and  N_16
REMARK                            x       y       z     vdW  Elec       q    Type
REMARK                         _______ _______ _______ _____ _____    ______ ____
ROOT
ATOM      1  O   UNL     1       5.866   4.849  17.433  0.00  0.00    +0.000 OA
ATOM      2  C   UNL     1       4.902   4.535  18.096  0.00  0.00    +0.000 C 
ATOM      3  N   UNL     1       4.659   3.312  18.710  0.00  0.00    +0.000 N 
ATOM      4  C   UNL     1       3.437   3.313  19.380  0.00  0.00    +0.000 A 
ATOM      5  C   UNL     1       2.881   2.261  20.081  0.00  0.00    +0.000 A 
ATOM      6  C   UNL     1       1.624   2.465  20.654  0.00  0.00    +0.000 A 
ATOM      7  C   UNL     1       0.954   3.690  20.497  0.00  0.00    +0.000 A 
ATOM      8  C   UNL     1       1.537   4.741  19.779  0.00  0.00    +0.000 A 
ATOM      9  C   UNL     1       2.798   4.551  19.244  0.00  0.00    +0.000 A 
ATOM     10  C   UNL     1       3.711   5.391  18.463  0.00  0.00    +0.000 C 
ATOM     11  C   UNL     1       3.680   6.686  18.120  0.00  0.00    +0.000 C 
ATOM     12  H   UNL     1       5.298   2.535  18.646  0.00  0.00    +0.000 HD
ENDROOT
BRANCH  11  13
ATOM     13  C   UNL     1       2.657   7.649  18.523  0.00  0.00    +0.000 A 
ATOM     14  C   UNL     1       2.249   7.720  19.857  0.00  0.00    +0.000 A 
ATOM     15  C   UNL     1       1.291   8.659  20.245  0.00  0.00    +0.000 A 
ATOM     16  C   UNL     1       0.706   9.542  19.335  0.00  0.00    +0.000 A 
ATOM     17  C   UNL     1       1.110   9.444  17.993  0.00  0.00    +0.000 A 
ATOM     18  C   UNL     1       2.077   8.512  17.593  0.00  0.00    +0.000 A 
BRANCH  16  19
ATOM     19  N   UNL     1      -0.222  10.475  19.741  0.00  0.00    +0.000 N 
ATOM     20  C   UNL     1      -1.430  10.777  18.960  0.00  0.00    +0.000 C 
ATOM     21  C   UNL     1      -1.441  12.243  18.508  0.00  0.00    +0.000 C 
ATOM     22  O   UNL     1      -1.236  13.140  19.612  0.00  0.00    +0.000 OA
ATOM     23  C   UNL     1       0.029  12.872  20.241  0.00  0.00    +0.000 C 
ATOM     24  C   UNL     1       0.095  11.440  20.800  0.00  0.00    +0.000 C 
ENDBRANCH  16  19
ENDBRANCH  11  13
TORSDOF 2
ENDMDL
MODEL 6
REMARK VINA RESULT:      -8.1      2.505      7.926
REMARK  Name = 
REMARK  2 active torsions:
REMARK  status: ('A' for Active; 'I' for Inactive)
REMARK    1  A    between atoms: C_11  and  C_12
REMARK    2  A    between atoms: C_15  and  N_16
REMARK                            x       y       z     vdW  Elec       q    Type
REMARK                         _______ _______ _______ _____ _____    ______ ____
ROOT
ATOM      1  O   UNL     1      -0.641  13.376  21.116  0.00  0.00    +0.000 OA
ATOM      2  C   UNL     1      -1.166  12.662  20.290  0.00  0.00    +0.000 C 
ATOM      3  N   UNL     1      -2.358  12.887  19.612  0.00  0.00    +0.000 N 
ATOM      4  C   UNL     1      -2.655  11.837  18.744  0.00  0.00    +0.000 A 
ATOM      5  C   UNL     1      -3.767  11.731  17.932  0.00  0.00    +0.000 A 
ATOM      6  C   UNL     1      -3.888  10.574  17.159  0.00  0.00    +0.000 A 
ATOM      7  C   UNL     1      -2.919   9.557  17.232  0.00  0.00    +0.000 A 
ATOM      8  C   UNL     1      -1.803   9.687  18.066  0.00  0.00    +0.000 A 
ATOM      9  C   UNL     1      -1.666  10.850  18.803  0.00  0.00    +0.000 A 
ATOM     10  C   UNL     1      -0.661  11.344  19.749  0.00  0.00    +0.000 C 
ATOM     11  C   UNL     1       0.542  10.881  20.117  0.00  0.00    +0.000 C 
ATOM     12  H   UNL     1      -2.922  13.708  19.763  0.00  0.00    +0.000 HD
ENDROOT
BRANCH  11  13
ATOM     13  C   UNL     1       1.201   9.695  19.571  0.00  0.00    +0.000 A 
ATOM     14  C   UNL     1       1.383   8.565  20.371  0.00  0.00    +0.000 A 
ATOM     15  C   UNL     1       1.988   7.424  19.841  0.00  0.00    +0.000 A 
ATOM     16  C   UNL     1       2.436   7.368  18.519  0.00  0.00    +0.000 A 
ATOM     17  C   UNL     1       2.266   8.520  17.733  0.00  0.00    +0.000 A 
ATOM     18  C   UNL     1       1.652   9.668  18.252  0.00  0.00    +0.000 A 
BRANCH  16  19
ATOM     19  N   UNL     1       3.012   6.226  18.008  0.00  0.00    +0.000 N 
ATOM     20  C   UNL     1       2.288   4.950  17.919  0.00  0.00    +0.000 C 
ATOM     21  C   UNL     1       2.970   3.869  18.767  0.00  0.00    +0.000 C 
ATOM     22  O   UNL     1       4.368   3.755  18.456  0.00  0.00    +0.000 OA
ATOM     23  C   UNL     1       5.035   5.005  18.699  0.00  0.00    +0.000 C 
ATOM     24  C   UNL     1       4.465   6.134  17.823  0.00  0.00    +0.000 C 
ENDBRANCH  16  19
ENDBRANCH  11  13
TORSDOF 2
ENDMDL
MODEL 7
REMARK VINA RESULT:      -8.1      2.253      3.500
REMARK  Name = 
REMARK  2 active torsions:
REMARK  status: ('A' for Active; 'I' for Inactive)
REMARK    1  A    between atoms: C_11  and  C_12
REMARK    2  A    between atoms: C_15  and  N_16
REMARK                            x       y       z     vdW  Elec       q    Type
REMARK                         _______ _______ _______ _____ _____    ______ ____
ROOT
ATOM      1  O   UNL     1       3.711   2.726  20.183  0.00  0.00    +0.000 OA
ATOM      2  C   UNL     1       4.317   3.536  19.516  0.00  0.00    +0.000 C 
ATOM      3  N   UNL     1       5.481   3.329  18.786  0.00  0.00    +0.000 N 
ATOM      4  C   UNL     1       5.898   4.498  18.152  0.00  0.00    +0.000 A 
ATOM      5  C   UNL     1       7.020   4.651  17.360  0.00  0.00    +0.000 A 
ATOM      6  C   UNL     1       7.273   5.924  16.844  0.00  0.00    +0.000 A 
ATOM      7  C   UNL     1       6.423   7.002  17.145  0.00  0.00    +0.000 A 
ATOM      8  C   UNL     1       5.294   6.823  17.953  0.00  0.00    +0.000 A 
ATOM      9  C   UNL     1       5.024   5.554  18.432  0.00  0.00    +0.000 A 
ATOM     10  C   UNL     1       3.964   4.985  19.272  0.00  0.00    +0.000 C 
ATOM     11  C   UNL     1       2.818   5.490  19.748  0.00  0.00    +0.000 C 
ATOM     12  H   UNL     1       5.950   2.438  18.751  0.00  0.00    +0.000 HD
ENDROOT
BRANCH  11  13
ATOM     13  C   UNL     1       2.298   6.829  19.475  0.00  0.00    +0.000 A 
ATOM     14  C   UNL     1       2.279   7.319  18.167  0.00  0.00    +0.000 A 
ATOM     15  C   UNL     1       1.758   8.587  17.904  0.00  0.00    +0.000 A 
ATOM     16  C   UNL     1       1.251   9.406  18.916  0.00  0.00    +0.000 A 
ATOM     17  C   UNL     1       1.298   8.909  20.229  0.00  0.00    +0.000 A 
ATOM     18  C   UNL     1       1.810   7.634  20.504  0.00  0.00    +0.000 A 
BRANCH  16  19
ATOM     19  N   UNL     1       0.722  10.645  18.633  0.00  0.00    +0.000 N 
ATOM     20  C   UNL     1       1.469  11.891  18.859  0.00  0.00    +0.000 C 
ATOM     21  C   UNL     1       0.756  12.783  19.882  0.00  0.00    +0.000 C 
ATOM     22  O   UNL     1      -0.621  12.999  19.530  0.00  0.00    +0.000 OA
ATOM     23  C   UNL     1      -1.318  11.744  19.463  0.00  0.00    +0.000 C 
ATOM     24  C   UNL     1      -0.716  10.814  18.396  0.00  0.00    +0.000 C 
ENDBRANCH  16  19
ENDBRANCH  11  13
TORSDOF 2
ENDMDL
MODEL 8
REMARK VINA RESULT:      -8.0      1.938      2.533
REMARK  Name = 
REMARK  2 active torsions:
REMARK  status: ('A' for Active; 'I' for Inactive)
REMARK    1  A    between atoms: C_11  and  C_12
REMARK    2  A    between atoms: C_15  and  N_16
REMARK                            x       y       z     vdW  Elec       q    Type
REMARK                         _______ _______ _______ _____ _____    ______ ____
ROOT
ATOM      1  O   UNL     1       6.147   4.612  17.953  0.00  0.00    +0.000 OA
ATOM      2  C   UNL     1       5.151   4.352  18.592  0.00  0.00    +0.000 C 
ATOM      3  N   UNL     1       4.881   3.189  19.302  0.00  0.00    +0.000 N 
ATOM      4  C   UNL     1       3.625   3.241  19.905  0.00  0.00    +0.000 A 
ATOM      5  C   UNL     1       3.038   2.253  20.670  0.00  0.00    +0.000 A 
ATOM      6  C   UNL     1       1.751   2.497  21.156  0.00  0.00    +0.000 A 
ATOM      7  C   UNL     1       1.085   3.697  20.852  0.00  0.00    +0.000 A 
ATOM      8  C   UNL     1       1.701   4.682  20.071  0.00  0.00    +0.000 A 
ATOM      9  C   UNL     1       2.989   4.455  19.622  0.00  0.00    +0.000 A 
ATOM     10  C   UNL     1       3.939   5.227  18.815  0.00  0.00    +0.000 C 
ATOM     11  C   UNL     1       3.920   6.485  18.352  0.00  0.00    +0.000 C 
ATOM     12  H   UNL     1       5.526   2.416  19.344  0.00  0.00    +0.000 HD
ENDROOT
BRANCH  11  13
ATOM     13  C   UNL     1       2.873   7.472  18.611  0.00  0.00    +0.000 A 
ATOM     14  C   UNL     1       2.431   8.309  17.584  0.00  0.00    +0.000 A 
ATOM     15  C   UNL     1       1.413   9.233  17.825  0.00  0.00    +0.000 A 
ATOM     16  C   UNL     1       0.811   9.363  19.079  0.00  0.00    +0.000 A 
ATOM     17  C   UNL     1       1.282   8.530  20.107  0.00  0.00    +0.000 A 
ATOM     18  C   UNL     1       2.297   7.593  19.875  0.00  0.00    +0.000 A 
BRANCH  16  19
ATOM     19  N   UNL     1      -0.206  10.267  19.292  0.00  0.00    +0.000 N 
ATOM     20  C   UNL     1      -1.500  10.173  18.602  0.00  0.00    +0.000 C 
ATOM     21  C   UNL     1      -1.754  11.413  17.736  0.00  0.00    +0.000 C 
ATOM     22  O   UNL     1      -1.596  12.627  18.489  0.00  0.00    +0.000 OA
ATOM     23  C   UNL     1      -0.262  12.712  19.018  0.00  0.00    +0.000 C 
ATOM     24  C   UNL     1       0.050  11.543  19.969  0.00  0.00    +0.000 C 
ENDBRANCH  16  19
ENDBRANCH  11  13
TORSDOF 2
ENDMDL
MODEL 9
REMARK VINA RESULT:      -8.0      1.706      3.353
REMARK  Name = 
REMARK  2 active torsions:
REMARK  status: ('A' for Active; 'I' for Inactive)
REMARK    1  A    between atoms: C_11  and  C_12
REMARK    2  A    between atoms: C_15  and  N_16
REMARK                            x       y       z     vdW  Elec       q    Type
REMARK                         _______ _______ _______ _____ _____    ______ ____
ROOT
ATOM      1  O   UNL     1       2.925   2.285  17.650  0.00  0.00    +0.000 OA
ATOM      2  C   UNL     1       3.727   3.184  17.521  0.00  0.00    +0.000 C 
ATOM      3  N   UNL     1       4.972   3.124  16.907  0.00  0.00    +0.000 N 
ATOM      4  C   UNL     1       5.624   4.355  16.959  0.00  0.00    +0.000 A 
ATOM      5  C   UNL     1       6.879   4.645  16.460  0.00  0.00    +0.000 A 
ATOM      6  C   UNL     1       7.360   5.942  16.647  0.00  0.00    +0.000 A 
ATOM      7  C   UNL     1       6.596   6.899  17.337  0.00  0.00    +0.000 A 
ATOM      8  C   UNL     1       5.328   6.581  17.837  0.00  0.00    +0.000 A 
ATOM      9  C   UNL     1       4.836   5.306  17.618  0.00  0.00    +0.000 A 
ATOM     10  C   UNL     1       3.588   4.621  17.966  0.00  0.00    +0.000 C 
ATOM     11  C   UNL     1       2.438   5.053  18.503  0.00  0.00    +0.000 C 
ATOM     12  H   UNL     1       5.337   2.278  16.499  0.00  0.00    +0.000 HD
ENDROOT
BRANCH  11  13
ATOM     13  C   UNL     1       2.128   6.438  18.851  0.00  0.00    +0.000 A 
ATOM     14  C   UNL     1       2.017   7.405  17.849  0.00  0.00    +0.000 A 
ATOM     15  C   UNL     1       1.695   8.721  18.181  0.00  0.00    +0.000 A 
ATOM     16  C   UNL     1       1.482   9.123  19.502  0.00  0.00    +0.000 A 
ATOM     17  C   UNL     1       1.618   8.145  20.501  0.00  0.00    +0.000 A 
ATOM     18  C   UNL     1       1.933   6.818  20.179  0.00  0.00    +0.000 A 
BRANCH  16  19
ATOM     19  N   UNL     1       1.144  10.423  19.808  0.00  0.00    +0.000 N 
ATOM     20  C   UNL     1       0.580  10.805  21.110  0.00  0.00    +0.000 C 
ATOM     21  C   UNL     1      -0.826  11.396  20.949  0.00  0.00    +0.000 C 
ATOM     22  O   UNL     1      -0.847  12.461  19.984  0.00  0.00    +0.000 OA
ATOM     23  C   UNL     1      -0.412  11.976  18.702  0.00  0.00    +0.000 C 
ATOM     24  C   UNL     1       1.028  11.437  18.754  0.00  0.00    +0.000 C 
ENDBRANCH  16  19
ENDBRANCH  11  13
TORSDOF 2
ENDMDL
