MODEL 1
REMARK VINA RESULT:      -7.8      0.000      0.000
REMARK  Name = 
REMARK  6 active torsions:
REMARK  status: ('A' for Active; 'I' for Inactive)
REMARK    1  A    between atoms: C_2  and  O_3
REMARK    2  A    between atoms: C_2  and  C_20
REMARK    3  A    between atoms: O_3  and  C_4
REMARK    4  A    between atoms: C_6  and  N_7
REMARK    5  A    between atoms: C_17  and  C_18
REMARK    6  A    between atoms: C_18  and  O_19
REMARK                            x       y       z     vdW  Elec       q    Type
REMARK                         _______ _______ _______ _____ _____    ______ ____
ROOT
ATOM      1  C   UNL     1       5.462   4.776  17.378  0.00  0.00    +0.000 C 
ATOM      2  C   UNL     1       4.023   4.326  17.481  0.00  0.00    +0.000 C 
ATOM      3  C   UNL     1       3.678   4.518  18.957  0.00  0.00    +0.000 C 
ATOM      4  O   UNL     1       4.913   4.569  19.693  0.00  0.00    +0.000 OA
ATOM      5  C   UNL     1       6.029   4.553  18.776  0.00  0.00    +0.000 C 
ENDROOT
BRANCH   3   6
ATOM      6  N   UNL     1       2.857   5.701  19.258  0.00  0.00    +0.000 N 
ATOM      7  C   UNL     1       2.863   6.821  18.439  0.00  0.00    +0.000 A 
ATOM      8  C   UNL     1       2.274   7.963  18.792  0.00  0.00    +0.000 A 
ATOM      9  F   UNL     1       2.308   9.062  18.017  0.00  0.00    +0.000 F 
ATOM     10  C   UNL     1       1.597   8.065  20.097  0.00  0.00    +0.000 A 
ATOM     11  O   UNL     1       1.116   9.110  20.516  0.00  0.00    +0.000 OA
ATOM     12  N   UNL     1       1.570   6.900  20.815  0.00  0.00    +0.000 N 
ATOM     13  C   UNL     1       2.236   5.738  20.507  0.00  0.00    +0.000 A 
ATOM     14  O   UNL     1       2.271   4.816  21.317  0.00  0.00    +0.000 OA
ATOM     15  H   UNL     1       1.149   6.946  21.732  0.00  0.00    +0.000 HD
ENDBRANCH   3   6
BRANCH   1  16
ATOM     16  O   UNL     1       6.209   4.218  16.274  0.00  0.00    +0.000 OA
BRANCH  16  18
ATOM     17  O   UNL     1       7.563   5.992  15.752  0.00  0.00    +0.000 OA
ATOM     18  C   UNL     1       6.906   5.017  15.425  0.00  0.00    +0.000 C 
BRANCH  18  19
ATOM     19  C   UNL     1       6.788   4.538  14.025  0.00  0.00    +0.000 A 
ATOM     20  C   UNL     1       5.837   3.601  13.604  0.00  0.00    +0.000 A 
ATOM     21  C   UNL     1       5.782   3.228  12.258  0.00  0.00    +0.000 A 
ATOM     22  C   UNL     1       6.685   3.797  11.375  0.00  0.00    +0.000 A 
ATOM     23  N   UNL     1       7.627   4.688  11.749  0.00  0.00    +0.000 NA
ATOM     24  C   UNL     1       7.659   5.037  13.065  0.00  0.00    +0.000 A 
ENDBRANCH  18  19
ENDBRANCH  16  18
ENDBRANCH   1  16
BRANCH   5  25
ATOM     25  C   UNL     1       6.976   5.686  19.191  0.00  0.00    +0.000 C 
BRANCH  25  26
ATOM     26  O   UNL     1       7.704   5.335  20.367  0.00  0.00    +0.000 OA
ATOM     27  H   UNL     1       8.360   6.043  20.508  0.00  0.00    +0.000 HD
ENDBRANCH  25  26
ENDBRANCH   5  25
TORSDOF 6
ENDMDL
MODEL 2
REMARK VINA RESULT:      -7.7      2.168      3.641
REMARK  Name = 
REMARK  6 active torsions:
REMARK  status: ('A' for Active; 'I' for Inactive)
REMARK    1  A    between atoms: C_2  and  O_3
REMARK    2  A    between atoms: C_2  and  C_20
REMARK    3  A    between atoms: O_3  and  C_4
REMARK    4  A    between atoms: C_6  and  N_7
REMARK    5  A    between atoms: C_17  and  C_18
REMARK    6  A    between atoms: C_18  and  O_19
REMARK                            x       y       z     vdW  Elec       q    Type
REMARK                         _______ _______ _______ _____ _____    ______ ____
ROOT
ATOM      1  C   UNL     1       4.087   5.144  19.381  0.00  0.00    +0.000 C 
ATOM      2  C   UNL     1       4.014   6.336  18.455  0.00  0.00    +0.000 C 
ATOM      3  C   UNL     1       2.520   6.641  18.358  0.00  0.00    +0.000 C 
ATOM      4  O   UNL     1       1.804   5.457  18.751  0.00  0.00    +0.000 OA
ATOM      5  C   UNL     1       2.735   4.456  19.217  0.00  0.00    +0.000 C 
ENDROOT
BRANCH   3   6
ATOM      6  N   UNL     1       2.065   7.797  19.148  0.00  0.00    +0.000 N 
ATOM      7  C   UNL     1       1.741   7.680  20.492  0.00  0.00    +0.000 A 
ATOM      8  C   UNL     1       1.154   8.666  21.169  0.00  0.00    +0.000 A 
ATOM      9  F   UNL     1       0.805   8.545  22.463  0.00  0.00    +0.000 F 
ATOM     10  C   UNL     1       0.820   9.927  20.484  0.00  0.00    +0.000 A 
ATOM     11  O   UNL     1       0.202  10.835  21.027  0.00  0.00    +0.000 OA
ATOM     12  N   UNL     1       1.236   9.994  19.182  0.00  0.00    +0.000 N 
ATOM     13  C   UNL     1       1.769   8.965  18.444  0.00  0.00    +0.000 A 
ATOM     14  O   UNL     1       1.945   9.101  17.237  0.00  0.00    +0.000 OA
ATOM     15  H   UNL     1       0.986  10.829  18.672  0.00  0.00    +0.000 HD
ENDBRANCH   3   6
BRANCH   1  16
ATOM     16  O   UNL     1       5.262   4.316  19.235  0.00  0.00    +0.000 OA
BRANCH  16  18
ATOM     17  O   UNL     1       7.315   5.297  19.506  0.00  0.00    +0.000 OA
ATOM     18  C   UNL     1       6.436   4.838  18.795  0.00  0.00    +0.000 C 
BRANCH  18  19
ATOM     19  C   UNL     1       6.532   4.761  17.315  0.00  0.00    +0.000 A 
ATOM     20  C   UNL     1       5.866   3.801  16.544  0.00  0.00    +0.000 A 
ATOM     21  C   UNL     1       5.994   3.821  15.153  0.00  0.00    +0.000 A 
ATOM     22  C   UNL     1       6.790   4.796  14.575  0.00  0.00    +0.000 A 
ATOM     23  N   UNL     1       7.461   5.725  15.287  0.00  0.00    +0.000 NA
ATOM     24  C   UNL     1       7.318   5.686  16.641  0.00  0.00    +0.000 A 
ENDBRANCH  18  19
ENDBRANCH  16  18
ENDBRANCH   1  16
BRANCH   5  25
ATOM     25  C   UNL     1       2.203   3.927  20.555  0.00  0.00    +0.000 C 
BRANCH  25  26
ATOM     26  O   UNL     1       0.776   3.927  20.570  0.00  0.00    +0.000 OA
ATOM     27  H   UNL     1       0.503   4.790  20.934  0.00  0.00    +0.000 HD
ENDBRANCH  25  26
ENDBRANCH   5  25
TORSDOF 6
ENDMDL
MODEL 3
REMARK VINA RESULT:      -7.6      2.828      7.883
REMARK  Name = 
REMARK  6 active torsions:
REMARK  status: ('A' for Active; 'I' for Inactive)
REMARK    1  A    between atoms: C_2  and  O_3
REMARK    2  A    between atoms: C_2  and  C_20
REMARK    3  A    between atoms: O_3  and  C_4
REMARK    4  A    between atoms: C_6  and  N_7
REMARK    5  A    between atoms: C_17  and  C_18
REMARK    6  A    between atoms: C_18  and  O_19
REMARK                            x       y       z     vdW  Elec       q    Type
REMARK                         _______ _______ _______ _____ _____    ______ ____
ROOT
ATOM      1  C   UNL     1       3.314   5.913  17.919  0.00  0.00    +0.000 C 
ATOM      2  C   UNL     1       4.764   6.336  17.861  0.00  0.00    +0.000 C 
ATOM      3  C   UNL     1       5.504   5.068  17.437  0.00  0.00    +0.000 C 
ATOM      4  O   UNL     1       4.655   3.945  17.731  0.00  0.00    +0.000 OA
ATOM      5  C   UNL     1       3.369   4.413  18.194  0.00  0.00    +0.000 C 
ENDROOT
BRANCH   3   6
ATOM      6  N   UNL     1       5.927   5.033  16.028  0.00  0.00    +0.000 N 
ATOM      7  C   UNL     1       5.269   4.251  15.088  0.00  0.00    +0.000 A 
ATOM      8  C   UNL     1       5.749   4.064  13.860  0.00  0.00    +0.000 A 
ATOM      9  F   UNL     1       5.134   3.278  12.957  0.00  0.00    +0.000 F 
ATOM     10  C   UNL     1       7.025   4.690  13.468  0.00  0.00    +0.000 A 
ATOM     11  O   UNL     1       7.561   4.484  12.387  0.00  0.00    +0.000 OA
ATOM     12  N   UNL     1       7.575   5.502  14.422  0.00  0.00    +0.000 N 
ATOM     13  C   UNL     1       7.141   5.646  15.718  0.00  0.00    +0.000 A 
ATOM     14  O   UNL     1       7.818   6.274  16.527  0.00  0.00    +0.000 OA
ATOM     15  H   UNL     1       8.470   5.914  14.200  0.00  0.00    +0.000 HD
ENDBRANCH   3   6
BRANCH   1  16
ATOM     16  O   UNL     1       2.471   6.703  18.786  0.00  0.00    +0.000 OA
BRANCH  16  18
ATOM     17  O   UNL     1       2.373   8.528  17.403  0.00  0.00    +0.000 OA
ATOM     18  C   UNL     1       2.152   7.986  18.473  0.00  0.00    +0.000 C 
BRANCH  18  19
ATOM     19  C   UNL     1       1.467   8.657  19.608  0.00  0.00    +0.000 A 
ATOM     20  C   UNL     1       1.465   8.158  20.916  0.00  0.00    +0.000 A 
ATOM     21  C   UNL     1       0.815   8.871  21.927  0.00  0.00    +0.000 A 
ATOM     22  C   UNL     1       0.181  10.058  21.598  0.00  0.00    +0.000 A 
ATOM     23  N   UNL     1       0.147  10.559  20.345  0.00  0.00    +0.000 NA
ATOM     24  C   UNL     1       0.789   9.847  19.378  0.00  0.00    +0.000 A 
ENDBRANCH  18  19
ENDBRANCH  16  18
ENDBRANCH   1  16
BRANCH   5  25
ATOM     25  C   UNL     1       2.296   3.653  17.403  0.00  0.00    +0.000 C 
BRANCH  25  26
ATOM     26  O   UNL     1       1.087   4.408  17.332  0.00  0.00    +0.000 OA
ATOM     27  H   UNL     1       1.287   5.201  16.800  0.00  0.00    +0.000 HD
ENDBRANCH  25  26
ENDBRANCH   5  25
TORSDOF 6
ENDMDL
MODEL 4
REMARK VINA RESULT:      -7.6      0.711      1.012
REMARK  Name = 
REMARK  6 active torsions:
REMARK  status: ('A' for Active; 'I' for Inactive)
REMARK    1  A    between atoms: C_2  and  O_3
REMARK    2  A    between atoms: C_2  and  C_20
REMARK    3  A    between atoms: O_3  and  C_4
REMARK    4  A    between atoms: C_6  and  N_7
REMARK    5  A    between atoms: C_17  and  C_18
REMARK    6  A    between atoms: C_18  and  O_19
REMARK                            x       y       z     vdW  Elec       q    Type
REMARK                         _______ _______ _______ _____ _____    ______ ____
ROOT
ATOM      1  C   UNL     1       5.603   4.682  17.379  0.00  0.00    +0.000 C 
ATOM      2  C   UNL     1       4.174   4.206  17.502  0.00  0.00    +0.000 C 
ATOM      3  C   UNL     1       3.826   4.448  18.970  0.00  0.00    +0.000 C 
ATOM      4  O   UNL     1       5.060   4.552  19.701  0.00  0.00    +0.000 OA
ATOM      5  C   UNL     1       6.176   4.523  18.784  0.00  0.00    +0.000 C 
ENDROOT
BRANCH   3   6
ATOM      6  N   UNL     1       2.981   5.625  19.226  0.00  0.00    +0.000 N 
ATOM      7  C   UNL     1       3.003   6.734  18.393  0.00  0.00    +0.000 A 
ATOM      8  C   UNL     1       2.389   7.873  18.711  0.00  0.00    +0.000 A 
ATOM      9  F   UNL     1       2.437   8.963  17.924  0.00  0.00    +0.000 F 
ATOM     10  C   UNL     1       1.666   7.983  19.990  0.00  0.00    +0.000 A 
ATOM     11  O   UNL     1       1.158   9.028  20.379  0.00  0.00    +0.000 OA
ATOM     12  N   UNL     1       1.628   6.828  20.722  0.00  0.00    +0.000 N 
ATOM     13  C   UNL     1       2.317   5.670  20.453  0.00  0.00    +0.000 A 
ATOM     14  O   UNL     1       2.335   4.759  21.275  0.00  0.00    +0.000 OA
ATOM     15  H   UNL     1       1.174   6.881  21.623  0.00  0.00    +0.000 HD
ENDBRANCH   3   6
BRANCH   1  16
ATOM     16  O   UNL     1       6.360   4.097  16.296  0.00  0.00    +0.000 OA
BRANCH  16  18
ATOM     17  O   UNL     1       7.608   5.849  15.504  0.00  0.00    +0.000 OA
ATOM     18  C   UNL     1       6.900   4.872  15.320  0.00  0.00    +0.000 C 
BRANCH  18  19
ATOM     19  C   UNL     1       6.535   4.364  13.973  0.00  0.00    +0.000 A 
ATOM     20  C   UNL     1       7.412   4.361  12.882  0.00  0.00    +0.000 A 
ATOM     21  C   UNL     1       6.990   3.838  11.657  0.00  0.00    +0.000 A 
ATOM     22  C   UNL     1       5.701   3.340  11.558  0.00  0.00    +0.000 A 
ATOM     23  N   UNL     1       4.824   3.344  12.583  0.00  0.00    +0.000 NA
ATOM     24  C   UNL     1       5.259   3.857  13.766  0.00  0.00    +0.000 A 
ENDBRANCH  18  19
ENDBRANCH  16  18
ENDBRANCH   1  16
BRANCH   5  25
ATOM     25  C   UNL     1       7.100   5.691  19.153  0.00  0.00    +0.000 C 
BRANCH  25  26
ATOM     26  O   UNL     1       7.776   5.434  20.383  0.00  0.00    +0.000 OA
ATOM     27  H   UNL     1       8.079   4.508  20.345  0.00  0.00    +0.000 HD
ENDBRANCH  25  26
ENDBRANCH   5  25
TORSDOF 6
ENDMDL
MODEL 5
REMARK VINA RESULT:      -7.5      2.689      7.181
REMARK  Name = 
REMARK  6 active torsions:
REMARK  status: ('A' for Active; 'I' for Inactive)
REMARK    1  A    between atoms: C_2  and  O_3
REMARK    2  A    between atoms: C_2  and  C_20
REMARK    3  A    between atoms: O_3  and  C_4
REMARK    4  A    between atoms: C_6  and  N_7
REMARK    5  A    between atoms: C_17  and  C_18
REMARK    6  A    between atoms: C_18  and  O_19
REMARK                            x       y       z     vdW  Elec       q    Type
REMARK                         _______ _______ _______ _____ _____    ______ ____
ROOT
ATOM      1  C   UNL     1       3.945   4.690  19.498  0.00  0.00    +0.000 C 
ATOM      2  C   UNL     1       5.231   5.470  19.347  0.00  0.00    +0.000 C 
ATOM      3  C   UNL     1       6.169   4.504  18.623  0.00  0.00    +0.000 C 
ATOM      4  O   UNL     1       5.658   3.173  18.811  0.00  0.00    +0.000 OA
ATOM      5  C   UNL     1       4.387   3.230  19.496  0.00  0.00    +0.000 C 
ENDROOT
BRANCH   3   6
ATOM      6  N   UNL     1       6.363   4.779  17.191  0.00  0.00    +0.000 N 
ATOM      7  C   UNL     1       5.828   3.955  16.211  0.00  0.00    +0.000 A 
ATOM      8  C   UNL     1       6.148   4.081  14.924  0.00  0.00    +0.000 A 
ATOM      9  F   UNL     1       5.659   3.262  13.975  0.00  0.00    +0.000 F 
ATOM     10  C   UNL     1       7.110   5.116  14.507  0.00  0.00    +0.000 A 
ATOM     11  O   UNL     1       7.512   5.225  13.355  0.00  0.00    +0.000 OA
ATOM     12  N   UNL     1       7.538   5.934  15.517  0.00  0.00    +0.000 N 
ATOM     13  C   UNL     1       7.283   5.773  16.858  0.00  0.00    +0.000 A 
ATOM     14  O   UNL     1       7.863   6.474  17.682  0.00  0.00    +0.000 OA
ATOM     15  H   UNL     1       8.229   6.628  15.272  0.00  0.00    +0.000 HD
ENDBRANCH   3   6
BRANCH   1  16
ATOM     16  O   UNL     1       3.089   5.110  20.583  0.00  0.00    +0.000 OA
BRANCH  16  18
ATOM     17  O   UNL     1       0.830   4.734  20.487  0.00  0.00    +0.000 OA
ATOM     18  C   UNL     1       1.797   5.467  20.359  0.00  0.00    +0.000 C 
BRANCH  18  19
ATOM     19  C   UNL     1       1.701   6.891  19.950  0.00  0.00    +0.000 A 
ATOM     20  C   UNL     1       2.054   7.358  18.678  0.00  0.00    +0.000 A 
ATOM     21  C   UNL     1       1.905   8.714  18.374  0.00  0.00    +0.000 A 
ATOM     22  C   UNL     1       1.414   9.563  19.352  0.00  0.00    +0.000 A 
ATOM     23  N   UNL     1       1.082   9.151  20.593  0.00  0.00    +0.000 NA
ATOM     24  C   UNL     1       1.234   7.825  20.865  0.00  0.00    +0.000 A 
ENDBRANCH  18  19
ENDBRANCH  16  18
ENDBRANCH   1  16
BRANCH   5  25
ATOM     25  C   UNL     1       3.409   2.344  18.713  0.00  0.00    +0.000 C 
BRANCH  25  26
ATOM     26  O   UNL     1       3.998   1.080  18.412  0.00  0.00    +0.000 OA
ATOM     27  H   UNL     1       3.396   0.637  17.785  0.00  0.00    +0.000 HD
ENDBRANCH  25  26
ENDBRANCH   5  25
TORSDOF 6
ENDMDL
MODEL 6
REMARK VINA RESULT:      -7.4      2.711      7.204
REMARK  Name = 
REMARK  6 active torsions:
REMARK  status: ('A' for Active; 'I' for Inactive)
REMARK    1  A    between atoms: C_2  and  O_3
REMARK    2  A    between atoms: C_2  and  C_20
REMARK    3  A    between atoms: O_3  and  C_4
REMARK    4  A    between atoms: C_6  and  N_7
REMARK    5  A    between atoms: C_17  and  C_18
REMARK    6  A    between atoms: C_18  and  O_19
REMARK                            x       y       z     vdW  Elec       q    Type
REMARK                         _______ _______ _______ _____ _____    ______ ____
ROOT
ATOM      1  C   UNL     1       3.815   4.435  19.584  0.00  0.00    +0.000 C 
ATOM      2  C   UNL     1       5.035   5.321  19.477  0.00  0.00    +0.000 C 
ATOM      3  C   UNL     1       6.070   4.445  18.774  0.00  0.00    +0.000 C 
ATOM      4  O   UNL     1       5.668   3.074  18.936  0.00  0.00    +0.000 OA
ATOM      5  C   UNL     1       4.378   3.017  19.583  0.00  0.00    +0.000 C 
ENDROOT
BRANCH   3   6
ATOM      6  N   UNL     1       6.282   4.749  17.350  0.00  0.00    +0.000 N 
ATOM      7  C   UNL     1       5.792   3.925  16.347  0.00  0.00    +0.000 A 
ATOM      8  C   UNL     1       6.132   4.083  15.068  0.00  0.00    +0.000 A 
ATOM      9  F   UNL     1       5.688   3.265  14.097  0.00  0.00    +0.000 F 
ATOM     10  C   UNL     1       7.067   5.156  14.686  0.00  0.00    +0.000 A 
ATOM     11  O   UNL     1       7.486   5.297  13.545  0.00  0.00    +0.000 OA
ATOM     12  N   UNL     1       7.449   5.971  15.718  0.00  0.00    +0.000 N 
ATOM     13  C   UNL     1       7.175   5.779  17.051  0.00  0.00    +0.000 A 
ATOM     14  O   UNL     1       7.716   6.485  17.897  0.00  0.00    +0.000 OA
ATOM     15  H   UNL     1       8.121   6.691  15.497  0.00  0.00    +0.000 HD
ENDBRANCH   3   6
BRANCH   1  16
ATOM     16  O   UNL     1       2.895   4.770  20.647  0.00  0.00    +0.000 OA
BRANCH  16  18
ATOM     17  O   UNL     1       0.666   4.390  20.276  0.00  0.00    +0.000 OA
ATOM     18  C   UNL     1       1.618   5.146  20.375  0.00  0.00    +0.000 C 
BRANCH  18  19
ATOM     19  C   UNL     1       1.516   6.620  20.233  0.00  0.00    +0.000 A 
ATOM     20  C   UNL     1       1.029   7.463  21.239  0.00  0.00    +0.000 A 
ATOM     21  C   UNL     1       0.993   8.844  21.026  0.00  0.00    +0.000 A 
ATOM     22  C   UNL     1       1.439   9.340  19.812  0.00  0.00    +0.000 A 
ATOM     23  N   UNL     1       1.898   8.556  18.815  0.00  0.00    +0.000 NA
ATOM     24  C   UNL     1       1.925   7.214  19.046  0.00  0.00    +0.000 A 
ENDBRANCH  18  19
ENDBRANCH  16  18
ENDBRANCH   1  16
BRANCH   5  25
ATOM     25  C   UNL     1       3.500   2.060  18.765  0.00  0.00    +0.000 C 
BRANCH  25  26
ATOM     26  O   UNL     1       4.217   0.872  18.433  0.00  0.00    +0.000 OA
ATOM     27  H   UNL     1       3.593   0.298  17.950  0.00  0.00    +0.000 HD
ENDBRANCH  25  26
ENDBRANCH   5  25
TORSDOF 6
ENDMDL
MODEL 7
REMARK VINA RESULT:      -7.4      0.966      1.052
REMARK  Name = 
REMARK  6 active torsions:
REMARK  status: ('A' for Active; 'I' for Inactive)
REMARK    1  A    between atoms: C_2  and  O_3
REMARK    2  A    between atoms: C_2  and  C_20
REMARK    3  A    between atoms: O_3  and  C_4
REMARK    4  A    between atoms: C_6  and  N_7
REMARK    5  A    between atoms: C_17  and  C_18
REMARK    6  A    between atoms: C_18  and  O_19
REMARK                            x       y       z     vdW  Elec       q    Type
REMARK                         _______ _______ _______ _____ _____    ______ ____
ROOT
ATOM      1  C   UNL     1       5.972   4.575  17.113  0.00  0.00    +0.000 C 
ATOM      2  C   UNL     1       4.595   3.997  17.343  0.00  0.00    +0.000 C 
ATOM      3  C   UNL     1       4.300   4.310  18.809  0.00  0.00    +0.000 C 
ATOM      4  O   UNL     1       5.555   4.561  19.465  0.00  0.00    +0.000 OA
ATOM      5  C   UNL     1       6.623   4.559  18.492  0.00  0.00    +0.000 C 
ENDROOT
BRANCH   3   6
ATOM      6  N   UNL     1       3.373   5.430  19.035  0.00  0.00    +0.000 N 
ATOM      7  C   UNL     1       3.330   6.524  18.182  0.00  0.00    +0.000 A 
ATOM      8  C   UNL     1       2.635   7.623  18.473  0.00  0.00    +0.000 A 
ATOM      9  F   UNL     1       2.618   8.700  17.667  0.00  0.00    +0.000 F 
ATOM     10  C   UNL     1       1.891   7.705  19.742  0.00  0.00    +0.000 A 
ATOM     11  O   UNL     1       1.309   8.719  20.107  0.00  0.00    +0.000 OA
ATOM     12  N   UNL     1       1.923   6.563  20.495  0.00  0.00    +0.000 N 
ATOM     13  C   UNL     1       2.694   5.451  20.254  0.00  0.00    +0.000 A 
ATOM     14  O   UNL     1       2.764   4.557  21.093  0.00  0.00    +0.000 OA
ATOM     15  H   UNL     1       1.457   6.600  21.390  0.00  0.00    +0.000 HD
ENDBRANCH   3   6
BRANCH   1  16
ATOM     16  O   UNL     1       6.722   3.981  16.031  0.00  0.00    +0.000 OA
BRANCH  16  18
ATOM     17  O   UNL     1       7.702   5.702  14.878  0.00  0.00    +0.000 OA
ATOM     18  C   UNL     1       7.020   4.691  14.912  0.00  0.00    +0.000 C 
BRANCH  18  19
ATOM     19  C   UNL     1       6.422   4.063  13.707  0.00  0.00    +0.000 A 
ATOM     20  C   UNL     1       5.044   3.901  13.520  0.00  0.00    +0.000 A 
ATOM     21  C   UNL     1       4.570   3.322  12.340  0.00  0.00    +0.000 A 
ATOM     22  C   UNL     1       5.487   2.915  11.386  0.00  0.00    +0.000 A 
ATOM     23  N   UNL     1       6.822   3.039  11.540  0.00  0.00    +0.000 NA
ATOM     24  C   UNL     1       7.260   3.608  12.697  0.00  0.00    +0.000 A 
ENDBRANCH  18  19
ENDBRANCH  16  18
ENDBRANCH   1  16
BRANCH   5  25
ATOM     25  C   UNL     1       7.464   5.818  18.736  0.00  0.00    +0.000 C 
BRANCH  25  26
ATOM     26  O   UNL     1       7.485   6.648  17.576  0.00  0.00    +0.000 OA
ATOM     27  H   UNL     1       7.101   6.120  16.851  0.00  0.00    +0.000 HD
ENDBRANCH  25  26
ENDBRANCH   5  25
TORSDOF 6
ENDMDL
MODEL 8
REMARK VINA RESULT:      -7.4      3.461      7.949
REMARK  Name = 
REMARK  6 active torsions:
REMARK  status: ('A' for Active; 'I' for Inactive)
REMARK    1  A    between atoms: C_2  and  O_3
REMARK    2  A    between atoms: C_2  and  C_20
REMARK    3  A    between atoms: O_3  and  C_4
REMARK    4  A    between atoms: C_6  and  N_7
REMARK    5  A    between atoms: C_17  and  C_18
REMARK    6  A    between atoms: C_18  and  O_19
REMARK                            x       y       z     vdW  Elec       q    Type
REMARK                         _______ _______ _______ _____ _____    ______ ____
ROOT
ATOM      1  C   UNL     1       2.084   7.468  19.924  0.00  0.00    +0.000 C 
ATOM      2  C   UNL     1       2.318   5.975  19.964  0.00  0.00    +0.000 C 
ATOM      3  C   UNL     1       2.876   5.649  18.579  0.00  0.00    +0.000 C 
ATOM      4  O   UNL     1       2.509   6.723  17.695  0.00  0.00    +0.000 OA
ATOM      5  C   UNL     1       1.867   7.777  18.446  0.00  0.00    +0.000 C 
ENDROOT
BRANCH   3   6
ATOM      6  N   UNL     1       4.328   5.420  18.528  0.00  0.00    +0.000 N 
ATOM      7  C   UNL     1       5.187   6.316  17.908  0.00  0.00    +0.000 A 
ATOM      8  C   UNL     1       6.471   6.035  17.691  0.00  0.00    +0.000 A 
ATOM      9  F   UNL     1       7.299   6.886  17.058  0.00  0.00    +0.000 F 
ATOM     10  C   UNL     1       7.015   4.730  18.105  0.00  0.00    +0.000 A 
ATOM     11  O   UNL     1       8.161   4.377  17.854  0.00  0.00    +0.000 OA
ATOM     12  N   UNL     1       6.128   3.931  18.773  0.00  0.00    +0.000 N 
ATOM     13  C   UNL     1       4.784   4.166  18.938  0.00  0.00    +0.000 A 
ATOM     14  O   UNL     1       4.060   3.294  19.408  0.00  0.00    +0.000 OA
ATOM     15  H   UNL     1       6.457   3.013  19.035  0.00  0.00    +0.000 HD
ENDBRANCH   3   6
BRANCH   1  16
ATOM     16  O   UNL     1       1.089   7.965  20.846  0.00  0.00    +0.000 OA
BRANCH  16  18
ATOM     17  O   UNL     1       1.888   9.342  22.494  0.00  0.00    +0.000 OA
ATOM     18  C   UNL     1       1.248   9.160  21.471  0.00  0.00    +0.000 C 
BRANCH  18  19
ATOM     19  C   UNL     1       0.553  10.245  20.733  0.00  0.00    +0.000 A 
ATOM     20  C   UNL     1      -0.649  10.062  20.038  0.00  0.00    +0.000 A 
ATOM     21  C   UNL     1      -1.246  11.148  19.393  0.00  0.00    +0.000 A 
ATOM     22  C   UNL     1      -0.620  12.382  19.455  0.00  0.00    +0.000 A 
ATOM     23  N   UNL     1       0.547  12.590  20.100  0.00  0.00    +0.000 NA
ATOM     24  C   UNL     1       1.108  11.517  20.722  0.00  0.00    +0.000 A 
ENDBRANCH  18  19
ENDBRANCH  16  18
ENDBRANCH   1  16
BRANCH   5  25
ATOM     25  C   UNL     1       2.535   9.097  18.040  0.00  0.00    +0.000 C 
BRANCH  25  26
ATOM     26  O   UNL     1       1.611   9.946  17.361  0.00  0.00    +0.000 OA
ATOM     27  H   UNL     1       0.841   9.391  17.133  0.00  0.00    +0.000 HD
ENDBRANCH  25  26
ENDBRANCH   5  25
TORSDOF 6
ENDMDL
MODEL 9
REMARK VINA RESULT:      -7.4      2.650      7.561
REMARK  Name = 
REMARK  6 active torsions:
REMARK  status: ('A' for Active; 'I' for Inactive)
REMARK    1  A    between atoms: C_2  and  O_3
REMARK    2  A    between atoms: C_2  and  C_20
REMARK    3  A    between atoms: O_3  and  C_4
REMARK    4  A    between atoms: C_6  and  N_7
REMARK    5  A    between atoms: C_17  and  C_18
REMARK    6  A    between atoms: C_18  and  O_19
REMARK                            x       y       z     vdW  Elec       q    Type
REMARK                         _______ _______ _______ _____ _____    ______ ____
ROOT
ATOM      1  C   UNL     1       2.982   5.022  17.952  0.00  0.00    +0.000 C 
ATOM      2  C   UNL     1       4.260   5.828  17.993  0.00  0.00    +0.000 C 
ATOM      3  C   UNL     1       5.348   4.820  17.625  0.00  0.00    +0.000 C 
ATOM      4  O   UNL     1       4.824   3.503  17.863  0.00  0.00    +0.000 OA
ATOM      5  C   UNL     1       3.430   3.591  18.234  0.00  0.00    +0.000 C 
ENDROOT
BRANCH   3   6
ATOM      6  N   UNL     1       5.859   4.925  16.250  0.00  0.00    +0.000 N 
ATOM      7  C   UNL     1       5.272   4.234  15.199  0.00  0.00    +0.000 A 
ATOM      8  C   UNL     1       5.830   4.171  13.991  0.00  0.00    +0.000 A 
ATOM      9  F   UNL     1       5.284   3.473  12.979  0.00  0.00    +0.000 F 
ATOM     10  C   UNL     1       7.119   4.841  13.744  0.00  0.00    +0.000 A 
ATOM     11  O   UNL     1       7.726   4.746  12.684  0.00  0.00    +0.000 OA
ATOM     12  N   UNL     1       7.598   5.561  14.804  0.00  0.00    +0.000 N 
ATOM     13  C   UNL     1       7.082   5.575  16.078  0.00  0.00    +0.000 A 
ATOM     14  O   UNL     1       7.698   6.126  16.985  0.00  0.00    +0.000 OA
ATOM     15  H   UNL     1       8.500   5.999  14.681  0.00  0.00    +0.000 HD
ENDBRANCH   3   6
BRANCH   1  16
ATOM     16  O   UNL     1       1.898   5.536  18.755  0.00  0.00    +0.000 OA
BRANCH  16  18
ATOM     17  O   UNL     1       2.642   5.375  20.917  0.00  0.00    +0.000 OA
ATOM     18  C   UNL     1       2.117   6.003  20.012  0.00  0.00    +0.000 C 
BRANCH  18  19
ATOM     19  C   UNL     1       1.652   7.406  20.148  0.00  0.00    +0.000 A 
ATOM     20  C   UNL     1       1.114   7.933  21.328  0.00  0.00    +0.000 A 
ATOM     21  C   UNL     1       0.726   9.275  21.372  0.00  0.00    +0.000 A 
ATOM     22  C   UNL     1       0.881  10.048  20.233  0.00  0.00    +0.000 A 
ATOM     23  N   UNL     1       1.378   9.568  19.074  0.00  0.00    +0.000 NA
ATOM     24  C   UNL     1       1.751   8.259  19.056  0.00  0.00    +0.000 A 
ENDBRANCH  18  19
ENDBRANCH  16  18
ENDBRANCH   1  16
BRANCH   5  25
ATOM     25  C   UNL     1       2.665   2.578  17.373  0.00  0.00    +0.000 C 
BRANCH  25  26
ATOM     26  O   UNL     1       1.841   1.742  18.184  0.00  0.00    +0.000 OA
ATOM     27  H   UNL     1       2.201   1.793  19.089  0.00  0.00    +0.000 HD
ENDBRANCH  25  26
ENDBRANCH   5  25
TORSDOF 6
ENDMDL
