MODEL 1
REMARK VINA RESULT:      -7.3      0.000      0.000
REMARK  Name = 
REMARK  6 active torsions:
REMARK  status: ('A' for Active; 'I' for Inactive)
REMARK    1  A    between atoms: C_5  and  C_6
REMARK    2  A    between atoms: C_10  and  C_11
REMARK    3  A    between atoms: C_11  and  N_12
REMARK    4  A    between atoms: N_12  and  C_13
REMARK    5  A    between atoms: C_13  and  C_14
REMARK    6  A    between atoms: C_14  and  N_15
REMARK                            x       y       z     vdW  Elec       q    Type
REMARK                         _______ _______ _______ _____ _____    ______ ____
ROOT
ATOM      1  C   UNL     1       2.540   3.789  18.637  0.00  0.00    +0.000 A 
ATOM      2  N   UNL     1       1.569   3.143  17.961  0.00  0.00    +0.000 NA
ATOM      3  N   UNL     1       2.052   1.918  17.750  0.00  0.00    +0.000 N 
ATOM      4  C   UNL     1       3.296   1.733  18.260  0.00  0.00    +0.000 A 
ATOM      5  C   UNL     1       3.672   2.928  18.850  0.00  0.00    +0.000 A 
ATOM      6  H   UNL     1       1.469   1.251  17.257  0.00  0.00    +0.000 HD
ENDROOT
BRANCH   1  11
ATOM      7  F   UNL     1       1.625   9.090  20.226  0.00  0.00    +0.000 F 
ATOM      8  C   UNL     1       1.859   7.824  19.857  0.00  0.00    +0.000 A 
ATOM      9  C   UNL     1       2.369   7.562  18.593  0.00  0.00    +0.000 A 
ATOM     10  C   UNL     1       2.598   6.238  18.208  0.00  0.00    +0.000 A 
ATOM     11  C   UNL     1       2.317   5.174  19.081  0.00  0.00    +0.000 A 
ATOM     12  C   UNL     1       1.839   5.470  20.367  0.00  0.00    +0.000 A 
ATOM     13  C   UNL     1       1.596   6.793  20.747  0.00  0.00    +0.000 A 
ENDBRANCH   1  11
BRANCH   5  14
ATOM     14  C   UNL     1       4.945   3.240  19.583  0.00  0.00    +0.000 C 
BRANCH  14  15
ATOM     15  N   UNL     1       5.849   3.976  18.699  0.00  0.00    +0.000 NA
ATOM     16  H   UNL     1       5.377   4.073  17.799  0.00  0.00    +0.000 HD
BRANCH  15  17
ATOM     17  C   UNL     1       6.168   5.321  19.207  0.00  0.00    +0.000 C 
BRANCH  17  18
ATOM     18  C   UNL     1       6.318   6.263  18.010  0.00  0.00    +0.000 C 
BRANCH  18  19
ATOM     19  N   UNL     1       6.300   5.603  16.721  0.00  0.00    +0.000 N 
ATOM     20  C   UNL     1       5.334   5.733  15.763  0.00  0.00    +0.000 A 
ATOM     21  C   UNL     1       5.721   4.925  14.721  0.00  0.00    +0.000 A 
ATOM     22  C   UNL     1       6.977   4.424  15.108  0.00  0.00    +0.000 A 
ATOM     23  N   UNL     1       7.341   4.846  16.323  0.00  0.00    +0.000 NA
ENDBRANCH  18  19
ENDBRANCH  17  18
ENDBRANCH  15  17
ENDBRANCH  14  15
ENDBRANCH   5  14
TORSDOF 6
ENDMDL
MODEL 2
REMARK VINA RESULT:      -7.0      1.721      4.877
REMARK  Name = 
REMARK  6 active torsions:
REMARK  status: ('A' for Active; 'I' for Inactive)
REMARK    1  A    between atoms: C_5  and  C_6
REMARK    2  A    between atoms: C_10  and  C_11
REMARK    3  A    between atoms: C_11  and  N_12
REMARK    4  A    between atoms: N_12  and  C_13
REMARK    5  A    between atoms: C_13  and  C_14
REMARK    6  A    between atoms: C_14  and  N_15
REMARK                            x       y       z     vdW  Elec       q    Type
REMARK                         _______ _______ _______ _____ _____    ______ ____
ROOT
ATOM      1  C   UNL     1       5.455   6.036  17.044  0.00  0.00    +0.000 A 
ATOM      2  N   UNL     1       6.504   6.858  16.836  0.00  0.00    +0.000 NA
ATOM      3  N   UNL     1       7.321   6.178  16.030  0.00  0.00    +0.000 N 
ATOM      4  C   UNL     1       6.852   4.947  15.700  0.00  0.00    +0.000 A 
ATOM      5  C   UNL     1       5.633   4.795  16.339  0.00  0.00    +0.000 A 
ATOM      6  H   UNL     1       8.183   6.622  15.735  0.00  0.00    +0.000 HD
ENDROOT
BRANCH   1  11
ATOM      7  F   UNL     1       1.214   7.793  20.267  0.00  0.00    +0.000 F 
ATOM      8  C   UNL     1       2.214   7.366  19.485  0.00  0.00    +0.000 A 
ATOM      9  C   UNL     1       2.952   6.253  19.863  0.00  0.00    +0.000 A 
ATOM     10  C   UNL     1       4.004   5.820  19.051  0.00  0.00    +0.000 A 
ATOM     11  C   UNL     1       4.324   6.498  17.863  0.00  0.00    +0.000 A 
ATOM     12  C   UNL     1       3.537   7.596  17.485  0.00  0.00    +0.000 A 
ATOM     13  C   UNL     1       2.494   8.038  18.304  0.00  0.00    +0.000 A 
ENDBRANCH   1  11
BRANCH   5  14
ATOM     14  C   UNL     1       4.693   3.626  16.275  0.00  0.00    +0.000 C 
BRANCH  14  15
ATOM     15  N   UNL     1       4.708   2.918  17.555  0.00  0.00    +0.000 NA
ATOM     16  H   UNL     1       4.534   3.610  18.285  0.00  0.00    +0.000 HD
BRANCH  15  17
ATOM     17  C   UNL     1       3.669   1.877  17.640  0.00  0.00    +0.000 C 
BRANCH  17  18
ATOM     18  C   UNL     1       2.347   2.551  18.017  0.00  0.00    +0.000 C 
BRANCH  18  19
ATOM     19  N   UNL     1       2.150   2.735  19.440  0.00  0.00    +0.000 N 
ATOM     20  C   UNL     1       0.978   3.078  20.053  0.00  0.00    +0.000 A 
ATOM     21  C   UNL     1       1.259   3.150  21.396  0.00  0.00    +0.000 A 
ATOM     22  C   UNL     1       2.600   2.742  21.500  0.00  0.00    +0.000 A 
ATOM     23  N   UNL     1       3.146   2.475  20.309  0.00  0.00    +0.000 NA
ENDBRANCH  18  19
ENDBRANCH  17  18
ENDBRANCH  15  17
ENDBRANCH  14  15
ENDBRANCH   5  14
TORSDOF 6
ENDMDL
MODEL 3
REMARK VINA RESULT:      -7.0      1.123      1.350
REMARK  Name = 
REMARK  6 active torsions:
REMARK  status: ('A' for Active; 'I' for Inactive)
REMARK    1  A    between atoms: C_5  and  C_6
REMARK    2  A    between atoms: C_10  and  C_11
REMARK    3  A    between atoms: C_11  and  N_12
REMARK    4  A    between atoms: N_12  and  C_13
REMARK    5  A    between atoms: C_13  and  C_14
REMARK    6  A    between atoms: C_14  and  N_15
REMARK                            x       y       z     vdW  Elec       q    Type
REMARK                         _______ _______ _______ _____ _____    ______ ____
ROOT
ATOM      1  C   UNL     1       2.754   5.027  18.478  0.00  0.00    +0.000 A 
ATOM      2  N   UNL     1       1.826   4.177  17.995  0.00  0.00    +0.000 NA
ATOM      3  N   UNL     1       2.483   3.038  17.773  0.00  0.00    +0.000 N 
ATOM      4  C   UNL     1       3.801   3.105  18.090  0.00  0.00    +0.000 A 
ATOM      5  C   UNL     1       4.040   4.387  18.554  0.00  0.00    +0.000 A 
ATOM      6  H   UNL     1       1.963   2.247  17.410  0.00  0.00    +0.000 HD
ENDROOT
BRANCH   1  11
ATOM      7  F   UNL     1       1.152  10.204  19.924  0.00  0.00    +0.000 F 
ATOM      8  C   UNL     1       1.551   8.971  19.587  0.00  0.00    +0.000 A 
ATOM      9  C   UNL     1       1.929   8.707  18.278  0.00  0.00    +0.000 A 
ATOM     10  C   UNL     1       2.331   7.415  17.928  0.00  0.00    +0.000 A 
ATOM     11  C   UNL     1       2.354   6.384  18.882  0.00  0.00    +0.000 A 
ATOM     12  C   UNL     1       2.004   6.688  20.207  0.00  0.00    +0.000 A 
ATOM     13  C   UNL     1       1.588   7.976  20.553  0.00  0.00    +0.000 A 
ENDBRANCH   1  11
BRANCH   5  14
ATOM     14  C   UNL     1       5.330   4.964  19.062  0.00  0.00    +0.000 C 
BRANCH  14  15
ATOM     15  N   UNL     1       6.447   4.138  18.606  0.00  0.00    +0.000 NA
ATOM     16  H   UNL     1       6.080   3.497  17.901  0.00  0.00    +0.000 HD
BRANCH  15  17
ATOM     17  C   UNL     1       7.530   4.931  17.999  0.00  0.00    +0.000 C 
BRANCH  17  18
ATOM     18  C   UNL     1       6.915   5.845  16.936  0.00  0.00    +0.000 C 
BRANCH  18  19
ATOM     19  N   UNL     1       6.730   5.222  15.643  0.00  0.00    +0.000 N 
ATOM     20  C   UNL     1       5.629   4.519  15.238  0.00  0.00    +0.000 A 
ATOM     21  C   UNL     1       5.893   4.106  13.954  0.00  0.00    +0.000 A 
ATOM     22  C   UNL     1       7.135   4.687  13.643  0.00  0.00    +0.000 A 
ATOM     23  N   UNL     1       7.644   5.380  14.666  0.00  0.00    +0.000 NA
ENDBRANCH  18  19
ENDBRANCH  17  18
ENDBRANCH  15  17
ENDBRANCH  14  15
ENDBRANCH   5  14
TORSDOF 6
ENDMDL
MODEL 4
REMARK VINA RESULT:      -6.9      1.499      1.879
REMARK  Name = 
REMARK  6 active torsions:
REMARK  status: ('A' for Active; 'I' for Inactive)
REMARK    1  A    between atoms: C_5  and  C_6
REMARK    2  A    between atoms: C_10  and  C_11
REMARK    3  A    between atoms: C_11  and  N_12
REMARK    4  A    between atoms: N_12  and  C_13
REMARK    5  A    between atoms: C_13  and  C_14
REMARK    6  A    between atoms: C_14  and  N_15
REMARK                            x       y       z     vdW  Elec       q    Type
REMARK                         _______ _______ _______ _____ _____    ______ ____
ROOT
ATOM      1  C   UNL     1       2.628   4.577  20.236  0.00  0.00    +0.000 A 
ATOM      2  N   UNL     1       1.998   4.182  21.361  0.00  0.00    +0.000 NA
ATOM      3  N   UNL     1       2.462   2.955  21.603  0.00  0.00    +0.000 N 
ATOM      4  C   UNL     1       3.368   2.530  20.686  0.00  0.00    +0.000 A 
ATOM      5  C   UNL     1       3.516   3.550  19.761  0.00  0.00    +0.000 A 
ATOM      6  H   UNL     1       2.121   2.466  22.423  0.00  0.00    +0.000 HD
ENDROOT
BRANCH   1  11
ATOM      7  F   UNL     1       1.754   9.770  18.305  0.00  0.00    +0.000 F 
ATOM      8  C   UNL     1       1.947   8.525  18.757  0.00  0.00    +0.000 A 
ATOM      9  C   UNL     1       1.640   8.219  20.076  0.00  0.00    +0.000 A 
ATOM     10  C   UNL     1       1.857   6.921  20.547  0.00  0.00    +0.000 A 
ATOM     11  C   UNL     1       2.383   5.927  19.704  0.00  0.00    +0.000 A 
ATOM     12  C   UNL     1       2.648   6.253  18.366  0.00  0.00    +0.000 A 
ATOM     13  C   UNL     1       2.445   7.555  17.899  0.00  0.00    +0.000 A 
ENDBRANCH   1  11
BRANCH   5  14
ATOM     14  C   UNL     1       4.423   3.594  18.566  0.00  0.00    +0.000 C 
BRANCH  14  15
ATOM     15  N   UNL     1       5.795   3.852  19.004  0.00  0.00    +0.000 NA
ATOM     16  H   UNL     1       6.413   3.568  18.243  0.00  0.00    +0.000 HD
BRANCH  15  17
ATOM     17  C   UNL     1       6.038   5.274  19.298  0.00  0.00    +0.000 C 
BRANCH  17  18
ATOM     18  C   UNL     1       7.001   5.824  18.243  0.00  0.00    +0.000 C 
BRANCH  18  19
ATOM     19  N   UNL     1       6.666   5.469  16.880  0.00  0.00    +0.000 N 
ATOM     20  C   UNL     1       5.654   6.004  16.134  0.00  0.00    +0.000 A 
ATOM     21  C   UNL     1       5.701   5.367  14.917  0.00  0.00    +0.000 A 
ATOM     22  C   UNL     1       6.832   4.536  14.997  0.00  0.00    +0.000 A 
ATOM     23  N   UNL     1       7.432   4.604  16.188  0.00  0.00    +0.000 NA
ENDBRANCH  18  19
ENDBRANCH  17  18
ENDBRANCH  15  17
ENDBRANCH  14  15
ENDBRANCH   5  14
TORSDOF 6
ENDMDL
MODEL 5
REMARK VINA RESULT:      -6.8      1.527      1.658
REMARK  Name = 
REMARK  6 active torsions:
REMARK  status: ('A' for Active; 'I' for Inactive)
REMARK    1  A    between atoms: C_5  and  C_6
REMARK    2  A    between atoms: C_10  and  C_11
REMARK    3  A    between atoms: C_11  and  N_12
REMARK    4  A    between atoms: N_12  and  C_13
REMARK    5  A    between atoms: C_13  and  C_14
REMARK    6  A    between atoms: C_14  and  N_15
REMARK                            x       y       z     vdW  Elec       q    Type
REMARK                         _______ _______ _______ _____ _____    ______ ____
ROOT
ATOM      1  C   UNL     1       2.637   4.624  20.284  0.00  0.00    +0.000 A 
ATOM      2  N   UNL     1       2.036   4.232  21.425  0.00  0.00    +0.000 NA
ATOM      3  N   UNL     1       2.494   3.000  21.651  0.00  0.00    +0.000 N 
ATOM      4  C   UNL     1       3.370   2.568  20.708  0.00  0.00    +0.000 A 
ATOM      5  C   UNL     1       3.501   3.588  19.781  0.00  0.00    +0.000 A 
ATOM      6  H   UNL     1       2.171   2.512  22.479  0.00  0.00    +0.000 HD
ENDROOT
BRANCH   1  11
ATOM      7  F   UNL     1       1.639   9.734  18.199  0.00  0.00    +0.000 F 
ATOM      8  C   UNL     1       1.892   8.520  18.705  0.00  0.00    +0.000 A 
ATOM      9  C   UNL     1       2.437   7.538  17.890  0.00  0.00    +0.000 A 
ATOM     10  C   UNL     1       2.687   6.269  18.420  0.00  0.00    +0.000 A 
ATOM     11  C   UNL     1       2.391   5.977  19.762  0.00  0.00    +0.000 A 
ATOM     12  C   UNL     1       1.877   7.000  20.574  0.00  0.00    +0.000 A 
ATOM     13  C   UNL     1       1.614   8.264  20.040  0.00  0.00    +0.000 A 
ENDBRANCH   1  11
BRANCH   5  14
ATOM     14  C   UNL     1       4.375   3.626  18.561  0.00  0.00    +0.000 C 
BRANCH  14  15
ATOM     15  N   UNL     1       5.766   3.832  18.963  0.00  0.00    +0.000 NA
ATOM     16  H   UNL     1       6.351   3.571  18.169  0.00  0.00    +0.000 HD
BRANCH  15  17
ATOM     17  C   UNL     1       6.053   5.233  19.316  0.00  0.00    +0.000 C 
BRANCH  17  18
ATOM     18  C   UNL     1       6.997   5.810  18.257  0.00  0.00    +0.000 C 
BRANCH  18  19
ATOM     19  N   UNL     1       6.660   5.455  16.895  0.00  0.00    +0.000 N 
ATOM     20  C   UNL     1       5.671   6.017  16.137  0.00  0.00    +0.000 A 
ATOM     21  C   UNL     1       5.706   5.369  14.925  0.00  0.00    +0.000 A 
ATOM     22  C   UNL     1       6.808   4.502  15.019  0.00  0.00    +0.000 A 
ATOM     23  N   UNL     1       7.403   4.560  16.215  0.00  0.00    +0.000 NA
ENDBRANCH  18  19
ENDBRANCH  17  18
ENDBRANCH  15  17
ENDBRANCH  14  15
ENDBRANCH   5  14
TORSDOF 6
ENDMDL
MODEL 6
REMARK VINA RESULT:      -6.8      1.260      1.882
REMARK  Name = 
REMARK  6 active torsions:
REMARK  status: ('A' for Active; 'I' for Inactive)
REMARK    1  A    between atoms: C_5  and  C_6
REMARK    2  A    between atoms: C_10  and  C_11
REMARK    3  A    between atoms: C_11  and  N_12
REMARK    4  A    between atoms: N_12  and  C_13
REMARK    5  A    between atoms: C_13  and  C_14
REMARK    6  A    between atoms: C_14  and  N_15
REMARK                            x       y       z     vdW  Elec       q    Type
REMARK                         _______ _______ _______ _____ _____    ______ ____
ROOT
ATOM      1  C   UNL     1       2.890   5.060  18.563  0.00  0.00    +0.000 A 
ATOM      2  N   UNL     1       2.013   4.144  18.105  0.00  0.00    +0.000 NA
ATOM      3  N   UNL     1       2.723   3.024  17.970  0.00  0.00    +0.000 N 
ATOM      4  C   UNL     1       4.027   3.166  18.319  0.00  0.00    +0.000 A 
ATOM      5  C   UNL     1       4.198   4.482  18.713  0.00  0.00    +0.000 A 
ATOM      6  H   UNL     1       2.248   2.191  17.640  0.00  0.00    +0.000 HD
ENDROOT
BRANCH   1  11
ATOM      7  F   UNL     1       1.177  10.244  19.849  0.00  0.00    +0.000 F 
ATOM      8  C   UNL     1       1.569   9.003  19.534  0.00  0.00    +0.000 A 
ATOM      9  C   UNL     1       1.547   8.010  20.502  0.00  0.00    +0.000 A 
ATOM     10  C   UNL     1       1.971   6.720  20.171  0.00  0.00    +0.000 A 
ATOM     11  C   UNL     1       2.421   6.420  18.874  0.00  0.00    +0.000 A 
ATOM     12  C   UNL     1       2.397   7.433  17.904  0.00  0.00    +0.000 A 
ATOM     13  C   UNL     1       1.987   8.727  18.239  0.00  0.00    +0.000 A 
ENDBRANCH   1  11
BRANCH   5  14
ATOM     14  C   UNL     1       5.447   5.143  19.222  0.00  0.00    +0.000 C 
BRANCH  14  15
ATOM     15  N   UNL     1       5.905   6.135  18.249  0.00  0.00    +0.000 NA
ATOM     16  H   UNL     1       5.791   7.054  18.678  0.00  0.00    +0.000 HD
BRANCH  15  17
ATOM     17  C   UNL     1       7.322   5.961  17.886  0.00  0.00    +0.000 C 
BRANCH  17  18
ATOM     18  C   UNL     1       7.490   4.574  17.261  0.00  0.00    +0.000 C 
BRANCH  18  19
ATOM     19  N   UNL     1       7.076   4.484  15.877  0.00  0.00    +0.000 N 
ATOM     20  C   UNL     1       6.061   3.710  15.387  0.00  0.00    +0.000 A 
ATOM     21  C   UNL     1       6.035   3.930  14.031  0.00  0.00    +0.000 A 
ATOM     22  C   UNL     1       7.010   4.921  13.815  0.00  0.00    +0.000 A 
ATOM     23  N   UNL     1       7.640   5.271  14.940  0.00  0.00    +0.000 NA
ENDBRANCH  18  19
ENDBRANCH  17  18
ENDBRANCH  15  17
ENDBRANCH  14  15
ENDBRANCH   5  14
TORSDOF 6
ENDMDL
MODEL 7
REMARK VINA RESULT:      -6.7      2.862      6.253
REMARK  Name = 
REMARK  6 active torsions:
REMARK  status: ('A' for Active; 'I' for Inactive)
REMARK    1  A    between atoms: C_5  and  C_6
REMARK    2  A    between atoms: C_10  and  C_11
REMARK    3  A    between atoms: C_11  and  N_12
REMARK    4  A    between atoms: N_12  and  C_13
REMARK    5  A    between atoms: C_13  and  C_14
REMARK    6  A    between atoms: C_14  and  N_15
REMARK                            x       y       z     vdW  Elec       q    Type
REMARK                         _______ _______ _______ _____ _____    ______ ____
ROOT
ATOM      1  C   UNL     1       7.111   4.957  16.929  0.00  0.00    +0.000 A 
ATOM      2  N   UNL     1       8.050   4.282  17.623  0.00  0.00    +0.000 NA
ATOM      3  N   UNL     1       7.983   4.773  18.861  0.00  0.00    +0.000 N 
ATOM      4  C   UNL     1       7.040   5.739  19.008  0.00  0.00    +0.000 A 
ATOM      5  C   UNL     1       6.438   5.907  17.773  0.00  0.00    +0.000 A 
ATOM      6  H   UNL     1       8.608   4.393  19.562  0.00  0.00    +0.000 HD
ENDROOT
BRANCH   1  11
ATOM      7  F   UNL     1       6.101   3.719  11.552  0.00  0.00    +0.000 F 
ATOM      8  C   UNL     1       6.357   4.003  12.835  0.00  0.00    +0.000 A 
ATOM      9  C   UNL     1       5.577   3.434  13.832  0.00  0.00    +0.000 A 
ATOM     10  C   UNL     1       5.839   3.744  15.169  0.00  0.00    +0.000 A 
ATOM     11  C   UNL     1       6.877   4.625  15.514  0.00  0.00    +0.000 A 
ATOM     12  C   UNL     1       7.675   5.156  14.490  0.00  0.00    +0.000 A 
ATOM     13  C   UNL     1       7.404   4.857  13.152  0.00  0.00    +0.000 A 
ENDBRANCH   1  11
BRANCH   5  14
ATOM     14  C   UNL     1       5.312   6.832  17.409  0.00  0.00    +0.000 C 
BRANCH  14  15
ATOM     15  N   UNL     1       4.050   6.092  17.416  0.00  0.00    +0.000 NA
ATOM     16  H   UNL     1       4.284   5.098  17.409  0.00  0.00    +0.000 HD
BRANCH  15  17
ATOM     17  C   UNL     1       3.235   6.373  18.610  0.00  0.00    +0.000 C 
BRANCH  17  18
ATOM     18  C   UNL     1       3.348   5.178  19.560  0.00  0.00    +0.000 C 
BRANCH  18  19
ATOM     19  N   UNL     1       3.240   3.886  18.915  0.00  0.00    +0.000 N 
ATOM     20  C   UNL     1       4.047   2.805  19.137  0.00  0.00    +0.000 A 
ATOM     21  C   UNL     1       3.588   1.811  18.307  0.00  0.00    +0.000 A 
ATOM     22  C   UNL     1       2.446   2.359  17.695  0.00  0.00    +0.000 A 
ATOM     23  N   UNL     1       2.222   3.622  18.073  0.00  0.00    +0.000 NA
ENDBRANCH  18  19
ENDBRANCH  17  18
ENDBRANCH  15  17
ENDBRANCH  14  15
ENDBRANCH   5  14
TORSDOF 6
ENDMDL
MODEL 8
REMARK VINA RESULT:      -6.7      1.578      4.662
REMARK  Name = 
REMARK  6 active torsions:
REMARK  status: ('A' for Active; 'I' for Inactive)
REMARK    1  A    between atoms: C_5  and  C_6
REMARK    2  A    between atoms: C_10  and  C_11
REMARK    3  A    between atoms: C_11  and  N_12
REMARK    4  A    between atoms: N_12  and  C_13
REMARK    5  A    between atoms: C_13  and  C_14
REMARK    6  A    between atoms: C_14  and  N_15
REMARK                            x       y       z     vdW  Elec       q    Type
REMARK                         _______ _______ _______ _____ _____    ______ ____
ROOT
ATOM      1  C   UNL     1       4.841   6.077  16.942  0.00  0.00    +0.000 A 
ATOM      2  N   UNL     1       5.872   6.774  16.424  0.00  0.00    +0.000 NA
ATOM      3  N   UNL     1       6.562   5.886  15.707  0.00  0.00    +0.000 N 
ATOM      4  C   UNL     1       6.028   4.639  15.733  0.00  0.00    +0.000 A 
ATOM      5  C   UNL     1       4.899   4.700  16.531  0.00  0.00    +0.000 A 
ATOM      6  H   UNL     1       7.389   6.206  15.214  0.00  0.00    +0.000 HD
ENDROOT
BRANCH   1  11
ATOM      7  F   UNL     1       0.934   8.734  19.965  0.00  0.00    +0.000 F 
ATOM      8  C   UNL     1       1.880   8.106  19.255  0.00  0.00    +0.000 A 
ATOM      9  C   UNL     1       2.298   8.642  18.045  0.00  0.00    +0.000 A 
ATOM     10  C   UNL     1       3.275   7.975  17.301  0.00  0.00    +0.000 A 
ATOM     11  C   UNL     1       3.835   6.772  17.761  0.00  0.00    +0.000 A 
ATOM     12  C   UNL     1       3.423   6.272  19.006  0.00  0.00    +0.000 A 
ATOM     13  C   UNL     1       2.435   6.931  19.743  0.00  0.00    +0.000 A 
ENDBRANCH   1  11
BRANCH   5  14
ATOM     14  C   UNL     1       3.932   3.597  16.856  0.00  0.00    +0.000 C 
BRANCH  14  15
ATOM     15  N   UNL     1       4.371   2.906  18.069  0.00  0.00    +0.000 NA
ATOM     16  H   UNL     1       4.027   3.445  18.864  0.00  0.00    +0.000 HD
BRANCH  15  17
ATOM     17  C   UNL     1       3.837   1.537  18.166  0.00  0.00    +0.000 C 
BRANCH  17  18
ATOM     18  C   UNL     1       2.347   1.626  18.504  0.00  0.00    +0.000 C 
BRANCH  18  19
ATOM     19  N   UNL     1       2.031   2.530  19.590  0.00  0.00    +0.000 N 
ATOM     20  C   UNL     1       0.920   3.323  19.680  0.00  0.00    +0.000 A 
ATOM     21  C   UNL     1       1.042   4.014  20.862  0.00  0.00    +0.000 A 
ATOM     22  C   UNL     1       2.209   3.500  21.454  0.00  0.00    +0.000 A 
ATOM     23  N   UNL     1       2.810   2.585  20.687  0.00  0.00    +0.000 NA
ENDBRANCH  18  19
ENDBRANCH  17  18
ENDBRANCH  15  17
ENDBRANCH  14  15
ENDBRANCH   5  14
TORSDOF 6
ENDMDL
MODEL 9
REMARK VINA RESULT:      -6.7      3.069      4.848
REMARK  Name = 
REMARK  6 active torsions:
REMARK  status: ('A' for Active; 'I' for Inactive)
REMARK    1  A    between atoms: C_5  and  C_6
REMARK    2  A    between atoms: C_10  and  C_11
REMARK    3  A    between atoms: C_11  and  N_12
REMARK    4  A    between atoms: N_12  and  C_13
REMARK    5  A    between atoms: C_13  and  C_14
REMARK    6  A    between atoms: C_14  and  N_15
REMARK                            x       y       z     vdW  Elec       q    Type
REMARK                         _______ _______ _______ _____ _____    ______ ____
ROOT
ATOM      1  C   UNL     1       5.376   4.087  18.048  0.00  0.00    +0.000 A 
ATOM      2  N   UNL     1       6.151   4.330  19.124  0.00  0.00    +0.000 NA
ATOM      3  N   UNL     1       7.302   4.781  18.625  0.00  0.00    +0.000 N 
ATOM      4  C   UNL     1       7.315   4.845  17.269  0.00  0.00    +0.000 A 
ATOM      5  C   UNL     1       6.079   4.399  16.833  0.00  0.00    +0.000 A 
ATOM      6  H   UNL     1       8.038   5.038  19.273  0.00  0.00    +0.000 HD
ENDROOT
BRANCH   1  11
ATOM      7  F   UNL     1       0.087   2.324  18.664  0.00  0.00    +0.000 F 
ATOM      8  C   UNL     1       1.350   2.749  18.536  0.00  0.00    +0.000 A 
ATOM      9  C   UNL     1       1.600   4.003  17.996  0.00  0.00    +0.000 A 
ATOM     10  C   UNL     1       2.921   4.435  17.851  0.00  0.00    +0.000 A 
ATOM     11  C   UNL     1       3.995   3.617  18.240  0.00  0.00    +0.000 A 
ATOM     12  C   UNL     1       3.713   2.370  18.818  0.00  0.00    +0.000 A 
ATOM     13  C   UNL     1       2.392   1.931  18.950  0.00  0.00    +0.000 A 
ENDBRANCH   1  11
BRANCH   5  14
ATOM     14  C   UNL     1       5.573   4.303  15.422  0.00  0.00    +0.000 C 
BRANCH  14  15
ATOM     15  N   UNL     1       6.678   3.951  14.530  0.00  0.00    +0.000 NA
ATOM     16  H   UNL     1       6.348   3.198  13.925  0.00  0.00    +0.000 HD
BRANCH  15  17
ATOM     17  C   UNL     1       7.106   5.078  13.685  0.00  0.00    +0.000 C 
BRANCH  17  18
ATOM     18  C   UNL     1       7.548   4.520  12.330  0.00  0.00    +0.000 C 
BRANCH  18  19
ATOM     19  N   UNL     1       6.775   3.386  11.866  0.00  0.00    +0.000 N 
ATOM     20  C   UNL     1       7.279   2.209  11.389  0.00  0.00    +0.000 A 
ATOM     21  C   UNL     1       6.191   1.436  11.058  0.00  0.00    +0.000 A 
ATOM     22  C   UNL     1       5.080   2.199  11.460  0.00  0.00    +0.000 A 
ATOM     23  N   UNL     1       5.431   3.385  11.966  0.00  0.00    +0.000 NA
ENDBRANCH  18  19
ENDBRANCH  17  18
ENDBRANCH  15  17
ENDBRANCH  14  15
ENDBRANCH   5  14
TORSDOF 6
ENDMDL
