MODEL 1
REMARK VINA RESULT:      -7.7      0.000      0.000
REMARK  Name = 
REMARK  8 active torsions:
REMARK  status: ('A' for Active; 'I' for Inactive)
REMARK    1  A    between atoms: C_1  and  C_2
REMARK    2  A    between atoms: C_5  and  N_6
REMARK    3  A    between atoms: N_9  and  C_10
REMARK    4  A    between atoms: C_10  and  C_11
REMARK    5  A    between atoms: C_10  and  C_12
REMARK    6  A    between atoms: C_14  and  C_15
REMARK    7  A    between atoms: C_14  and  C_16
REMARK    8  A    between atoms: C_24  and  C_25
REMARK                            x       y       z     vdW  Elec       q    Type
REMARK                         _______ _______ _______ _____ _____    ______ ____
ROOT
ATOM      1  N   UNL     1       1.599   8.974  18.992  0.00  0.00    +0.000 N 
ATOM      2  C   UNL     1       1.934   7.991  20.032  0.00  0.00    +0.000 C 
ATOM      3  C   UNL     1       2.390   6.647  19.411  0.00  0.00    +0.000 C 
ATOM      4  N   UNL     1       3.456   6.788  18.395  0.00  0.00    +0.000 NA
ATOM      5  C   UNL     1       3.003   7.746  17.361  0.00  0.00    +0.000 C 
ATOM      6  C   UNL     1       2.648   9.121  17.969  0.00  0.00    +0.000 C 
ENDROOT
BRANCH   1  11
ATOM      7  C   UNL     1      -3.417  11.751  18.514  0.00  0.00    +0.000 C 
ATOM      8  C   UNL     1      -2.110  11.030  18.642  0.00  0.00    +0.000 A 
ATOM      9  C   UNL     1      -1.645  10.191  17.641  0.00  0.00    +0.000 A 
ATOM     10  C   UNL     1      -0.424   9.522  17.794  0.00  0.00    +0.000 A 
ATOM     11  C   UNL     1       0.406   9.672  18.930  0.00  0.00    +0.000 A 
ATOM     12  C   UNL     1      -0.065  10.554  19.926  0.00  0.00    +0.000 A 
ATOM     13  C   UNL     1       0.680  10.916  21.186  0.00  0.00    +0.000 C 
ATOM     14  C   UNL     1      -1.323  11.195  19.780  0.00  0.00    +0.000 A 
ENDBRANCH   1  11
BRANCH   4  15
ATOM     15  C   UNL     1       3.939   5.486  17.884  0.00  0.00    +0.000 C 
ATOM     16  C   UNL     1       2.838   4.449  17.604  0.00  0.00    +0.000 C 
BRANCH  15  17
ATOM     17  C   UNL     1       4.740   5.737  16.628  0.00  0.00    +0.000 C 
ATOM     18  C   UNL     1       5.920   6.673  16.654  0.00  0.00    +0.000 C 
ATOM     19  C   UNL     1       6.150   5.211  16.310  0.00  0.00    +0.000 C 
ATOM     20  C   UNL     1       6.962   4.413  17.298  0.00  0.00    +0.000 C 
BRANCH  19  21
ATOM     21  C   UNL     1       6.374   4.838  14.844  0.00  0.00    +0.000 A 
ATOM     22  C   UNL     1       5.546   3.918  14.181  0.00  0.00    +0.000 A 
ATOM     23  C   UNL     1       5.802   3.531  12.865  0.00  0.00    +0.000 A 
ATOM     24  C   UNL     1       6.887   4.059  12.177  0.00  0.00    +0.000 A 
ATOM     25  C   UNL     1       7.715   4.988  12.803  0.00  0.00    +0.000 A 
ATOM     26  C   UNL     1       7.451   5.379  14.118  0.00  0.00    +0.000 A 
ENDBRANCH  19  21
ENDBRANCH  15  17
ENDBRANCH   4  15
TORSDOF 4
ENDMDL
MODEL 2
REMARK VINA RESULT:      -7.7      1.042      1.218
REMARK  Name = 
REMARK  8 active torsions:
REMARK  status: ('A' for Active; 'I' for Inactive)
REMARK    1  A    between atoms: C_1  and  C_2
REMARK    2  A    between atoms: C_5  and  N_6
REMARK    3  A    between atoms: N_9  and  C_10
REMARK    4  A    between atoms: C_10  and  C_11
REMARK    5  A    between atoms: C_10  and  C_12
REMARK    6  A    between atoms: C_14  and  C_15
REMARK    7  A    between atoms: C_14  and  C_16
REMARK    8  A    between atoms: C_24  and  C_25
REMARK                            x       y       z     vdW  Elec       q    Type
REMARK                         _______ _______ _______ _____ _____    ______ ____
ROOT
ATOM      1  N   UNL     1       0.712   9.748  18.995  0.00  0.00    +0.000 N 
ATOM      2  C   UNL     1       1.138   9.047  20.214  0.00  0.00    +0.000 C 
ATOM      3  C   UNL     1       1.672   7.628  19.891  0.00  0.00    +0.000 C 
ATOM      4  N   UNL     1       2.702   7.604  18.830  0.00  0.00    +0.000 NA
ATOM      5  C   UNL     1       2.160   8.275  17.626  0.00  0.00    +0.000 C 
ATOM      6  C   UNL     1       1.726   9.727  17.926  0.00  0.00    +0.000 C 
ENDROOT
BRANCH   1  11
ATOM      7  C   UNL     1      -4.502  12.015  18.117  0.00  0.00    +0.000 C 
ATOM      8  C   UNL     1      -3.143  11.427  18.349  0.00  0.00    +0.000 A 
ATOM      9  C   UNL     1      -2.689  10.343  17.614  0.00  0.00    +0.000 A 
ATOM     10  C   UNL     1      -1.418   9.809  17.860  0.00  0.00    +0.000 A 
ATOM     11  C   UNL     1      -0.527  10.338  18.824  0.00  0.00    +0.000 A 
ATOM     12  C   UNL     1      -0.991  11.462  19.541  0.00  0.00    +0.000 A 
ATOM     13  C   UNL     1      -0.191  12.227  20.565  0.00  0.00    +0.000 C 
ATOM     14  C   UNL     1      -2.297  11.970  19.313  0.00  0.00    +0.000 A 
ENDBRANCH   1  11
BRANCH   4  15
ATOM     15  C   UNL     1       3.262   6.254  18.603  0.00  0.00    +0.000 C 
ATOM     16  C   UNL     1       2.219   5.149  18.365  0.00  0.00    +0.000 C 
BRANCH  15  17
ATOM     17  C   UNL     1       4.212   6.324  17.431  0.00  0.00    +0.000 C 
ATOM     18  C   UNL     1       5.508   7.084  17.548  0.00  0.00    +0.000 C 
ATOM     19  C   UNL     1       5.555   5.589  17.284  0.00  0.00    +0.000 C 
ATOM     20  C   UNL     1       6.140   4.735  18.380  0.00  0.00    +0.000 C 
BRANCH  19  21
ATOM     21  C   UNL     1       5.868   5.113  15.864  0.00  0.00    +0.000 A 
ATOM     22  C   UNL     1       4.966   4.320  15.136  0.00  0.00    +0.000 A 
ATOM     23  C   UNL     1       5.292   3.832  13.869  0.00  0.00    +0.000 A 
ATOM     24  C   UNL     1       6.521   4.131  13.297  0.00  0.00    +0.000 A 
ATOM     25  C   UNL     1       7.428   4.931  13.988  0.00  0.00    +0.000 A 
ATOM     26  C   UNL     1       7.096   5.424  15.253  0.00  0.00    +0.000 A 
ENDBRANCH  19  21
ENDBRANCH  15  17
ENDBRANCH   4  15
TORSDOF 4
ENDMDL
MODEL 3
REMARK VINA RESULT:      -7.7      0.339      1.002
REMARK  Name = 
REMARK  8 active torsions:
REMARK  status: ('A' for Active; 'I' for Inactive)
REMARK    1  A    between atoms: C_1  and  C_2
REMARK    2  A    between atoms: C_5  and  N_6
REMARK    3  A    between atoms: N_9  and  C_10
REMARK    4  A    between atoms: C_10  and  C_11
REMARK    5  A    between atoms: C_10  and  C_12
REMARK    6  A    between atoms: C_14  and  C_15
REMARK    7  A    between atoms: C_14  and  C_16
REMARK    8  A    between atoms: C_24  and  C_25
REMARK                            x       y       z     vdW  Elec       q    Type
REMARK                         _______ _______ _______ _____ _____    ______ ____
ROOT
ATOM      1  N   UNL     1       1.390   9.224  18.969  0.00  0.00    +0.000 N 
ATOM      2  C   UNL     1       1.792   8.330  20.064  0.00  0.00    +0.000 C 
ATOM      3  C   UNL     1       2.233   6.944  19.528  0.00  0.00    +0.000 C 
ATOM      4  N   UNL     1       3.243   7.014  18.450  0.00  0.00    +0.000 NA
ATOM      5  C   UNL     1       2.723   7.883  17.368  0.00  0.00    +0.000 C 
ATOM      6  C   UNL     1       2.383   9.299  17.884  0.00  0.00    +0.000 C 
ENDROOT
BRANCH   1  11
ATOM      7  C   UNL     1      -3.685  11.901  18.545  0.00  0.00    +0.000 C 
ATOM      8  C   UNL     1      -2.362  11.205  18.659  0.00  0.00    +0.000 A 
ATOM      9  C   UNL     1      -1.956  10.265  17.725  0.00  0.00    +0.000 A 
ATOM     10  C   UNL     1      -0.718   9.625  17.863  0.00  0.00    +0.000 A 
ATOM     11  C   UNL     1       0.186   9.903  18.916  0.00  0.00    +0.000 A 
ATOM     12  C   UNL     1      -0.228  10.885  19.841  0.00  0.00    +0.000 A 
ATOM     13  C   UNL     1       0.598  11.387  20.999  0.00  0.00    +0.000 C 
ATOM     14  C   UNL     1      -1.502  11.499  19.714  0.00  0.00    +0.000 A 
ENDBRANCH   1  11
BRANCH   4  15
ATOM     15  C   UNL     1       3.716   5.681  18.017  0.00  0.00    +0.000 C 
ATOM     16  C   UNL     1       2.604   4.665  17.707  0.00  0.00    +0.000 C 
BRANCH  15  17
ATOM     17  C   UNL     1       4.601   5.860  16.806  0.00  0.00    +0.000 C 
ATOM     18  C   UNL     1       5.808   6.758  16.874  0.00  0.00    +0.000 C 
ATOM     19  C   UNL     1       6.009   5.279  16.595  0.00  0.00    +0.000 C 
ATOM     20  C   UNL     1       6.732   4.491  17.659  0.00  0.00    +0.000 C 
BRANCH  19  21
ATOM     21  C   UNL     1       6.310   4.846  15.160  0.00  0.00    +0.000 A 
ATOM     22  C   UNL     1       7.423   5.340  14.458  0.00  0.00    +0.000 A 
ATOM     23  C   UNL     1       7.649   4.994  13.125  0.00  0.00    +0.000 A 
ATOM     24  C   UNL     1       6.775   4.140  12.464  0.00  0.00    +0.000 A 
ATOM     25  C   UNL     1       5.674   3.621  13.140  0.00  0.00    +0.000 A 
ATOM     26  C   UNL     1       5.454   3.963  14.477  0.00  0.00    +0.000 A 
ENDBRANCH  19  21
ENDBRANCH  15  17
ENDBRANCH   4  15
TORSDOF 4
ENDMDL
MODEL 4
REMARK VINA RESULT:      -7.6      1.273      2.005
REMARK  Name = 
REMARK  8 active torsions:
REMARK  status: ('A' for Active; 'I' for Inactive)
REMARK    1  A    between atoms: C_1  and  C_2
REMARK    2  A    between atoms: C_5  and  N_6
REMARK    3  A    between atoms: N_9  and  C_10
REMARK    4  A    between atoms: C_10  and  C_11
REMARK    5  A    between atoms: C_10  and  C_12
REMARK    6  A    between atoms: C_14  and  C_15
REMARK    7  A    between atoms: C_14  and  C_16
REMARK    8  A    between atoms: C_24  and  C_25
REMARK                            x       y       z     vdW  Elec       q    Type
REMARK                         _______ _______ _______ _____ _____    ______ ____
ROOT
ATOM      1  N   UNL     1       0.712   9.538  19.129  0.00  0.00    +0.000 N 
ATOM      2  C   UNL     1       1.025   9.041  20.475  0.00  0.00    +0.000 C 
ATOM      3  C   UNL     1       1.499   7.566  20.437  0.00  0.00    +0.000 C 
ATOM      4  N   UNL     1       2.587   7.313  19.468  0.00  0.00    +0.000 NA
ATOM      5  C   UNL     1       2.155   7.787  18.133  0.00  0.00    +0.000 C 
ATOM      6  C   UNL     1       1.784   9.287  18.150  0.00  0.00    +0.000 C 
ENDROOT
BRANCH   1  11
ATOM      7  C   UNL     1      -4.279  11.875  17.478  0.00  0.00    +0.000 C 
ATOM      8  C   UNL     1      -2.979  11.269  17.911  0.00  0.00    +0.000 A 
ATOM      9  C   UNL     1      -2.403  10.218  17.214  0.00  0.00    +0.000 A 
ATOM     10  C   UNL     1      -1.191   9.666  17.649  0.00  0.00    +0.000 A 
ATOM     11  C   UNL     1      -0.481  10.143  18.776  0.00  0.00    +0.000 A 
ATOM     12  C   UNL     1      -1.064  11.234  19.456  0.00  0.00    +0.000 A 
ATOM     13  C   UNL     1      -0.453  11.945  20.637  0.00  0.00    +0.000 C 
ATOM     14  C   UNL     1      -2.312  11.760  19.031  0.00  0.00    +0.000 A 
ENDBRANCH   1  11
BRANCH   4  15
ATOM     15  C   UNL     1       3.084   5.920  19.514  0.00  0.00    +0.000 C 
ATOM     16  C   UNL     1       2.066   4.851  19.084  0.00  0.00    +0.000 C 
BRANCH  15  17
ATOM     17  C   UNL     1       4.321   5.828  18.650  0.00  0.00    +0.000 C 
ATOM     18  C   UNL     1       5.672   5.610  19.278  0.00  0.00    +0.000 C 
ATOM     19  C   UNL     1       5.129   4.562  18.323  0.00  0.00    +0.000 C 
ATOM     20  C   UNL     1       4.808   3.215  18.922  0.00  0.00    +0.000 C 
BRANCH  19  21
ATOM     21  C   UNL     1       5.692   4.515  16.902  0.00  0.00    +0.000 A 
ATOM     22  C   UNL     1       7.015   4.891  16.620  0.00  0.00    +0.000 A 
ATOM     23  C   UNL     1       7.498   4.913  15.310  0.00  0.00    +0.000 A 
ATOM     24  C   UNL     1       6.672   4.552  14.253  0.00  0.00    +0.000 A 
ATOM     25  C   UNL     1       5.361   4.157  14.504  0.00  0.00    +0.000 A 
ATOM     26  C   UNL     1       4.883   4.129  15.817  0.00  0.00    +0.000 A 
ENDBRANCH  19  21
ENDBRANCH  15  17
ENDBRANCH   4  15
TORSDOF 4
ENDMDL
MODEL 5
REMARK VINA RESULT:      -7.4      2.601     10.136
REMARK  Name = 
REMARK  8 active torsions:
REMARK  status: ('A' for Active; 'I' for Inactive)
REMARK    1  A    between atoms: C_1  and  C_2
REMARK    2  A    between atoms: C_5  and  N_6
REMARK    3  A    between atoms: N_9  and  C_10
REMARK    4  A    between atoms: C_10  and  C_11
REMARK    5  A    between atoms: C_10  and  C_12
REMARK    6  A    between atoms: C_14  and  C_15
REMARK    7  A    between atoms: C_14  and  C_16
REMARK    8  A    between atoms: C_24  and  C_25
REMARK                            x       y       z     vdW  Elec       q    Type
REMARK                         _______ _______ _______ _____ _____    ______ ____
ROOT
ATOM      1  N   UNL     1       2.394   7.421  18.984  0.00  0.00    +0.000 N 
ATOM      2  C   UNL     1       2.607   8.488  17.996  0.00  0.00    +0.000 C 
ATOM      3  C   UNL     1       1.343   9.371  17.840  0.00  0.00    +0.000 C 
ATOM      4  N   UNL     1       0.805   9.879  19.120  0.00  0.00    +0.000 NA
ATOM      5  C   UNL     1       0.565   8.729  20.023  0.00  0.00    +0.000 C 
ATOM      6  C   UNL     1       1.852   7.910  20.263  0.00  0.00    +0.000 C 
ENDROOT
BRANCH   1  11
ATOM      7  C   UNL     1       3.159   1.781  18.144  0.00  0.00    +0.000 C 
ATOM      8  C   UNL     1       2.963   3.251  18.360  0.00  0.00    +0.000 A 
ATOM      9  C   UNL     1       1.989   3.732  19.222  0.00  0.00    +0.000 A 
ATOM     10  C   UNL     1       1.824   5.112  19.396  0.00  0.00    +0.000 A 
ATOM     11  C   UNL     1       2.628   6.078  18.747  0.00  0.00    +0.000 A 
ATOM     12  C   UNL     1       3.635   5.572  17.898  0.00  0.00    +0.000 A 
ATOM     13  C   UNL     1       4.648   6.411  17.159  0.00  0.00    +0.000 C 
ATOM     14  C   UNL     1       3.768   4.173  17.697  0.00  0.00    +0.000 A 
ENDBRANCH   1  11
BRANCH   4  15
ATOM     15  C   UNL     1      -0.345  10.791  18.939  0.00  0.00    +0.000 C 
ATOM     16  C   UNL     1      -1.479  10.243  18.057  0.00  0.00    +0.000 C 
BRANCH  15  17
ATOM     17  C   UNL     1      -0.884  11.152  20.304  0.00  0.00    +0.000 C 
ATOM     18  C   UNL     1      -0.015  11.880  21.296  0.00  0.00    +0.000 C 
ATOM     19  C   UNL     1      -1.284  12.552  20.799  0.00  0.00    +0.000 C 
ATOM     20  C   UNL     1      -1.099  13.794  19.965  0.00  0.00    +0.000 C 
BRANCH  19  21
ATOM     21  C   UNL     1      -2.501  12.576  21.725  0.00  0.00    +0.000 A 
ATOM     22  C   UNL     1      -3.784  12.896  21.250  0.00  0.00    +0.000 A 
ATOM     23  C   UNL     1      -4.875  12.985  22.116  0.00  0.00    +0.000 A 
ATOM     24  C   UNL     1      -4.713  12.748  23.475  0.00  0.00    +0.000 A 
ATOM     25  C   UNL     1      -3.456  12.410  23.971  0.00  0.00    +0.000 A 
ATOM     26  C   UNL     1      -2.368  12.315  23.101  0.00  0.00    +0.000 A 
ENDBRANCH  19  21
ENDBRANCH  15  17
ENDBRANCH   4  15
TORSDOF 4
ENDMDL
MODEL 6
REMARK VINA RESULT:      -7.3      1.081      2.019
REMARK  Name = 
REMARK  8 active torsions:
REMARK  status: ('A' for Active; 'I' for Inactive)
REMARK    1  A    between atoms: C_1  and  C_2
REMARK    2  A    between atoms: C_5  and  N_6
REMARK    3  A    between atoms: N_9  and  C_10
REMARK    4  A    between atoms: C_10  and  C_11
REMARK    5  A    between atoms: C_10  and  C_12
REMARK    6  A    between atoms: C_14  and  C_15
REMARK    7  A    between atoms: C_14  and  C_16
REMARK    8  A    between atoms: C_24  and  C_25
REMARK                            x       y       z     vdW  Elec       q    Type
REMARK                         _______ _______ _______ _____ _____    ______ ____
ROOT
ATOM      1  N   UNL     1       1.084   9.685  19.595  0.00  0.00    +0.000 N 
ATOM      2  C   UNL     1       1.565   8.768  20.638  0.00  0.00    +0.000 C 
ATOM      3  C   UNL     1       1.832   7.353  20.065  0.00  0.00    +0.000 C 
ATOM      4  N   UNL     1       2.691   7.348  18.861  0.00  0.00    +0.000 NA
ATOM      5  C   UNL     1       2.093   8.248  17.847  0.00  0.00    +0.000 C 
ATOM      6  C   UNL     1       1.925   9.686  18.386  0.00  0.00    +0.000 C 
ENDROOT
BRANCH   1  11
ATOM      7  C   UNL     1      -3.607  12.955  20.228  0.00  0.00    +0.000 C 
ATOM      8  C   UNL     1      -2.387  12.102  20.060  0.00  0.00    +0.000 A 
ATOM      9  C   UNL     1      -1.414  12.029  21.044  0.00  0.00    +0.000 A 
ATOM     10  C   UNL     1      -0.279  11.230  20.854  0.00  0.00    +0.000 A 
ATOM     11  C   UNL     1      -0.066  10.448  19.694  0.00  0.00    +0.000 A 
ATOM     12  C   UNL     1      -1.081  10.508  18.715  0.00  0.00    +0.000 A 
ATOM     13  C   UNL     1      -1.098   9.711  17.435  0.00  0.00    +0.000 C 
ATOM     14  C   UNL     1      -2.207  11.352  18.900  0.00  0.00    +0.000 A 
ENDBRANCH   1  11
BRANCH   4  15
ATOM     15  C   UNL     1       3.007   5.983  18.386  0.00  0.00    +0.000 C 
ATOM     16  C   UNL     1       1.805   5.185  17.853  0.00  0.00    +0.000 C 
BRANCH  15  17
ATOM     17  C   UNL     1       4.070   6.085  17.317  0.00  0.00    +0.000 C 
ATOM     18  C   UNL     1       5.345   6.842  17.584  0.00  0.00    +0.000 C 
ATOM     19  C   UNL     1       5.423   5.355  17.285  0.00  0.00    +0.000 C 
ATOM     20  C   UNL     1       5.897   4.471  18.411  0.00  0.00    +0.000 C 
BRANCH  19  21
ATOM     21  C   UNL     1       5.877   4.919  15.891  0.00  0.00    +0.000 A 
ATOM     22  C   UNL     1       7.115   5.317  15.361  0.00  0.00    +0.000 A 
ATOM     23  C   UNL     1       7.490   4.973  14.061  0.00  0.00    +0.000 A 
ATOM     24  C   UNL     1       6.641   4.217  13.263  0.00  0.00    +0.000 A 
ATOM     25  C   UNL     1       5.415   3.792  13.770  0.00  0.00    +0.000 A 
ATOM     26  C   UNL     1       5.046   4.132  15.074  0.00  0.00    +0.000 A 
ENDBRANCH  19  21
ENDBRANCH  15  17
ENDBRANCH   4  15
TORSDOF 4
ENDMDL
MODEL 7
REMARK VINA RESULT:      -7.2      1.259      2.205
REMARK  Name = 
REMARK  8 active torsions:
REMARK  status: ('A' for Active; 'I' for Inactive)
REMARK    1  A    between atoms: C_1  and  C_2
REMARK    2  A    between atoms: C_5  and  N_6
REMARK    3  A    between atoms: N_9  and  C_10
REMARK    4  A    between atoms: C_10  and  C_11
REMARK    5  A    between atoms: C_10  and  C_12
REMARK    6  A    between atoms: C_14  and  C_15
REMARK    7  A    between atoms: C_14  and  C_16
REMARK    8  A    between atoms: C_24  and  C_25
REMARK                            x       y       z     vdW  Elec       q    Type
REMARK                         _______ _______ _______ _____ _____    ______ ____
ROOT
ATOM      1  N   UNL     1       0.939   9.631  19.923  0.00  0.00    +0.000 N 
ATOM      2  C   UNL     1       1.336   8.730  21.014  0.00  0.00    +0.000 C 
ATOM      3  C   UNL     1       1.535   7.280  20.504  0.00  0.00    +0.000 C 
ATOM      4  N   UNL     1       2.425   7.177  19.327  0.00  0.00    +0.000 NA
ATOM      5  C   UNL     1       1.910   8.069  18.263  0.00  0.00    +0.000 C 
ATOM      6  C   UNL     1       1.812   9.535  18.741  0.00  0.00    +0.000 C 
ENDROOT
BRANCH   1  11
ATOM      7  C   UNL     1      -3.576  13.176  20.300  0.00  0.00    +0.000 C 
ATOM      8  C   UNL     1      -2.401  12.252  20.198  0.00  0.00    +0.000 A 
ATOM      9  C   UNL     1      -1.510  12.096  21.248  0.00  0.00    +0.000 A 
ATOM     10  C   UNL     1      -0.415  11.232  21.120  0.00  0.00    +0.000 A 
ATOM     11  C   UNL     1      -0.166  10.463  19.959  0.00  0.00    +0.000 A 
ATOM     12  C   UNL     1      -1.100  10.608  18.910  0.00  0.00    +0.000 A 
ATOM     13  C   UNL     1      -1.071   9.842  17.612  0.00  0.00    +0.000 C 
ATOM     14  C   UNL     1      -2.183  11.517  19.035  0.00  0.00    +0.000 A 
ENDBRANCH   1  11
BRANCH   4  15
ATOM     15  C   UNL     1       2.672   5.778  18.914  0.00  0.00    +0.000 C 
ATOM     16  C   UNL     1       1.585   5.162  18.018  0.00  0.00    +0.000 C 
BRANCH  15  17
ATOM     17  C   UNL     1       4.010   5.719  18.214  0.00  0.00    +0.000 C 
ATOM     18  C   UNL     1       5.246   5.310  18.972  0.00  0.00    +0.000 C 
ATOM     19  C   UNL     1       4.784   4.455  17.805  0.00  0.00    +0.000 C 
ATOM     20  C   UNL     1       4.309   3.065  18.144  0.00  0.00    +0.000 C 
BRANCH  19  21
ATOM     21  C   UNL     1       5.537   4.571  16.479  0.00  0.00    +0.000 A 
ATOM     22  C   UNL     1       5.014   4.047  15.285  0.00  0.00    +0.000 A 
ATOM     23  C   UNL     1       5.741   4.094  14.094  0.00  0.00    +0.000 A 
ATOM     24  C   UNL     1       7.002   4.674  14.065  0.00  0.00    +0.000 A 
ATOM     25  C   UNL     1       7.538   5.219  15.230  0.00  0.00    +0.000 A 
ATOM     26  C   UNL     1       6.805   5.176  16.419  0.00  0.00    +0.000 A 
ENDBRANCH  19  21
ENDBRANCH  15  17
ENDBRANCH   4  15
TORSDOF 4
ENDMDL
MODEL 8
REMARK VINA RESULT:      -7.1      2.799     10.029
REMARK  Name = 
REMARK  8 active torsions:
REMARK  status: ('A' for Active; 'I' for Inactive)
REMARK    1  A    between atoms: C_1  and  C_2
REMARK    2  A    between atoms: C_5  and  N_6
REMARK    3  A    between atoms: N_9  and  C_10
REMARK    4  A    between atoms: C_10  and  C_11
REMARK    5  A    between atoms: C_10  and  C_12
REMARK    6  A    between atoms: C_14  and  C_15
REMARK    7  A    between atoms: C_14  and  C_16
REMARK    8  A    between atoms: C_24  and  C_25
REMARK                            x       y       z     vdW  Elec       q    Type
REMARK                         _______ _______ _______ _____ _____    ______ ____
ROOT
ATOM      1  N   UNL     1       2.480   7.322  18.981  0.00  0.00    +0.000 N 
ATOM      2  C   UNL     1       2.708   8.363  17.969  0.00  0.00    +0.000 C 
ATOM      3  C   UNL     1       1.459   9.263  17.794  0.00  0.00    +0.000 C 
ATOM      4  N   UNL     1       0.932   9.809  19.063  0.00  0.00    +0.000 NA
ATOM      5  C   UNL     1       0.673   8.684  19.992  0.00  0.00    +0.000 C 
ATOM      6  C   UNL     1       1.947   7.849  20.249  0.00  0.00    +0.000 C 
ENDROOT
BRANCH   1  11
ATOM      7  C   UNL     1       3.507   1.762  17.922  0.00  0.00    +0.000 C 
ATOM      8  C   UNL     1       3.238   3.209  18.201  0.00  0.00    +0.000 A 
ATOM      9  C   UNL     1       3.701   4.207  17.357  0.00  0.00    +0.000 A 
ATOM     10  C   UNL     1       3.441   5.552  17.650  0.00  0.00    +0.000 A 
ATOM     11  C   UNL     1       2.690   5.971  18.774  0.00  0.00    +0.000 A 
ATOM     12  C   UNL     1       2.198   4.941  19.605  0.00  0.00    +0.000 A 
ATOM     13  C   UNL     1       1.323   5.149  20.816  0.00  0.00    +0.000 C 
ATOM     14  C   UNL     1       2.502   3.584  19.322  0.00  0.00    +0.000 A 
ENDBRANCH   1  11
BRANCH   4  15
ATOM     15  C   UNL     1      -0.203  10.737  18.862  0.00  0.00    +0.000 C 
ATOM     16  C   UNL     1      -1.341  10.192  17.983  0.00  0.00    +0.000 C 
BRANCH  15  17
ATOM     17  C   UNL     1      -0.743  11.127  20.219  0.00  0.00    +0.000 C 
ATOM     18  C   UNL     1       0.118  11.895  21.187  0.00  0.00    +0.000 C 
ATOM     19  C   UNL     1      -1.162  12.533  20.677  0.00  0.00    +0.000 C 
ATOM     20  C   UNL     1      -0.999  13.755  19.808  0.00  0.00    +0.000 C 
BRANCH  19  21
ATOM     21  C   UNL     1      -2.377  12.564  21.607  0.00  0.00    +0.000 A 
ATOM     22  C   UNL     1      -3.653  12.920  21.142  0.00  0.00    +0.000 A 
ATOM     23  C   UNL     1      -4.740  13.015  22.013  0.00  0.00    +0.000 A 
ATOM     24  C   UNL     1      -4.579  12.747  23.366  0.00  0.00    +0.000 A 
ATOM     25  C   UNL     1      -3.329  12.374  23.852  0.00  0.00    +0.000 A 
ATOM     26  C   UNL     1      -2.245  12.273  22.977  0.00  0.00    +0.000 A 
ENDBRANCH  19  21
ENDBRANCH  15  17
ENDBRANCH   4  15
TORSDOF 4
ENDMDL
MODEL 9
REMARK VINA RESULT:      -6.9      3.757     11.091
REMARK  Name = 
REMARK  8 active torsions:
REMARK  status: ('A' for Active; 'I' for Inactive)
REMARK    1  A    between atoms: C_1  and  C_2
REMARK    2  A    between atoms: C_5  and  N_6
REMARK    3  A    between atoms: N_9  and  C_10
REMARK    4  A    between atoms: C_10  and  C_11
REMARK    5  A    between atoms: C_10  and  C_12
REMARK    6  A    between atoms: C_14  and  C_15
REMARK    7  A    between atoms: C_14  and  C_16
REMARK    8  A    between atoms: C_24  and  C_25
REMARK                            x       y       z     vdW  Elec       q    Type
REMARK                         _______ _______ _______ _____ _____    ______ ____
ROOT
ATOM      1  N   UNL     1       0.882  10.362  18.942  0.00  0.00    +0.000 N 
ATOM      2  C   UNL     1      -0.565  10.613  18.885  0.00  0.00    +0.000 C 
ATOM      3  C   UNL     1      -1.002  11.640  19.960  0.00  0.00    +0.000 C 
ATOM      4  N   UNL     1      -0.207  12.887  19.954  0.00  0.00    +0.000 NA
ATOM      5  C   UNL     1       1.227  12.536  20.079  0.00  0.00    +0.000 C 
ATOM      6  C   UNL     1       1.688  11.595  18.944  0.00  0.00    +0.000 C 
ENDROOT
BRANCH   1  11
ATOM      7  C   UNL     1       3.354   5.169  19.076  0.00  0.00    +0.000 C 
ATOM      8  C   UNL     1       2.709   6.521  19.045  0.00  0.00    +0.000 A 
ATOM      9  C   UNL     1       2.689   7.287  17.890  0.00  0.00    +0.000 A 
ATOM     10  C   UNL     1       2.087   8.551  17.894  0.00  0.00    +0.000 A 
ATOM     11  C   UNL     1       1.455   9.106  19.032  0.00  0.00    +0.000 A 
ATOM     12  C   UNL     1       1.455   8.301  20.192  0.00  0.00    +0.000 A 
ATOM     13  C   UNL     1       0.786   8.658  21.495  0.00  0.00    +0.000 C 
ATOM     14  C   UNL     1       2.103   7.038  20.188  0.00  0.00    +0.000 A 
ENDBRANCH   1  11
BRANCH   4  15
ATOM     15  C   UNL     1      -0.699  13.888  20.926  0.00  0.00    +0.000 C 
ATOM     16  C   UNL     1      -1.290  15.164  20.303  0.00  0.00    +0.000 C 
BRANCH  15  17
ATOM     17  C   UNL     1      -1.729  13.224  21.810  0.00  0.00    +0.000 C 
ATOM     18  C   UNL     1      -1.295  12.382  22.981  0.00  0.00    +0.000 C 
ATOM     19  C   UNL     1      -2.120  13.631  23.241  0.00  0.00    +0.000 C 
ATOM     20  C   UNL     1      -1.429  14.744  23.987  0.00  0.00    +0.000 C 
BRANCH  19  21
ATOM     21  C   UNL     1      -3.604  13.464  23.567  0.00  0.00    +0.000 A 
ATOM     22  C   UNL     1      -4.065  12.435  24.405  0.00  0.00    +0.000 A 
ATOM     23  C   UNL     1      -5.428  12.247  24.638  0.00  0.00    +0.000 A 
ATOM     24  C   UNL     1      -6.363  13.088  24.048  0.00  0.00    +0.000 A 
ATOM     25  C   UNL     1      -5.934  14.128  23.228  0.00  0.00    +0.000 A 
ATOM     26  C   UNL     1      -4.569  14.318  23.001  0.00  0.00    +0.000 A 
ENDBRANCH  19  21
ENDBRANCH  15  17
ENDBRANCH   4  15
TORSDOF 4
ENDMDL
