MODEL 1
REMARK VINA RESULT:      -7.7      0.000      0.000
REMARK  Name = 
REMARK  5 active torsions:
REMARK  status: ('A' for Active; 'I' for Inactive)
REMARK    1  A    between atoms: C_2  and  C_17
REMARK    2  A    between atoms: N_3  and  C_4
REMARK    3  A    between atoms: C_4  and  C_5
REMARK    4  A    between atoms: C_5  and  C_6
REMARK    5  A    between atoms: C_6  and  N_7
REMARK                            x       y       z     vdW  Elec       q    Type
REMARK                         _______ _______ _______ _____ _____    ______ ____
ROOT
ATOM      1  C   UNL     1       7.022   5.448  19.251  0.00  0.00    +0.000 C 
ENDROOT
BRANCH   1   2
ATOM      2  N   UNL     1       6.399   4.198  18.805  0.00  0.00    +0.000 N 
ATOM      3  C   UNL     1       5.084   4.047  19.094  0.00  0.00    +0.000 A 
ATOM      4  N   UNL     1       4.276   4.858  19.729  0.00  0.00    +0.000 NA
ATOM      5  C   UNL     1       3.058   4.226  19.761  0.00  0.00    +0.000 A 
ATOM      6  C   UNL     1       1.837   4.652  20.310  0.00  0.00    +0.000 A 
ATOM      7  C   UNL     1       0.720   3.813  20.194  0.00  0.00    +0.000 A 
ATOM      8  C   UNL     1       0.816   2.576  19.554  0.00  0.00    +0.000 A 
ATOM      9  C   UNL     1       2.028   2.132  19.007  0.00  0.00    +0.000 A 
ATOM     10  C   UNL     1       3.123   2.989  19.134  0.00  0.00    +0.000 A 
ATOM     11  N   UNL     1       4.432   2.888  18.731  0.00  0.00    +0.000 N 
ATOM     12  H   UNL     1       6.969   3.387  19.029  0.00  0.00    +0.000 HD
ATOM     13  H   UNL     1       4.843   2.116  18.236  0.00  0.00    +0.000 HD
ENDBRANCH   1   2
BRANCH   1  14
ATOM     14  C   UNL     1       7.464   6.296  18.049  0.00  0.00    +0.000 C 
BRANCH  14  15
ATOM     15  C   UNL     1       6.252   6.725  17.224  0.00  0.00    +0.000 C 
BRANCH  15  18
ATOM     16  O   UNL     1       4.946   4.572  16.107  0.00  0.00    +0.000 OA
ATOM     17  C   UNL     1       5.632   5.263  15.362  0.00  0.00    +0.000 C 
ATOM     18  N   UNL     1       6.339   6.355  15.823  0.00  0.00    +0.000 N 
ATOM     19  H   UNL     1       6.944   6.869  15.199  0.00  0.00    +0.000 HD
BRANCH  17  20
ATOM     20  C   UNL     1       5.776   4.966  13.868  0.00  0.00    +0.000 C 
ATOM     21  C   UNL     1       5.177   3.596  13.543  0.00  0.00    +0.000 C 
ATOM     22  C   UNL     1       5.522   3.155  12.129  0.00  0.00    +0.000 C 
ATOM     23  O   UNL     1       6.930   3.180  11.916  0.00  0.00    +0.000 OA
ATOM     24  C   UNL     1       7.474   4.490  12.057  0.00  0.00    +0.000 C 
ATOM     25  C   UNL     1       7.259   5.008  13.469  0.00  0.00    +0.000 C 
ENDBRANCH  17  20
ENDBRANCH  15  18
ENDBRANCH  14  15
ENDBRANCH   1  14
TORSDOF 5
ENDMDL
MODEL 2
REMARK VINA RESULT:      -7.6      3.639      6.699
REMARK  Name = 
REMARK  5 active torsions:
REMARK  status: ('A' for Active; 'I' for Inactive)
REMARK    1  A    between atoms: C_2  and  C_17
REMARK    2  A    between atoms: N_3  and  C_4
REMARK    3  A    between atoms: C_4  and  C_5
REMARK    4  A    between atoms: C_5  and  C_6
REMARK    5  A    between atoms: C_6  and  N_7
REMARK                            x       y       z     vdW  Elec       q    Type
REMARK                         _______ _______ _______ _____ _____    ______ ____
ROOT
ATOM      1  C   UNL     1       2.996   2.257  17.988  0.00  0.00    +0.000 C 
ENDROOT
BRANCH   1   2
ATOM      2  N   UNL     1       4.234   2.507  18.733  0.00  0.00    +0.000 N 
ATOM      3  C   UNL     1       4.900   3.645  18.424  0.00  0.00    +0.000 A 
ATOM      4  N   UNL     1       4.605   4.565  17.539  0.00  0.00    +0.000 NA
ATOM      5  C   UNL     1       5.608   5.498  17.618  0.00  0.00    +0.000 A 
ATOM      6  C   UNL     1       5.784   6.694  16.902  0.00  0.00    +0.000 A 
ATOM      7  C   UNL     1       6.903   7.488  17.187  0.00  0.00    +0.000 A 
ATOM      8  C   UNL     1       7.831   7.099  18.155  0.00  0.00    +0.000 A 
ATOM      9  C   UNL     1       7.676   5.906  18.873  0.00  0.00    +0.000 A 
ATOM     10  C   UNL     1       6.549   5.136  18.572  0.00  0.00    +0.000 A 
ATOM     11  N   UNL     1       6.086   3.940  19.062  0.00  0.00    +0.000 N 
ATOM     12  H   UNL     1       4.824   1.681  18.780  0.00  0.00    +0.000 HD
ATOM     13  H   UNL     1       6.519   3.383  19.778  0.00  0.00    +0.000 HD
ENDBRANCH   1   2
BRANCH   1  14
ATOM     14  C   UNL     1       1.893   1.737  18.922  0.00  0.00    +0.000 C 
BRANCH  14  15
ATOM     15  C   UNL     1       0.776   2.770  19.055  0.00  0.00    +0.000 C 
BRANCH  15  18
ATOM     16  O   UNL     1       1.801   4.138  21.216  0.00  0.00    +0.000 OA
ATOM     17  C   UNL     1       1.752   4.733  20.145  0.00  0.00    +0.000 C 
ATOM     18  N   UNL     1       1.242   4.144  19.006  0.00  0.00    +0.000 N 
ATOM     19  H   UNL     1       1.158   4.678  18.152  0.00  0.00    +0.000 HD
BRANCH  17  20
ATOM     20  C   UNL     1       2.231   6.176  19.984  0.00  0.00    +0.000 C 
ATOM     21  C   UNL     1       1.325   7.125  20.773  0.00  0.00    +0.000 C 
ATOM     22  C   UNL     1       1.611   8.580  20.440  0.00  0.00    +0.000 C 
ATOM     23  O   UNL     1       1.522   8.809  19.038  0.00  0.00    +0.000 OA
ATOM     24  C   UNL     1       2.479   8.049  18.304  0.00  0.00    +0.000 C 
ATOM     25  C   UNL     1       2.238   6.562  18.496  0.00  0.00    +0.000 C 
ENDBRANCH  17  20
ENDBRANCH  15  18
ENDBRANCH  14  15
ENDBRANCH   1  14
TORSDOF 5
ENDMDL
MODEL 3
REMARK VINA RESULT:      -7.5      4.426      6.429
REMARK  Name = 
REMARK  5 active torsions:
REMARK  status: ('A' for Active; 'I' for Inactive)
REMARK    1  A    between atoms: C_2  and  C_17
REMARK    2  A    between atoms: N_3  and  C_4
REMARK    3  A    between atoms: C_4  and  C_5
REMARK    4  A    between atoms: C_5  and  C_6
REMARK    5  A    between atoms: C_6  and  N_7
REMARK                            x       y       z     vdW  Elec       q    Type
REMARK                         _______ _______ _______ _____ _____    ______ ____
ROOT
ATOM      1  C   UNL     1       7.565   6.050  18.767  0.00  0.00    +0.000 C 
ENDROOT
BRANCH   1   2
ATOM      2  N   UNL     1       7.028   4.686  18.732  0.00  0.00    +0.000 N 
ATOM      3  C   UNL     1       5.725   4.544  19.073  0.00  0.00    +0.000 A 
ATOM      4  N   UNL     1       4.861   5.456  19.444  0.00  0.00    +0.000 NA
ATOM      5  C   UNL     1       3.688   4.786  19.685  0.00  0.00    +0.000 A 
ATOM      6  C   UNL     1       2.438   5.278  20.096  0.00  0.00    +0.000 A 
ATOM      7  C   UNL     1       1.380   4.373  20.257  0.00  0.00    +0.000 A 
ATOM      8  C   UNL     1       1.562   3.009  20.022  0.00  0.00    +0.000 A 
ATOM      9  C   UNL     1       2.803   2.499  19.618  0.00  0.00    +0.000 A 
ATOM     10  C   UNL     1       3.839   3.424  19.462  0.00  0.00    +0.000 A 
ATOM     11  N   UNL     1       5.153   3.291  19.089  0.00  0.00    +0.000 N 
ATOM     12  H   UNL     1       7.650   4.020  19.183  0.00  0.00    +0.000 HD
ATOM     13  H   UNL     1       5.618   2.433  18.846  0.00  0.00    +0.000 HD
ENDBRANCH   1   2
BRANCH   1  14
ATOM     14  C   UNL     1       7.487   6.703  17.379  0.00  0.00    +0.000 C 
BRANCH  14  15
ATOM     15  C   UNL     1       7.439   8.224  17.507  0.00  0.00    +0.000 C 
BRANCH  15  18
ATOM     16  O   UNL     1       8.140  10.887  17.585  0.00  0.00    +0.000 OA
ATOM     17  C   UNL     1       8.737  10.125  18.338  0.00  0.00    +0.000 C 
ATOM     18  N   UNL     1       8.472   8.771  18.367  0.00  0.00    +0.000 N 
ATOM     19  H   UNL     1       9.021   8.159  18.954  0.00  0.00    +0.000 HD
BRANCH  17  20
ATOM     20  C   UNL     1       9.830  10.605  19.293  0.00  0.00    +0.000 C 
ATOM     21  C   UNL     1       9.227  11.496  20.382  0.00  0.00    +0.000 C 
ATOM     22  C   UNL     1      10.305  12.194  21.196  0.00  0.00    +0.000 C 
ATOM     23  O   UNL     1      11.192  12.919  20.352  0.00  0.00    +0.000 OA
ATOM     24  C   UNL     1      11.885  12.070  19.440  0.00  0.00    +0.000 C 
ATOM     25  C   UNL     1      10.906  11.375  18.511  0.00  0.00    +0.000 C 
ENDBRANCH  17  20
ENDBRANCH  15  18
ENDBRANCH  14  15
ENDBRANCH   1  14
TORSDOF 5
ENDMDL
MODEL 4
REMARK VINA RESULT:      -7.5      4.723      6.745
REMARK  Name = 
REMARK  5 active torsions:
REMARK  status: ('A' for Active; 'I' for Inactive)
REMARK    1  A    between atoms: C_2  and  C_17
REMARK    2  A    between atoms: N_3  and  C_4
REMARK    3  A    between atoms: C_4  and  C_5
REMARK    4  A    between atoms: C_5  and  C_6
REMARK    5  A    between atoms: C_6  and  N_7
REMARK                            x       y       z     vdW  Elec       q    Type
REMARK                         _______ _______ _______ _____ _____    ______ ____
ROOT
ATOM      1  C   UNL     1       7.402   5.620  17.703  0.00  0.00    +0.000 C 
ENDROOT
BRANCH   1   2
ATOM      2  N   UNL     1       6.946   4.358  18.295  0.00  0.00    +0.000 N 
ATOM      3  C   UNL     1       5.609   4.148  18.306  0.00  0.00    +0.000 A 
ATOM      4  N   UNL     1       4.644   4.920  17.870  0.00  0.00    +0.000 NA
ATOM      5  C   UNL     1       3.477   4.247  18.129  0.00  0.00    +0.000 A 
ATOM      6  C   UNL     1       2.148   4.611  17.858  0.00  0.00    +0.000 A 
ATOM      7  C   UNL     1       1.123   3.725  18.215  0.00  0.00    +0.000 A 
ATOM      8  C   UNL     1       1.411   2.507  18.835  0.00  0.00    +0.000 A 
ATOM      9  C   UNL     1       2.730   2.130  19.119  0.00  0.00    +0.000 A 
ATOM     10  C   UNL     1       3.733   3.031  18.749  0.00  0.00    +0.000 A 
ATOM     11  N   UNL     1       5.100   2.998  18.868  0.00  0.00    +0.000 N 
ATOM     12  H   UNL     1       7.404   4.167  19.182  0.00  0.00    +0.000 HD
ATOM     13  H   UNL     1       5.643   2.255  19.273  0.00  0.00    +0.000 HD
ENDBRANCH   1   2
BRANCH   1  14
ATOM     14  C   UNL     1       7.846   6.606  18.793  0.00  0.00    +0.000 C 
BRANCH  14  15
ATOM     15  C   UNL     1       8.137   7.977  18.186  0.00  0.00    +0.000 C 
BRANCH  15  18
ATOM     16  O   UNL     1       8.439  10.694  17.847  0.00  0.00    +0.000 OA
ATOM     17  C   UNL     1       9.057  10.169  18.768  0.00  0.00    +0.000 C 
ATOM     18  N   UNL     1       8.986   8.814  19.014  0.00  0.00    +0.000 N 
ATOM     19  H   UNL     1       9.553   8.400  19.741  0.00  0.00    +0.000 HD
BRANCH  17  20
ATOM     20  C   UNL     1       9.966  10.965  19.705  0.00  0.00    +0.000 C 
ATOM     21  C   UNL     1       9.182  12.106  20.358  0.00  0.00    +0.000 C 
ATOM     22  C   UNL     1      10.100  13.068  21.095  0.00  0.00    +0.000 C 
ATOM     23  O   UNL     1      11.124  13.556  20.235  0.00  0.00    +0.000 OA
ATOM     24  C   UNL     1      11.965  12.512  19.750  0.00  0.00    +0.000 C 
ATOM     25  C   UNL     1      11.164  11.524  18.921  0.00  0.00    +0.000 C 
ENDBRANCH  17  20
ENDBRANCH  15  18
ENDBRANCH  14  15
ENDBRANCH   1  14
TORSDOF 5
ENDMDL
MODEL 5
REMARK VINA RESULT:      -7.4      2.503      4.696
REMARK  Name = 
REMARK  5 active torsions:
REMARK  status: ('A' for Active; 'I' for Inactive)
REMARK    1  A    between atoms: C_2  and  C_17
REMARK    2  A    between atoms: N_3  and  C_4
REMARK    3  A    between atoms: C_4  and  C_5
REMARK    4  A    between atoms: C_5  and  C_6
REMARK    5  A    between atoms: C_6  and  N_7
REMARK                            x       y       z     vdW  Elec       q    Type
REMARK                         _______ _______ _______ _____ _____    ______ ____
ROOT
ATOM      1  C   UNL     1       2.728   2.793  21.105  0.00  0.00    +0.000 C 
ENDROOT
BRANCH   1   2
ATOM      2  N   UNL     1       2.039   4.018  21.524  0.00  0.00    +0.000 N 
ATOM      3  C   UNL     1       2.151   5.083  20.696  0.00  0.00    +0.000 A 
ATOM      4  N   UNL     1       2.802   5.189  19.564  0.00  0.00    +0.000 NA
ATOM      5  C   UNL     1       2.603   6.477  19.135  0.00  0.00    +0.000 A 
ATOM      6  C   UNL     1       3.066   7.122  17.976  0.00  0.00    +0.000 A 
ATOM      7  C   UNL     1       2.703   8.459  17.762  0.00  0.00    +0.000 A 
ATOM      8  C   UNL     1       1.906   9.142  18.682  0.00  0.00    +0.000 A 
ATOM      9  C   UNL     1       1.442   8.518  19.847  0.00  0.00    +0.000 A 
ATOM     10  C   UNL     1       1.815   7.184  20.034  0.00  0.00    +0.000 A 
ATOM     11  N   UNL     1       1.553   6.278  21.032  0.00  0.00    +0.000 N 
ATOM     12  H   UNL     1       2.207   4.233  22.503  0.00  0.00    +0.000 HD
ATOM     13  H   UNL     1       1.002   6.445  21.856  0.00  0.00    +0.000 HD
ENDBRANCH   1   2
BRANCH   1  14
ATOM     14  C   UNL     1       2.185   2.295  19.758  0.00  0.00    +0.000 C 
BRANCH  14  15
ATOM     15  C   UNL     1       3.292   1.617  18.953  0.00  0.00    +0.000 C 
BRANCH  15  18
ATOM     16  O   UNL     1       2.873   3.289  16.804  0.00  0.00    +0.000 OA
ATOM     17  C   UNL     1       3.967   3.345  17.357  0.00  0.00    +0.000 C 
ATOM     18  N   UNL     1       4.284   2.540  18.432  0.00  0.00    +0.000 N 
ATOM     19  H   UNL     1       5.212   2.566  18.829  0.00  0.00    +0.000 HD
BRANCH  17  20
ATOM     20  C   UNL     1       5.073   4.295  16.894  0.00  0.00    +0.000 C 
ATOM     21  C   UNL     1       5.777   3.724  15.660  0.00  0.00    +0.000 C 
ATOM     22  C   UNL     1       7.036   4.505  15.322  0.00  0.00    +0.000 C 
ATOM     23  O   UNL     1       7.910   4.574  16.443  0.00  0.00    +0.000 OA
ATOM     24  C   UNL     1       7.319   5.253  17.548  0.00  0.00    +0.000 C 
ATOM     25  C   UNL     1       6.084   4.512  18.031  0.00  0.00    +0.000 C 
ENDBRANCH  17  20
ENDBRANCH  15  18
ENDBRANCH  14  15
ENDBRANCH   1  14
TORSDOF 5
ENDMDL
MODEL 6
REMARK VINA RESULT:      -7.2      4.812      6.458
REMARK  Name = 
REMARK  5 active torsions:
REMARK  status: ('A' for Active; 'I' for Inactive)
REMARK    1  A    between atoms: C_2  and  C_17
REMARK    2  A    between atoms: N_3  and  C_4
REMARK    3  A    between atoms: C_4  and  C_5
REMARK    4  A    between atoms: C_5  and  C_6
REMARK    5  A    between atoms: C_6  and  N_7
REMARK                            x       y       z     vdW  Elec       q    Type
REMARK                         _______ _______ _______ _____ _____    ______ ____
ROOT
ATOM      1  C   UNL     1       7.394   5.800  18.315  0.00  0.00    +0.000 C 
ENDROOT
BRANCH   1   2
ATOM      2  N   UNL     1       6.636   4.867  17.473  0.00  0.00    +0.000 N 
ATOM      3  C   UNL     1       5.480   4.391  17.995  0.00  0.00    +0.000 A 
ATOM      4  N   UNL     1       4.935   4.634  19.161  0.00  0.00    +0.000 NA
ATOM      5  C   UNL     1       3.779   3.895  19.197  0.00  0.00    +0.000 A 
ATOM      6  C   UNL     1       2.807   3.791  20.205  0.00  0.00    +0.000 A 
ATOM      7  C   UNL     1       1.696   2.966  19.984  0.00  0.00    +0.000 A 
ATOM      8  C   UNL     1       1.557   2.254  18.791  0.00  0.00    +0.000 A 
ATOM      9  C   UNL     1       2.520   2.340  17.777  0.00  0.00    +0.000 A 
ATOM     10  C   UNL     1       3.616   3.172  18.023  0.00  0.00    +0.000 A 
ATOM     11  N   UNL     1       4.723   3.491  17.277  0.00  0.00    +0.000 N 
ATOM     12  H   UNL     1       7.232   4.154  17.064  0.00  0.00    +0.000 HD
ATOM     13  H   UNL     1       4.939   3.149  16.357  0.00  0.00    +0.000 HD
ENDBRANCH   1   2
BRANCH   1  14
ATOM     14  C   UNL     1       7.610   7.136  17.590  0.00  0.00    +0.000 C 
BRANCH  14  15
ATOM     15  C   UNL     1       8.294   8.140  18.515  0.00  0.00    +0.000 C 
BRANCH  15  18
ATOM     16  O   UNL     1       9.401  10.298  19.822  0.00  0.00    +0.000 OA
ATOM     17  C   UNL     1       9.112  10.444  18.639  0.00  0.00    +0.000 C 
ATOM     18  N   UNL     1       8.539   9.431  17.898  0.00  0.00    +0.000 N 
ATOM     19  H   UNL     1       8.256   9.599  16.943  0.00  0.00    +0.000 HD
BRANCH  17  20
ATOM     20  C   UNL     1       9.344  11.758  17.894  0.00  0.00    +0.000 C 
ATOM     21  C   UNL     1      10.834  11.941  17.596  0.00  0.00    +0.000 C 
ATOM     22  C   UNL     1      11.137  13.341  17.086  0.00  0.00    +0.000 C 
ATOM     23  O   UNL     1      10.655  14.329  17.990  0.00  0.00    +0.000 OA
ATOM     24  C   UNL     1       9.239  14.272  18.147  0.00  0.00    +0.000 C 
ATOM     25  C   UNL     1       8.821  12.934  18.734  0.00  0.00    +0.000 C 
ENDBRANCH  17  20
ENDBRANCH  15  18
ENDBRANCH  14  15
ENDBRANCH   1  14
TORSDOF 5
ENDMDL
MODEL 7
REMARK VINA RESULT:      -7.2      0.807      1.317
REMARK  Name = 
REMARK  5 active torsions:
REMARK  status: ('A' for Active; 'I' for Inactive)
REMARK    1  A    between atoms: C_2  and  C_17
REMARK    2  A    between atoms: N_3  and  C_4
REMARK    3  A    between atoms: C_4  and  C_5
REMARK    4  A    between atoms: C_5  and  C_6
REMARK    5  A    between atoms: C_6  and  N_7
REMARK                            x       y       z     vdW  Elec       q    Type
REMARK                         _______ _______ _______ _____ _____    ______ ____
ROOT
ATOM      1  C   UNL     1       6.899   5.993  19.485  0.00  0.00    +0.000 C 
ENDROOT
BRANCH   1   2
ATOM      2  N   UNL     1       6.612   4.575  19.244  0.00  0.00    +0.000 N 
ATOM      3  C   UNL     1       5.304   4.224  19.213  0.00  0.00    +0.000 A 
ATOM      4  N   UNL     1       4.241   4.971  19.378  0.00  0.00    +0.000 NA
ATOM      5  C   UNL     1       3.166   4.125  19.261  0.00  0.00    +0.000 A 
ATOM      6  C   UNL     1       1.791   4.401  19.342  0.00  0.00    +0.000 A 
ATOM      7  C   UNL     1       0.884   3.346  19.169  0.00  0.00    +0.000 A 
ATOM      8  C   UNL     1       1.333   2.046  18.930  0.00  0.00    +0.000 A 
ATOM      9  C   UNL     1       2.701   1.752  18.854  0.00  0.00    +0.000 A 
ATOM     10  C   UNL     1       3.583   2.822  19.026  0.00  0.00    +0.000 A 
ATOM     11  N   UNL     1       4.953   2.906  19.016  0.00  0.00    +0.000 N 
ATOM     12  H   UNL     1       7.192   3.967  19.815  0.00  0.00    +0.000 HD
ATOM     13  H   UNL     1       5.594   2.146  18.869  0.00  0.00    +0.000 HD
ENDBRANCH   1   2
BRANCH   1  14
ATOM     14  C   UNL     1       8.020   6.487  18.560  0.00  0.00    +0.000 C 
BRANCH  14  15
ATOM     15  C   UNL     1       7.440   6.994  17.241  0.00  0.00    +0.000 C 
BRANCH  15  18
ATOM     16  O   UNL     1       5.306   5.655  16.127  0.00  0.00    +0.000 OA
ATOM     17  C   UNL     1       6.417   5.437  15.655  0.00  0.00    +0.000 C 
ATOM     18  N   UNL     1       7.553   6.044  16.150  0.00  0.00    +0.000 N 
ATOM     19  H   UNL     1       8.461   5.799  15.782  0.00  0.00    +0.000 HD
BRANCH  17  20
ATOM     20  C   UNL     1       6.640   4.465  14.495  0.00  0.00    +0.000 C 
ATOM     21  C   UNL     1       7.482   5.130  13.403  0.00  0.00    +0.000 C 
ATOM     22  C   UNL     1       7.513   4.295  12.133  0.00  0.00    +0.000 C 
ATOM     23  O   UNL     1       6.195   4.006  11.680  0.00  0.00    +0.000 OA
ATOM     24  C   UNL     1       5.454   3.241  12.628  0.00  0.00    +0.000 C 
ATOM     25  C   UNL     1       5.286   4.016  13.923  0.00  0.00    +0.000 C 
ENDBRANCH  17  20
ENDBRANCH  15  18
ENDBRANCH  14  15
ENDBRANCH   1  14
TORSDOF 5
ENDMDL
MODEL 8
REMARK VINA RESULT:      -7.1      1.562      2.001
REMARK  Name = 
REMARK  5 active torsions:
REMARK  status: ('A' for Active; 'I' for Inactive)
REMARK    1  A    between atoms: C_2  and  C_17
REMARK    2  A    between atoms: N_3  and  C_4
REMARK    3  A    between atoms: C_4  and  C_5
REMARK    4  A    between atoms: C_5  and  C_6
REMARK    5  A    between atoms: C_6  and  N_7
REMARK                            x       y       z     vdW  Elec       q    Type
REMARK                         _______ _______ _______ _____ _____    ______ ____
ROOT
ATOM      1  C   UNL     1       6.950   5.556  17.951  0.00  0.00    +0.000 C 
ENDROOT
BRANCH   1   2
ATOM      2  N   UNL     1       6.520   4.251  18.464  0.00  0.00    +0.000 N 
ATOM      3  C   UNL     1       5.267   4.190  18.974  0.00  0.00    +0.000 A 
ATOM      4  N   UNL     1       4.371   5.138  19.089  0.00  0.00    +0.000 NA
ATOM      5  C   UNL     1       3.279   4.555  19.680  0.00  0.00    +0.000 A 
ATOM      6  C   UNL     1       2.036   5.111  20.025  0.00  0.00    +0.000 A 
ATOM      7  C   UNL     1       1.070   4.284  20.613  0.00  0.00    +0.000 A 
ATOM      8  C   UNL     1       1.335   2.936  20.861  0.00  0.00    +0.000 A 
ATOM      9  C   UNL     1       2.572   2.365  20.530  0.00  0.00    +0.000 A 
ATOM     10  C   UNL     1       3.515   3.212  19.942  0.00  0.00    +0.000 A 
ATOM     11  N   UNL     1       4.797   3.005  19.498  0.00  0.00    +0.000 N 
ATOM     12  H   UNL     1       7.229   3.820  19.051  0.00  0.00    +0.000 HD
ATOM     13  H   UNL     1       5.304   2.137  19.527  0.00  0.00    +0.000 HD
ENDBRANCH   1   2
BRANCH   1  14
ATOM     14  C   UNL     1       6.487   5.752  16.500  0.00  0.00    +0.000 C 
BRANCH  14  15
ATOM     15  C   UNL     1       7.526   5.195  15.529  0.00  0.00    +0.000 C 
BRANCH  15  18
ATOM     16  O   UNL     1       8.195   5.663  12.898  0.00  0.00    +0.000 OA
ATOM     17  C   UNL     1       7.365   4.788  13.121  0.00  0.00    +0.000 C 
ATOM     18  N   UNL     1       6.950   4.485  14.401  0.00  0.00    +0.000 N 
ATOM     19  H   UNL     1       6.220   3.802  14.550  0.00  0.00    +0.000 HD
BRANCH  17  20
ATOM     20  C   UNL     1       6.710   3.974  12.004  0.00  0.00    +0.000 C 
ATOM     21  C   UNL     1       5.263   3.639  12.373  0.00  0.00    +0.000 C 
ATOM     22  C   UNL     1       4.660   2.625  11.414  0.00  0.00    +0.000 C 
ATOM     23  O   UNL     1       5.468   1.455  11.334  0.00  0.00    +0.000 OA
ATOM     24  C   UNL     1       6.773   1.734  10.833  0.00  0.00    +0.000 C 
ATOM     25  C   UNL     1       7.510   2.683  11.762  0.00  0.00    +0.000 C 
ENDBRANCH  17  20
ENDBRANCH  15  18
ENDBRANCH  14  15
ENDBRANCH   1  14
TORSDOF 5
ENDMDL
MODEL 9
REMARK VINA RESULT:      -7.1      2.913      6.656
REMARK  Name = 
REMARK  5 active torsions:
REMARK  status: ('A' for Active; 'I' for Inactive)
REMARK    1  A    between atoms: C_2  and  C_17
REMARK    2  A    between atoms: N_3  and  C_4
REMARK    3  A    between atoms: C_4  and  C_5
REMARK    4  A    between atoms: C_5  and  C_6
REMARK    5  A    between atoms: C_6  and  N_7
REMARK                            x       y       z     vdW  Elec       q    Type
REMARK                         _______ _______ _______ _____ _____    ______ ____
ROOT
ATOM      1  C   UNL     1       3.375   2.564  21.064  0.00  0.00    +0.000 C 
ENDROOT
BRANCH   1   2
ATOM      2  N   UNL     1       3.416   2.331  19.617  0.00  0.00    +0.000 N 
ATOM      3  C   UNL     1       4.279   3.098  18.910  0.00  0.00    +0.000 A 
ATOM      4  N   UNL     1       5.090   4.038  19.330  0.00  0.00    +0.000 NA
ATOM      5  C   UNL     1       5.733   4.506  18.212  0.00  0.00    +0.000 A 
ATOM      6  C   UNL     1       6.712   5.506  18.089  0.00  0.00    +0.000 A 
ATOM      7  C   UNL     1       7.227   5.789  16.816  0.00  0.00    +0.000 A 
ATOM      8  C   UNL     1       6.774   5.099  15.690  0.00  0.00    +0.000 A 
ATOM      9  C   UNL     1       5.793   4.104  15.793  0.00  0.00    +0.000 A 
ATOM     10  C   UNL     1       5.300   3.840  17.073  0.00  0.00    +0.000 A 
ATOM     11  N   UNL     1       4.358   2.957  17.541  0.00  0.00    +0.000 N 
ATOM     12  H   UNL     1       2.485   2.275  19.214  0.00  0.00    +0.000 HD
ATOM     13  H   UNL     1       3.831   2.303  16.989  0.00  0.00    +0.000 HD
ENDBRANCH   1   2
BRANCH   1  14
ATOM     14  C   UNL     1       1.945   2.875  21.528  0.00  0.00    +0.000 C 
BRANCH  14  15
ATOM     15  C   UNL     1       1.201   3.676  20.462  0.00  0.00    +0.000 C 
BRANCH  15  18
ATOM     16  O   UNL     1       2.144   5.124  18.316  0.00  0.00    +0.000 OA
ATOM     17  C   UNL     1       1.941   5.733  19.361  0.00  0.00    +0.000 C 
ATOM     18  N   UNL     1       1.484   5.099  20.498  0.00  0.00    +0.000 N 
ATOM     19  H   UNL     1       1.384   5.615  21.361  0.00  0.00    +0.000 HD
BRANCH  17  20
ATOM     20  C   UNL     1       2.193   7.235  19.497  0.00  0.00    +0.000 C 
ATOM     21  C   UNL     1       1.350   7.811  20.637  0.00  0.00    +0.000 C 
ATOM     22  C   UNL     1       1.378   9.331  20.643  0.00  0.00    +0.000 C 
ATOM     23  O   UNL     1       0.983   9.853  19.379  0.00  0.00    +0.000 OA
ATOM     24  C   UNL     1       1.863   9.454  18.331  0.00  0.00    +0.000 C 
ATOM     25  C   UNL     1       1.855   7.943  18.175  0.00  0.00    +0.000 C 
ENDBRANCH  17  20
ENDBRANCH  15  18
ENDBRANCH  14  15
ENDBRANCH   1  14
TORSDOF 5
ENDMDL
