MODEL 1
REMARK VINA RESULT:      -7.1      0.000      0.000
REMARK  Name = 
REMARK  7 active torsions:
REMARK  status: ('A' for Active; 'I' for Inactive)
REMARK    1  A    between atoms: C_1  and  C_2
REMARK    2  A    between atoms: C_2  and  N_3
REMARK    3  A    between atoms: N_3  and  C_4
REMARK    4  A    between atoms: C_4  and  C_5
REMARK    5  A    between atoms: C_6  and  C_8
REMARK    6  A    between atoms: C_10  and  S_11
REMARK    7  A    between atoms: S_11  and  N_14
REMARK                            x       y       z     vdW  Elec       q    Type
REMARK                         _______ _______ _______ _____ _____    ______ ____
ROOT
ATOM      1  C   UNL     1       3.683   5.406  18.416  0.00  0.00    +0.000 A 
ATOM      2  C   UNL     1       4.763   4.786  17.801  0.00  0.00    +0.000 A 
ATOM      3  C   UNL     1       5.417   5.752  16.996  0.00  0.00    +0.000 A 
ATOM      4  C   UNL     1       4.591   6.852  16.934  0.00  0.00    +0.000 A 
ATOM      5  N   UNL     1       3.505   6.597  17.735  0.00  0.00    +0.000 N 
ATOM      6  H   UNL     1       2.723   7.222  17.899  0.00  0.00    +0.000 HD
ENDROOT
BRANCH   1   8
ATOM      7  N   UNL     1       1.887   3.953  19.298  0.00  0.00    +0.000 N 
ATOM      8  C   UNL     1       2.801   5.008  19.505  0.00  0.00    +0.000 C 
ATOM      9  O   UNL     1       2.903   5.554  20.602  0.00  0.00    +0.000 OA
BRANCH   7  11
ATOM     10  C   UNL     1       1.302   2.767  21.411  0.00  0.00    +0.000 C 
ATOM     11  C   UNL     1       0.865   3.744  20.328  0.00  0.00    +0.000 C 
ENDBRANCH   7  11
BRANCH   7  12
ATOM     12  C   UNL     1       1.798   3.189  18.051  0.00  0.00    +0.000 C 
ATOM     13  C   UNL     1       2.424   1.807  18.015  0.00  0.00    +0.000 C 
ENDBRANCH   7  12
ENDBRANCH   1   8
BRANCH   3  14
ATOM     14  S   UNL     1       7.001   5.550  16.308  0.00  0.00    +0.000 S 
ATOM     15  O   UNL     1       7.602   6.861  16.413  0.00  0.00    +0.000 OA
ATOM     16  O   UNL     1       7.542   4.396  16.989  0.00  0.00    +0.000 OA
BRANCH  14  17
ATOM     17  N   UNL     1       6.807   5.174  14.639  0.00  0.00    +0.000 NA
ATOM     18  C   UNL     1       8.009   5.436  13.809  0.00  0.00    +0.000 C 
ATOM     19  C   UNL     1       7.688   5.282  12.324  0.00  0.00    +0.000 C 
ATOM     20  C   UNL     1       7.091   3.913  12.029  0.00  0.00    +0.000 C 
ATOM     21  C   UNL     1       5.848   3.701  12.882  0.00  0.00    +0.000 C 
ATOM     22  C   UNL     1       6.159   3.864  14.368  0.00  0.00    +0.000 C 
ENDBRANCH  14  17
ENDBRANCH   3  14
TORSDOF 5
ENDMDL
MODEL 2
REMARK VINA RESULT:      -7.1      1.263      1.375
REMARK  Name = 
REMARK  7 active torsions:
REMARK  status: ('A' for Active; 'I' for Inactive)
REMARK    1  A    between atoms: C_1  and  C_2
REMARK    2  A    between atoms: C_2  and  N_3
REMARK    3  A    between atoms: N_3  and  C_4
REMARK    4  A    between atoms: C_4  and  C_5
REMARK    5  A    between atoms: C_6  and  C_8
REMARK    6  A    between atoms: C_10  and  S_11
REMARK    7  A    between atoms: S_11  and  N_14
REMARK                            x       y       z     vdW  Elec       q    Type
REMARK                         _______ _______ _______ _____ _____    ______ ____
ROOT
ATOM      1  C   UNL     1       3.330   4.853  17.635  0.00  0.00    +0.000 A 
ATOM      2  C   UNL     1       4.360   4.457  16.794  0.00  0.00    +0.000 A 
ATOM      3  C   UNL     1       5.297   5.519  16.724  0.00  0.00    +0.000 A 
ATOM      4  C   UNL     1       4.704   6.617  17.305  0.00  0.00    +0.000 A 
ATOM      5  N   UNL     1       3.479   6.221  17.782  0.00  0.00    +0.000 N 
ATOM      6  H   UNL     1       2.808   6.807  18.268  0.00  0.00    +0.000 HD
ENDROOT
BRANCH   1   8
ATOM      7  N   UNL     1       2.463   3.453  19.480  0.00  0.00    +0.000 N 
ATOM      8  C   UNL     1       2.232   4.132  18.265  0.00  0.00    +0.000 C 
ATOM      9  O   UNL     1       1.110   4.174  17.765  0.00  0.00    +0.000 OA
BRANCH   7  11
ATOM     10  C   UNL     1       1.210   2.609  21.463  0.00  0.00    +0.000 C 
ATOM     11  C   UNL     1       1.407   2.554  19.954  0.00  0.00    +0.000 C 
ENDBRANCH   7  11
BRANCH   7  12
ATOM     12  C   UNL     1       3.749   3.463  20.183  0.00  0.00    +0.000 C 
ATOM     13  C   UNL     1       4.608   2.213  20.116  0.00  0.00    +0.000 C 
ENDBRANCH   7  12
ENDBRANCH   1   8
BRANCH   3  14
ATOM     14  S   UNL     1       6.905   5.373  16.079  0.00  0.00    +0.000 S 
ATOM     15  O   UNL     1       7.473   6.692  16.243  0.00  0.00    +0.000 OA
ATOM     16  O   UNL     1       7.451   4.209  16.740  0.00  0.00    +0.000 OA
BRANCH  14  17
ATOM     17  N   UNL     1       6.769   5.045  14.394  0.00  0.00    +0.000 NA
ATOM     18  C   UNL     1       7.962   5.431  13.598  0.00  0.00    +0.000 C 
ATOM     19  C   UNL     1       7.679   5.308  12.103  0.00  0.00    +0.000 C 
ATOM     20  C   UNL     1       7.196   3.909  11.747  0.00  0.00    +0.000 C 
ATOM     21  C   UNL     1       5.958   3.570  12.566  0.00  0.00    +0.000 C 
ATOM     22  C   UNL     1       6.230   3.700  14.064  0.00  0.00    +0.000 C 
ENDBRANCH  14  17
ENDBRANCH   3  14
TORSDOF 5
ENDMDL
MODEL 3
REMARK VINA RESULT:      -6.7      1.605      2.189
REMARK  Name = 
REMARK  7 active torsions:
REMARK  status: ('A' for Active; 'I' for Inactive)
REMARK    1  A    between atoms: C_1  and  C_2
REMARK    2  A    between atoms: C_2  and  N_3
REMARK    3  A    between atoms: N_3  and  C_4
REMARK    4  A    between atoms: C_4  and  C_5
REMARK    5  A    between atoms: C_6  and  C_8
REMARK    6  A    between atoms: C_10  and  S_11
REMARK    7  A    between atoms: S_11  and  N_14
REMARK                            x       y       z     vdW  Elec       q    Type
REMARK                         _______ _______ _______ _____ _____    ______ ____
ROOT
ATOM      1  C   UNL     1       4.053   3.911  18.063  0.00  0.00    +0.000 A 
ATOM      2  C   UNL     1       4.236   5.067  17.318  0.00  0.00    +0.000 A 
ATOM      3  C   UNL     1       5.599   5.126  16.934  0.00  0.00    +0.000 A 
ATOM      4  C   UNL     1       6.262   4.159  17.655  0.00  0.00    +0.000 A 
ATOM      5  N   UNL     1       5.326   3.482  18.396  0.00  0.00    +0.000 N 
ATOM      6  H   UNL     1       5.506   2.707  19.026  0.00  0.00    +0.000 HD
ENDROOT
BRANCH   1   8
ATOM      7  N   UNL     1       2.211   3.645  19.691  0.00  0.00    +0.000 N 
ATOM      8  C   UNL     1       2.864   3.204  18.521  0.00  0.00    +0.000 C 
ATOM      9  O   UNL     1       2.414   2.275  17.854  0.00  0.00    +0.000 OA
BRANCH   7  11
ATOM     10  C   UNL     1       1.349   2.502  21.732  0.00  0.00    +0.000 C 
ATOM     11  C   UNL     1       1.170   2.773  20.244  0.00  0.00    +0.000 C 
ENDBRANCH   7  11
BRANCH   7  12
ATOM     12  C   UNL     1       2.633   4.817  20.464  0.00  0.00    +0.000 C 
ATOM     13  C   UNL     1       1.795   6.078  20.362  0.00  0.00    +0.000 C 
ENDBRANCH   7  12
ENDBRANCH   1   8
BRANCH   3  14
ATOM     14  S   UNL     1       6.234   6.194  15.718  0.00  0.00    +0.000 S 
ATOM     15  O   UNL     1       5.263   7.263  15.644  0.00  0.00    +0.000 OA
ATOM     16  O   UNL     1       7.603   6.421  16.121  0.00  0.00    +0.000 OA
BRANCH  14  17
ATOM     17  N   UNL     1       6.226   5.349  14.218  0.00  0.00    +0.000 NA
ATOM     18  C   UNL     1       7.568   5.166  13.612  0.00  0.00    +0.000 C 
ATOM     19  C   UNL     1       7.453   4.605  12.197  0.00  0.00    +0.000 C 
ATOM     20  C   UNL     1       6.650   3.312  12.180  0.00  0.00    +0.000 C 
ATOM     21  C   UNL     1       5.274   3.555  12.785  0.00  0.00    +0.000 C 
ATOM     22  C   UNL     1       5.381   4.126  14.198  0.00  0.00    +0.000 C 
ENDBRANCH  14  17
ENDBRANCH   3  14
TORSDOF 5
ENDMDL
MODEL 4
REMARK VINA RESULT:      -6.7      0.442      1.171
REMARK  Name = 
REMARK  7 active torsions:
REMARK  status: ('A' for Active; 'I' for Inactive)
REMARK    1  A    between atoms: C_1  and  C_2
REMARK    2  A    between atoms: C_2  and  N_3
REMARK    3  A    between atoms: N_3  and  C_4
REMARK    4  A    between atoms: C_4  and  C_5
REMARK    5  A    between atoms: C_6  and  C_8
REMARK    6  A    between atoms: C_10  and  S_11
REMARK    7  A    between atoms: S_11  and  N_14
REMARK                            x       y       z     vdW  Elec       q    Type
REMARK                         _______ _______ _______ _____ _____    ______ ____
ROOT
ATOM      1  C   UNL     1       3.818   5.198  18.384  0.00  0.00    +0.000 A 
ATOM      2  C   UNL     1       4.989   4.613  17.925  0.00  0.00    +0.000 A 
ATOM      3  C   UNL     1       5.610   5.524  17.034  0.00  0.00    +0.000 A 
ATOM      4  C   UNL     1       4.695   6.519  16.773  0.00  0.00    +0.000 A 
ATOM      5  N   UNL     1       3.582   6.266  17.536  0.00  0.00    +0.000 N 
ATOM      6  H   UNL     1       2.737   6.827  17.566  0.00  0.00    +0.000 HD
ENDROOT
BRANCH   1   8
ATOM      7  N   UNL     1       2.122   3.689  19.365  0.00  0.00    +0.000 N 
ATOM      8  C   UNL     1       2.899   4.863  19.464  0.00  0.00    +0.000 C 
ATOM      9  O   UNL     1       2.855   5.571  20.468  0.00  0.00    +0.000 OA
BRANCH   7  11
ATOM     10  C   UNL     1       1.464   2.654  21.535  0.00  0.00    +0.000 C 
ATOM     11  C   UNL     1       1.050   3.514  20.349  0.00  0.00    +0.000 C 
ENDBRANCH   7  11
BRANCH   7  12
ATOM     12  C   UNL     1       2.214   2.747  18.247  0.00  0.00    +0.000 C 
ATOM     13  C   UNL     1       3.149   1.560  18.390  0.00  0.00    +0.000 C 
ENDBRANCH   7  12
ENDBRANCH   1   8
BRANCH   3  14
ATOM     14  S   UNL     1       7.251   5.390  16.474  0.00  0.00    +0.000 S 
ATOM     15  O   UNL     1       7.704   6.759  16.375  0.00  0.00    +0.000 OA
ATOM     16  O   UNL     1       7.860   4.439  17.376  0.00  0.00    +0.000 OA
BRANCH  14  17
ATOM     17  N   UNL     1       7.214   4.714  14.891  0.00  0.00    +0.000 NA
ATOM     18  C   UNL     1       5.962   3.987  14.565  0.00  0.00    +0.000 C 
ATOM     19  C   UNL     1       6.096   3.243  13.239  0.00  0.00    +0.000 C 
ATOM     20  C   UNL     1       6.504   4.187  12.117  0.00  0.00    +0.000 C 
ATOM     21  C   UNL     1       7.805   4.888  12.483  0.00  0.00    +0.000 C 
ATOM     22  C   UNL     1       7.682   5.626  13.815  0.00  0.00    +0.000 C 
ENDBRANCH  14  17
ENDBRANCH   3  14
TORSDOF 5
ENDMDL
MODEL 5
REMARK VINA RESULT:      -6.5      2.057      7.098
REMARK  Name = 
REMARK  7 active torsions:
REMARK  status: ('A' for Active; 'I' for Inactive)
REMARK    1  A    between atoms: C_1  and  C_2
REMARK    2  A    between atoms: C_2  and  N_3
REMARK    3  A    between atoms: N_3  and  C_4
REMARK    4  A    between atoms: C_4  and  C_5
REMARK    5  A    between atoms: C_6  and  C_8
REMARK    6  A    between atoms: C_10  and  S_11
REMARK    7  A    between atoms: S_11  and  N_14
REMARK                            x       y       z     vdW  Elec       q    Type
REMARK                         _______ _______ _______ _____ _____    ______ ____
ROOT
ATOM      1  C   UNL     1       6.287   4.934  15.121  0.00  0.00    +0.000 A 
ATOM      2  C   UNL     1       6.256   4.142  16.260  0.00  0.00    +0.000 A 
ATOM      3  C   UNL     1       5.155   4.558  17.049  0.00  0.00    +0.000 A 
ATOM      4  C   UNL     1       4.699   5.741  16.513  0.00  0.00    +0.000 A 
ATOM      5  N   UNL     1       5.446   6.000  15.390  0.00  0.00    +0.000 N 
ATOM      6  H   UNL     1       5.343   6.799  14.774  0.00  0.00    +0.000 HD
ENDROOT
BRANCH   1   8
ATOM      7  N   UNL     1       6.483   4.058  12.817  0.00  0.00    +0.000 N 
ATOM      8  C   UNL     1       7.018   4.837  13.865  0.00  0.00    +0.000 C 
ATOM      9  O   UNL     1       8.056   5.478  13.713  0.00  0.00    +0.000 OA
BRANCH   7  11
ATOM     10  C   UNL     1       7.457   2.316  11.323  0.00  0.00    +0.000 C 
ATOM     11  C   UNL     1       7.354   3.796  11.668  0.00  0.00    +0.000 C 
ENDBRANCH   7  11
BRANCH   7  12
ATOM     12  C   UNL     1       5.195   3.364  12.897  0.00  0.00    +0.000 C 
ATOM     13  C   UNL     1       4.278   3.421  11.689  0.00  0.00    +0.000 C 
ENDBRANCH   7  12
ENDBRANCH   1   8
BRANCH   3  14
ATOM     14  S   UNL     1       4.506   3.655  18.386  0.00  0.00    +0.000 S 
ATOM     15  O   UNL     1       3.974   2.456  17.779  0.00  0.00    +0.000 OA
ATOM     16  O   UNL     1       5.582   3.621  19.351  0.00  0.00    +0.000 OA
BRANCH  14  17
ATOM     17  N   UNL     1       3.195   4.557  19.044  0.00  0.00    +0.000 NA
ATOM     18  C   UNL     1       2.408   3.832  20.072  0.00  0.00    +0.000 C 
ATOM     19  C   UNL     1       1.150   4.613  20.443  0.00  0.00    +0.000 C 
ATOM     20  C   UNL     1       1.491   6.025  20.895  0.00  0.00    +0.000 C 
ATOM     21  C   UNL     1       2.273   6.739  19.800  0.00  0.00    +0.000 C 
ATOM     22  C   UNL     1       3.528   5.958  19.415  0.00  0.00    +0.000 C 
ENDBRANCH  14  17
ENDBRANCH   3  14
TORSDOF 5
ENDMDL
MODEL 6
REMARK VINA RESULT:      -6.5      1.849      6.998
REMARK  Name = 
REMARK  7 active torsions:
REMARK  status: ('A' for Active; 'I' for Inactive)
REMARK    1  A    between atoms: C_1  and  C_2
REMARK    2  A    between atoms: C_2  and  N_3
REMARK    3  A    between atoms: N_3  and  C_4
REMARK    4  A    between atoms: C_4  and  C_5
REMARK    5  A    between atoms: C_6  and  C_8
REMARK    6  A    between atoms: C_10  and  S_11
REMARK    7  A    between atoms: S_11  and  N_14
REMARK                            x       y       z     vdW  Elec       q    Type
REMARK                         _______ _______ _______ _____ _____    ______ ____
ROOT
ATOM      1  C   UNL     1       5.946   4.541  15.261  0.00  0.00    +0.000 A 
ATOM      2  C   UNL     1       5.040   5.414  15.847  0.00  0.00    +0.000 A 
ATOM      3  C   UNL     1       4.790   4.960  17.166  0.00  0.00    +0.000 A 
ATOM      4  C   UNL     1       5.338   3.701  17.269  0.00  0.00    +0.000 A 
ATOM      5  N   UNL     1       5.966   3.426  16.080  0.00  0.00    +0.000 N 
ATOM      6  H   UNL     1       6.469   2.574  15.852  0.00  0.00    +0.000 HD
ENDROOT
BRANCH   1   8
ATOM      7  N   UNL     1       6.236   4.021  12.861  0.00  0.00    +0.000 N 
ATOM      8  C   UNL     1       6.740   4.607  14.041  0.00  0.00    +0.000 C 
ATOM      9  O   UNL     1       7.805   5.221  14.041  0.00  0.00    +0.000 OA
BRANCH   7  11
ATOM     10  C   UNL     1       7.488   2.457  11.377  0.00  0.00    +0.000 C 
ATOM     11  C   UNL     1       7.158   3.902  11.728  0.00  0.00    +0.000 C 
ENDBRANCH   7  11
BRANCH   7  12
ATOM     12  C   UNL     1       4.923   3.376  12.772  0.00  0.00    +0.000 C 
ATOM     13  C   UNL     1       4.215   3.385  11.429  0.00  0.00    +0.000 C 
ENDBRANCH   7  12
ENDBRANCH   1   8
BRANCH   3  14
ATOM     14  S   UNL     1       3.999   5.899  18.397  0.00  0.00    +0.000 S 
ATOM     15  O   UNL     1       4.960   5.948  19.477  0.00  0.00    +0.000 OA
ATOM     16  O   UNL     1       3.552   7.088  17.708  0.00  0.00    +0.000 OA
BRANCH  14  17
ATOM     17  N   UNL     1       2.624   5.014  18.935  0.00  0.00    +0.000 NA
ATOM     18  C   UNL     1       2.197   3.930  18.015  0.00  0.00    +0.000 C 
ATOM     19  C   UNL     1       0.858   3.342  18.454  0.00  0.00    +0.000 C 
ATOM     20  C   UNL     1       0.914   2.862  19.897  0.00  0.00    +0.000 C 
ATOM     21  C   UNL     1       1.329   4.012  20.805  0.00  0.00    +0.000 C 
ATOM     22  C   UNL     1       2.663   4.613  20.366  0.00  0.00    +0.000 C 
ENDBRANCH  14  17
ENDBRANCH   3  14
TORSDOF 5
ENDMDL
MODEL 7
REMARK VINA RESULT:      -6.5      1.947      6.818
REMARK  Name = 
REMARK  7 active torsions:
REMARK  status: ('A' for Active; 'I' for Inactive)
REMARK    1  A    between atoms: C_1  and  C_2
REMARK    2  A    between atoms: C_2  and  N_3
REMARK    3  A    between atoms: N_3  and  C_4
REMARK    4  A    between atoms: C_4  and  C_5
REMARK    5  A    between atoms: C_6  and  C_8
REMARK    6  A    between atoms: C_10  and  S_11
REMARK    7  A    between atoms: S_11  and  N_14
REMARK                            x       y       z     vdW  Elec       q    Type
REMARK                         _______ _______ _______ _____ _____    ______ ____
ROOT
ATOM      1  C   UNL     1       6.856   4.790  15.204  0.00  0.00    +0.000 A 
ATOM      2  C   UNL     1       5.589   4.866  15.766  0.00  0.00    +0.000 A 
ATOM      3  C   UNL     1       5.744   5.035  17.165  0.00  0.00    +0.000 A 
ATOM      4  C   UNL     1       7.070   4.805  17.454  0.00  0.00    +0.000 A 
ATOM      5  N   UNL     1       7.719   4.577  16.265  0.00  0.00    +0.000 N 
ATOM      6  H   UNL     1       8.708   4.383  16.150  0.00  0.00    +0.000 HD
ENDROOT
BRANCH   1   8
ATOM      7  N   UNL     1       6.628   4.157  12.824  0.00  0.00    +0.000 N 
ATOM      8  C   UNL     1       7.336   4.850  13.829  0.00  0.00    +0.000 C 
ATOM      9  O   UNL     1       8.311   5.546  13.554  0.00  0.00    +0.000 OA
BRANCH   7  11
ATOM     10  C   UNL     1       7.631   2.616  11.141  0.00  0.00    +0.000 C 
ATOM     11  C   UNL     1       7.269   4.048  11.510  0.00  0.00    +0.000 C 
ENDBRANCH   7  11
BRANCH   7  12
ATOM     12  C   UNL     1       5.394   3.405  13.071  0.00  0.00    +0.000 C 
ATOM     13  C   UNL     1       4.374   3.322  11.951  0.00  0.00    +0.000 C 
ENDBRANCH   7  12
ENDBRANCH   1   8
BRANCH   3  14
ATOM     14  S   UNL     1       4.470   5.518  18.245  0.00  0.00    +0.000 S 
ATOM     15  O   UNL     1       5.106   5.568  19.542  0.00  0.00    +0.000 OA
ATOM     16  O   UNL     1       3.897   6.689  17.620  0.00  0.00    +0.000 OA
BRANCH  14  17
ATOM     17  N   UNL     1       3.292   4.263  18.266  0.00  0.00    +0.000 NA
ATOM     18  C   UNL     1       3.845   2.909  18.522  0.00  0.00    +0.000 C 
ATOM     19  C   UNL     1       2.778   1.838  18.312  0.00  0.00    +0.000 C 
ATOM     20  C   UNL     1       1.549   2.111  19.167  0.00  0.00    +0.000 C 
ATOM     21  C   UNL     1       1.001   3.497  18.851  0.00  0.00    +0.000 C 
ATOM     22  C   UNL     1       2.067   4.573  19.048  0.00  0.00    +0.000 C 
ENDBRANCH  14  17
ENDBRANCH   3  14
TORSDOF 5
ENDMDL
MODEL 8
REMARK VINA RESULT:      -6.4      1.206      2.066
REMARK  Name = 
REMARK  7 active torsions:
REMARK  status: ('A' for Active; 'I' for Inactive)
REMARK    1  A    between atoms: C_1  and  C_2
REMARK    2  A    between atoms: C_2  and  N_3
REMARK    3  A    between atoms: N_3  and  C_4
REMARK    4  A    between atoms: C_4  and  C_5
REMARK    5  A    between atoms: C_6  and  C_8
REMARK    6  A    between atoms: C_10  and  S_11
REMARK    7  A    between atoms: S_11  and  N_14
REMARK                            x       y       z     vdW  Elec       q    Type
REMARK                         _______ _______ _______ _____ _____    ______ ____
ROOT
ATOM      1  C   UNL     1       3.450   4.364  17.622  0.00  0.00    +0.000 A 
ATOM      2  C   UNL     1       4.638   4.027  16.989  0.00  0.00    +0.000 A 
ATOM      3  C   UNL     1       5.390   5.216  16.813  0.00  0.00    +0.000 A 
ATOM      4  C   UNL     1       4.551   6.269  17.103  0.00  0.00    +0.000 A 
ATOM      5  N   UNL     1       3.353   5.741  17.515  0.00  0.00    +0.000 N 
ATOM      6  H   UNL     1       2.534   6.266  17.804  0.00  0.00    +0.000 HD
ENDROOT
BRANCH   1   8
ATOM      7  N   UNL     1       2.050   3.854  19.596  0.00  0.00    +0.000 N 
ATOM      8  C   UNL     1       2.407   3.572  18.260  0.00  0.00    +0.000 C 
ATOM      9  O   UNL     1       1.814   2.712  17.612  0.00  0.00    +0.000 OA
BRANCH   7  11
ATOM     10  C   UNL     1       1.599   2.602  21.703  0.00  0.00    +0.000 C 
ATOM     11  C   UNL     1       1.174   2.892  20.270  0.00  0.00    +0.000 C 
ENDBRANCH   7  11
BRANCH   7  12
ATOM     12  C   UNL     1       2.641   4.941  20.381  0.00  0.00    +0.000 C 
ATOM     13  C   UNL     1       1.807   6.188  20.612  0.00  0.00    +0.000 C 
ENDBRANCH   7  12
ENDBRANCH   1   8
BRANCH   3  14
ATOM     14  S   UNL     1       7.074   5.262  16.383  0.00  0.00    +0.000 S 
ATOM     15  O   UNL     1       7.410   6.667  16.417  0.00  0.00    +0.000 OA
ATOM     16  O   UNL     1       7.694   4.298  17.264  0.00  0.00    +0.000 OA
BRANCH  14  17
ATOM     17  N   UNL     1       7.219   4.708  14.759  0.00  0.00    +0.000 NA
ATOM     18  C   UNL     1       6.017   4.005  14.243  0.00  0.00    +0.000 C 
ATOM     19  C   UNL     1       6.304   3.365  12.887  0.00  0.00    +0.000 C 
ATOM     20  C   UNL     1       6.823   4.393  11.891  0.00  0.00    +0.000 C 
ATOM     21  C   UNL     1       8.068   5.067  12.451  0.00  0.00    +0.000 C 
ATOM     22  C   UNL     1       7.792   5.701  13.813  0.00  0.00    +0.000 C 
ENDBRANCH  14  17
ENDBRANCH   3  14
TORSDOF 5
ENDMDL
MODEL 9
REMARK VINA RESULT:      -6.4      1.802      6.671
REMARK  Name = 
REMARK  7 active torsions:
REMARK  status: ('A' for Active; 'I' for Inactive)
REMARK    1  A    between atoms: C_1  and  C_2
REMARK    2  A    between atoms: C_2  and  N_3
REMARK    3  A    between atoms: N_3  and  C_4
REMARK    4  A    between atoms: C_4  and  C_5
REMARK    5  A    between atoms: C_6  and  C_8
REMARK    6  A    between atoms: C_10  and  S_11
REMARK    7  A    between atoms: S_11  and  N_14
REMARK                            x       y       z     vdW  Elec       q    Type
REMARK                         _______ _______ _______ _____ _____    ______ ____
ROOT
ATOM      1  C   UNL     1       6.499   5.346  15.031  0.00  0.00    +0.000 A 
ATOM      2  C   UNL     1       6.623   4.883  16.333  0.00  0.00    +0.000 A 
ATOM      3  C   UNL     1       5.514   5.364  17.074  0.00  0.00    +0.000 A 
ATOM      4  C   UNL     1       4.885   6.305  16.290  0.00  0.00    +0.000 A 
ATOM      5  N   UNL     1       5.540   6.344  15.084  0.00  0.00    +0.000 N 
ATOM      6  H   UNL     1       5.307   6.936  14.295  0.00  0.00    +0.000 HD
ENDROOT
BRANCH   1   8
ATOM      7  N   UNL     1       6.541   4.145  12.870  0.00  0.00    +0.000 N 
ATOM      8  C   UNL     1       7.178   5.006  13.788  0.00  0.00    +0.000 C 
ATOM      9  O   UNL     1       8.267   5.517  13.530  0.00  0.00    +0.000 OA
BRANCH   7  11
ATOM     10  C   UNL     1       7.144   2.158  11.491  0.00  0.00    +0.000 C 
ATOM     11  C   UNL     1       7.348   3.644  11.754  0.00  0.00    +0.000 C 
ENDBRANCH   7  11
BRANCH   7  12
ATOM     12  C   UNL     1       5.196   3.597  13.070  0.00  0.00    +0.000 C 
ATOM     13  C   UNL     1       4.293   3.465  11.857  0.00  0.00    +0.000 C 
ENDBRANCH   7  12
ENDBRANCH   1   8
BRANCH   3  14
ATOM     14  S   UNL     1       5.049   4.777  18.643  0.00  0.00    +0.000 S 
ATOM     15  O   UNL     1       6.037   3.768  18.950  0.00  0.00    +0.000 OA
ATOM     16  O   UNL     1       4.893   5.973  19.440  0.00  0.00    +0.000 OA
BRANCH  14  17
ATOM     17  N   UNL     1       3.517   4.007  18.485  0.00  0.00    +0.000 NA
ATOM     18  C   UNL     1       3.588   2.582  18.076  0.00  0.00    +0.000 C 
ATOM     19  C   UNL     1       2.198   2.040  17.752  0.00  0.00    +0.000 C 
ATOM     20  C   UNL     1       1.243   2.241  18.921  0.00  0.00    +0.000 C 
ATOM     21  C   UNL     1       1.182   3.718  19.286  0.00  0.00    +0.000 C 
ATOM     22  C   UNL     1       2.571   4.270  19.601  0.00  0.00    +0.000 C 
ENDBRANCH  14  17
ENDBRANCH   3  14
TORSDOF 5
ENDMDL
