MODEL 1
REMARK VINA RESULT:      -7.5      0.000      0.000
REMARK  Name = 
REMARK  2 active torsions:
REMARK  status: ('A' for Active; 'I' for Inactive)
REMARK    1  A    between atoms: N_1  and  C_2
REMARK    2  A    between atoms: C_6  and  C_7
REMARK                            x       y       z     vdW  Elec       q    Type
REMARK                         _______ _______ _______ _____ _____    ______ ____
ROOT
ATOM      1  C   UNL     1       4.955   4.025  17.152  0.00  0.00    +0.000 A 
ATOM      2  C   UNL     1       3.745   3.589  17.721  0.00  0.00    +0.000 A 
ATOM      3 CL   UNL     1       3.193   1.965  17.482  0.00  0.00    +0.000 Cl
ATOM      4  C   UNL     1       2.977   4.431  18.534  0.00  0.00    +0.000 A 
ATOM      5  C   UNL     1       3.390   5.744  18.773  0.00  0.00    +0.000 A 
ATOM      6  C   UNL     1       4.563   6.214  18.177  0.00  0.00    +0.000 A 
ATOM      7  C   UNL     1       5.324   5.367  17.362  0.00  0.00    +0.000 A 
ATOM      8 CL   UNL     1       6.775   5.999  16.661  0.00  0.00    +0.000 Cl
ENDROOT
BRANCH   5   9
ATOM      9  C   UNL     1       2.632   6.583  19.709  0.00  0.00    +0.000 C 
ATOM     10  C   UNL     1       2.051   7.738  19.336  0.00  0.00    +0.000 C 
ATOM     11  C   UNL     1       2.040   8.302  17.993  0.00  0.00    +0.000 C 
ATOM     12  C   UNL     1       1.347   9.450  17.982  0.00  0.00    +0.000 C 
ATOM     13  C   UNL     1       0.879   9.700  19.340  0.00  0.00    +0.000 A 
ATOM     14  C   UNL     1       0.134  10.769  19.812  0.00  0.00    +0.000 A 
ATOM     15  C   UNL     1      -0.174  10.806  21.173  0.00  0.00    +0.000 A 
ATOM     16  C   UNL     1       0.266   9.786  22.035  0.00  0.00    +0.000 A 
ATOM     17  C   UNL     1       1.013   8.704  21.550  0.00  0.00    +0.000 A 
ATOM     18  C   UNL     1       1.306   8.668  20.197  0.00  0.00    +0.000 A 
ENDBRANCH   5   9
BRANCH   1  19
ATOM     19  N   UNL     1       5.657   3.213  16.231  0.00  0.00    +0.000 N 
ATOM     20  H   UNL     1       5.196   3.143  15.325  0.00  0.00    +0.000 HD
ATOM     21  H   UNL     1       5.935   2.313  16.616  0.00  0.00    +0.000 HD
ENDBRANCH   1  19
TORSDOF 2
ENDMDL
MODEL 2
REMARK VINA RESULT:      -7.4      3.729      7.371
REMARK  Name = 
REMARK  2 active torsions:
REMARK  status: ('A' for Active; 'I' for Inactive)
REMARK    1  A    between atoms: N_1  and  C_2
REMARK    2  A    between atoms: C_6  and  C_7
REMARK                            x       y       z     vdW  Elec       q    Type
REMARK                         _______ _______ _______ _____ _____    ______ ____
ROOT
ATOM      1  C   UNL     1       2.675   4.958  20.180  0.00  0.00    +0.000 A 
ATOM      2  C   UNL     1       3.197   3.686  19.881  0.00  0.00    +0.000 A 
ATOM      3 CL   UNL     1       3.186   2.428  21.072  0.00  0.00    +0.000 Cl
ATOM      4  C   UNL     1       3.691   3.381  18.608  0.00  0.00    +0.000 A 
ATOM      5  C   UNL     1       3.703   4.355  17.607  0.00  0.00    +0.000 A 
ATOM      6  C   UNL     1       3.236   5.640  17.896  0.00  0.00    +0.000 A 
ATOM      7  C   UNL     1       2.746   5.939  19.173  0.00  0.00    +0.000 A 
ATOM      8 CL   UNL     1       2.169   7.544  19.469  0.00  0.00    +0.000 Cl
ENDROOT
BRANCH   5   9
ATOM      9  C   UNL     1       4.127   3.995  16.249  0.00  0.00    +0.000 C 
ATOM     10  C   UNL     1       5.254   4.475  15.693  0.00  0.00    +0.000 C 
ATOM     11  C   UNL     1       6.221   5.356  16.332  0.00  0.00    +0.000 C 
ATOM     12  C   UNL     1       7.236   5.612  15.493  0.00  0.00    +0.000 C 
ATOM     13  C   UNL     1       6.967   4.910  14.244  0.00  0.00    +0.000 A 
ATOM     14  C   UNL     1       7.729   4.888  13.086  0.00  0.00    +0.000 A 
ATOM     15  C   UNL     1       7.249   4.159  11.997  0.00  0.00    +0.000 A 
ATOM     16  C   UNL     1       6.024   3.473  12.078  0.00  0.00    +0.000 A 
ATOM     17  C   UNL     1       5.262   3.493  13.254  0.00  0.00    +0.000 A 
ATOM     18  C   UNL     1       5.749   4.210  14.335  0.00  0.00    +0.000 A 
ENDBRANCH   5   9
BRANCH   1  19
ATOM     19  N   UNL     1       2.297   5.295  21.499  0.00  0.00    +0.000 N 
ATOM     20  H   UNL     1       1.607   6.044  21.541  0.00  0.00    +0.000 HD
ATOM     21  H   UNL     1       3.089   5.437  22.122  0.00  0.00    +0.000 HD
ENDBRANCH   1  19
TORSDOF 2
ENDMDL
MODEL 3
REMARK VINA RESULT:      -7.4      3.757      7.517
REMARK  Name = 
REMARK  2 active torsions:
REMARK  status: ('A' for Active; 'I' for Inactive)
REMARK    1  A    between atoms: N_1  and  C_2
REMARK    2  A    between atoms: C_6  and  C_7
REMARK                            x       y       z     vdW  Elec       q    Type
REMARK                         _______ _______ _______ _____ _____    ______ ____
ROOT
ATOM      1  C   UNL     1       2.816   4.932  20.198  0.00  0.00    +0.000 A 
ATOM      2  C   UNL     1       2.734   5.861  19.144  0.00  0.00    +0.000 A 
ATOM      3 CL   UNL     1       2.220   7.488  19.442  0.00  0.00    +0.000 Cl
ATOM      4  C   UNL     1       3.112   5.520  17.840  0.00  0.00    +0.000 A 
ATOM      5  C   UNL     1       3.553   4.226  17.552  0.00  0.00    +0.000 A 
ATOM      6  C   UNL     1       3.594   3.273  18.573  0.00  0.00    +0.000 A 
ATOM      7  C   UNL     1       3.212   3.621  19.875  0.00  0.00    +0.000 A 
ATOM      8 CL   UNL     1       3.296   2.402  21.101  0.00  0.00    +0.000 Cl
ENDROOT
BRANCH   5   9
ATOM      9  C   UNL     1       4.042   3.909  16.206  0.00  0.00    +0.000 C 
ATOM     10  C   UNL     1       5.182   4.425  15.711  0.00  0.00    +0.000 C 
ATOM     11  C   UNL     1       6.103   5.307  16.414  0.00  0.00    +0.000 C 
ATOM     12  C   UNL     1       7.148   5.604  15.626  0.00  0.00    +0.000 C 
ATOM     13  C   UNL     1       6.946   4.930  14.349  0.00  0.00    +0.000 A 
ATOM     14  C   UNL     1       7.757   4.953  13.225  0.00  0.00    +0.000 A 
ATOM     15  C   UNL     1       7.339   4.244  12.098  0.00  0.00    +0.000 A 
ATOM     16  C   UNL     1       6.126   3.533  12.109  0.00  0.00    +0.000 A 
ATOM     17  C   UNL     1       5.313   3.508  13.250  0.00  0.00    +0.000 A 
ATOM     18  C   UNL     1       5.739   4.205  14.369  0.00  0.00    +0.000 A 
ENDBRANCH   5   9
BRANCH   1  19
ATOM     19  N   UNL     1       2.314   5.246  21.481  0.00  0.00    +0.000 N 
ATOM     20  H   UNL     1       2.960   5.012  22.233  0.00  0.00    +0.000 HD
ATOM     21  H   UNL     1       1.368   4.908  21.638  0.00  0.00    +0.000 HD
ENDBRANCH   1  19
TORSDOF 2
ENDMDL
MODEL 4
REMARK VINA RESULT:      -7.4      0.988      2.819
REMARK  Name = 
REMARK  2 active torsions:
REMARK  status: ('A' for Active; 'I' for Inactive)
REMARK    1  A    between atoms: N_1  and  C_2
REMARK    2  A    between atoms: C_6  and  C_7
REMARK                            x       y       z     vdW  Elec       q    Type
REMARK                         _______ _______ _______ _____ _____    ______ ____
ROOT
ATOM      1  C   UNL     1       4.617   4.713  17.278  0.00  0.00    +0.000 A 
ATOM      2  C   UNL     1       5.155   6.013  17.266  0.00  0.00    +0.000 A 
ATOM      3 CL   UNL     1       6.820   6.272  16.864  0.00  0.00    +0.000 Cl
ATOM      4  C   UNL     1       4.359   7.134  17.525  0.00  0.00    +0.000 A 
ATOM      5  C   UNL     1       3.005   6.979  17.835  0.00  0.00    +0.000 A 
ATOM      6  C   UNL     1       2.461   5.694  17.902  0.00  0.00    +0.000 A 
ATOM      7  C   UNL     1       3.265   4.576  17.644  0.00  0.00    +0.000 A 
ATOM      8 CL   UNL     1       2.532   3.010  17.730  0.00  0.00    +0.000 Cl
ENDROOT
BRANCH   5   9
ATOM      9  C   UNL     1       2.159   8.166  18.003  0.00  0.00    +0.000 C 
ATOM     10  C   UNL     1       1.623   8.508  19.188  0.00  0.00    +0.000 C 
ATOM     11  C   UNL     1       1.820   7.815  20.454  0.00  0.00    +0.000 C 
ATOM     12  C   UNL     1       1.156   8.448  21.434  0.00  0.00    +0.000 C 
ATOM     13  C   UNL     1       0.474   9.593  20.840  0.00  0.00    +0.000 A 
ATOM     14  C   UNL     1      -0.339  10.528  21.460  0.00  0.00    +0.000 A 
ATOM     15  C   UNL     1      -0.909  11.529  20.672  0.00  0.00    +0.000 A 
ATOM     16  C   UNL     1      -0.665  11.577  19.288  0.00  0.00    +0.000 A 
ATOM     17  C   UNL     1       0.164  10.633  18.668  0.00  0.00    +0.000 A 
ATOM     18  C   UNL     1       0.735   9.648  19.458  0.00  0.00    +0.000 A 
ENDBRANCH   5   9
BRANCH   1  19
ATOM     19  N   UNL     1       5.452   3.581  17.141  0.00  0.00    +0.000 N 
ATOM     20  H   UNL     1       5.665   3.353  16.171  0.00  0.00    +0.000 HD
ATOM     21  H   UNL     1       5.140   2.781  17.687  0.00  0.00    +0.000 HD
ENDBRANCH   1  19
TORSDOF 2
ENDMDL
MODEL 5
REMARK VINA RESULT:      -7.4      0.129      2.091
REMARK  Name = 
REMARK  2 active torsions:
REMARK  status: ('A' for Active; 'I' for Inactive)
REMARK    1  A    between atoms: N_1  and  C_2
REMARK    2  A    between atoms: C_6  and  C_7
REMARK                            x       y       z     vdW  Elec       q    Type
REMARK                         _______ _______ _______ _____ _____    ______ ____
ROOT
ATOM      1  C   UNL     1       4.845   4.049  17.106  0.00  0.00    +0.000 A 
ATOM      2  C   UNL     1       5.281   5.346  17.433  0.00  0.00    +0.000 A 
ATOM      3 CL   UNL     1       6.680   6.023  16.669  0.00  0.00    +0.000 Cl
ATOM      4  C   UNL     1       4.577   6.146  18.340  0.00  0.00    +0.000 A 
ATOM      5  C   UNL     1       3.430   5.652  18.968  0.00  0.00    +0.000 A 
ATOM      6  C   UNL     1       3.007   4.349  18.697  0.00  0.00    +0.000 A 
ATOM      7  C   UNL     1       3.719   3.554  17.790  0.00  0.00    +0.000 A 
ATOM      8 CL   UNL     1       3.140   1.951  17.484  0.00  0.00    +0.000 Cl
ENDROOT
BRANCH   5   9
ATOM      9  C   UNL     1       2.643   6.535  19.838  0.00  0.00    +0.000 C 
ATOM     10  C   UNL     1       2.082   7.674  19.394  0.00  0.00    +0.000 C 
ATOM     11  C   UNL     1       2.122   8.177  18.028  0.00  0.00    +0.000 C 
ATOM     12  C   UNL     1       1.436   9.327  17.941  0.00  0.00    +0.000 C 
ATOM     13  C   UNL     1       0.921   9.638  19.269  0.00  0.00    +0.000 A 
ATOM     14  C   UNL     1       0.165  10.730  19.666  0.00  0.00    +0.000 A 
ATOM     15  C   UNL     1      -0.192  10.828  21.012  0.00  0.00    +0.000 A 
ATOM     16  C   UNL     1       0.211   9.846  21.933  0.00  0.00    +0.000 A 
ATOM     17  C   UNL     1       0.970   8.740  21.524  0.00  0.00    +0.000 A 
ATOM     18  C   UNL     1       1.312   8.643  20.185  0.00  0.00    +0.000 A 
ENDBRANCH   5   9
BRANCH   1  19
ATOM     19  N   UNL     1       5.630   3.205  16.290  0.00  0.00    +0.000 N 
ATOM     20  H   UNL     1       5.076   2.627  15.659  0.00  0.00    +0.000 HD
ATOM     21  H   UNL     1       6.333   2.682  16.807  0.00  0.00    +0.000 HD
ENDBRANCH   1  19
TORSDOF 2
ENDMDL
MODEL 6
REMARK VINA RESULT:      -7.3      1.207      2.846
REMARK  Name = 
REMARK  2 active torsions:
REMARK  status: ('A' for Active; 'I' for Inactive)
REMARK    1  A    between atoms: N_1  and  C_2
REMARK    2  A    between atoms: C_6  and  C_7
REMARK                            x       y       z     vdW  Elec       q    Type
REMARK                         _______ _______ _______ _____ _____    ______ ____
ROOT
ATOM      1  C   UNL     1       3.862   3.627  18.017  0.00  0.00    +0.000 A 
ATOM      2  C   UNL     1       4.711   4.748  17.974  0.00  0.00    +0.000 A 
ATOM      3 CL   UNL     1       6.418   4.552  17.756  0.00  0.00    +0.000 Cl
ATOM      4  C   UNL     1       4.204   6.050  18.054  0.00  0.00    +0.000 A 
ATOM      5  C   UNL     1       2.832   6.262  18.210  0.00  0.00    +0.000 A 
ATOM      6  C   UNL     1       1.975   5.162  18.306  0.00  0.00    +0.000 A 
ATOM      7  C   UNL     1       2.491   3.862  18.228  0.00  0.00    +0.000 A 
ATOM      8 CL   UNL     1       1.380   2.538  18.340  0.00  0.00    +0.000 Cl
ENDROOT
BRANCH   5   9
ATOM      9  C   UNL     1       2.302   7.630  18.190  0.00  0.00    +0.000 C 
ATOM     10  C   UNL     1       1.776   8.217  19.279  0.00  0.00    +0.000 C 
ATOM     11  C   UNL     1       1.690   7.638  20.613  0.00  0.00    +0.000 C 
ATOM     12  C   UNL     1       1.131   8.515  21.461  0.00  0.00    +0.000 C 
ATOM     13  C   UNL     1       0.810   9.720  20.705  0.00  0.00    +0.000 A 
ATOM     14  C   UNL     1       0.212  10.885  21.157  0.00  0.00    +0.000 A 
ATOM     15  C   UNL     1      -0.022  11.905  20.232  0.00  0.00    +0.000 A 
ATOM     16  C   UNL     1       0.337  11.744  18.883  0.00  0.00    +0.000 A 
ATOM     17  C   UNL     1       0.947  10.565  18.434  0.00  0.00    +0.000 A 
ATOM     18  C   UNL     1       1.186   9.561  19.358  0.00  0.00    +0.000 A 
ENDBRANCH   5   9
BRANCH   1  19
ATOM     19  N   UNL     1       4.392   2.318  18.064  0.00  0.00    +0.000 N 
ATOM     20  H   UNL     1       4.557   1.917  17.141  0.00  0.00    +0.000 HD
ATOM     21  H   UNL     1       3.884   1.698  18.691  0.00  0.00    +0.000 HD
ENDBRANCH   1  19
TORSDOF 2
ENDMDL
MODEL 7
REMARK VINA RESULT:      -7.3      1.441      2.576
REMARK  Name = 
REMARK  2 active torsions:
REMARK  status: ('A' for Active; 'I' for Inactive)
REMARK    1  A    between atoms: N_1  and  C_2
REMARK    2  A    between atoms: C_6  and  C_7
REMARK                            x       y       z     vdW  Elec       q    Type
REMARK                         _______ _______ _______ _____ _____    ______ ____
ROOT
ATOM      1  C   UNL     1       3.531   3.316  18.609  0.00  0.00    +0.000 A 
ATOM      2  C   UNL     1       4.340   4.425  18.916  0.00  0.00    +0.000 A 
ATOM      3 CL   UNL     1       6.020   4.433  18.494  0.00  0.00    +0.000 Cl
ATOM      4  C   UNL     1       3.809   5.570  19.520  0.00  0.00    +0.000 A 
ATOM      5  C   UNL     1       2.455   5.621  19.862  0.00  0.00    +0.000 A 
ATOM      6  C   UNL     1       1.644   4.511  19.613  0.00  0.00    +0.000 A 
ATOM      7  C   UNL     1       2.183   3.368  19.010  0.00  0.00    +0.000 A 
ATOM      8 CL   UNL     1       1.126   2.028  18.715  0.00  0.00    +0.000 Cl
ENDROOT
BRANCH   5   9
ATOM      9  C   UNL     1       1.889   6.863  20.401  0.00  0.00    +0.000 C 
ATOM     10  C   UNL     1       1.715   7.963  19.648  0.00  0.00    +0.000 C 
ATOM     11  C   UNL     1       2.004   8.088  18.226  0.00  0.00    +0.000 C 
ATOM     12  C   UNL     1       1.685   9.319  17.797  0.00  0.00    +0.000 C 
ATOM     13  C   UNL     1       1.179  10.070  18.940  0.00  0.00    +0.000 A 
ATOM     14  C   UNL     1       0.740  11.383  18.981  0.00  0.00    +0.000 A 
ATOM     15  C   UNL     1       0.322  11.898  20.210  0.00  0.00    +0.000 A 
ATOM     16  C   UNL     1       0.354  11.102  21.368  0.00  0.00    +0.000 A 
ATOM     17  C   UNL     1       0.793   9.772  21.318  0.00  0.00    +0.000 A 
ATOM     18  C   UNL     1       1.196   9.264  20.094  0.00  0.00    +0.000 A 
ENDBRANCH   5   9
BRANCH   1  19
ATOM     19  N   UNL     1       4.098   2.119  18.117  0.00  0.00    +0.000 N 
ATOM     20  H   UNL     1       3.986   2.005  17.111  0.00  0.00    +0.000 HD
ATOM     21  H   UNL     1       3.830   1.295  18.651  0.00  0.00    +0.000 HD
ENDBRANCH   1  19
TORSDOF 2
ENDMDL
MODEL 8
REMARK VINA RESULT:      -7.3      1.454      2.211
REMARK  Name = 
REMARK  2 active torsions:
REMARK  status: ('A' for Active; 'I' for Inactive)
REMARK    1  A    between atoms: N_1  and  C_2
REMARK    2  A    between atoms: C_6  and  C_7
REMARK                            x       y       z     vdW  Elec       q    Type
REMARK                         _______ _______ _______ _____ _____    ______ ____
ROOT
ATOM      1  C   UNL     1       4.287   3.662  19.152  0.00  0.00    +0.000 A 
ATOM      2  C   UNL     1       2.891   3.776  19.285  0.00  0.00    +0.000 A 
ATOM      3 CL   UNL     1       1.948   2.439  19.852  0.00  0.00    +0.000 Cl
ATOM      4  C   UNL     1       2.229   4.979  19.014  0.00  0.00    +0.000 A 
ATOM      5  C   UNL     1       2.948   6.093  18.573  0.00  0.00    +0.000 A 
ATOM      6  C   UNL     1       4.329   5.988  18.386  0.00  0.00    +0.000 A 
ATOM      7  C   UNL     1       4.984   4.780  18.656  0.00  0.00    +0.000 A 
ATOM      8 CL   UNL     1       6.697   4.713  18.418  0.00  0.00    +0.000 Cl
ENDROOT
BRANCH   5   9
ATOM      9  C   UNL     1       2.259   7.376  18.392  0.00  0.00    +0.000 C 
ATOM     10  C   UNL     1       1.714   8.055  19.417  0.00  0.00    +0.000 C 
ATOM     11  C   UNL     1       1.754   7.671  20.822  0.00  0.00    +0.000 C 
ATOM     12  C   UNL     1       1.132   8.595  21.569  0.00  0.00    +0.000 C 
ATOM     13  C   UNL     1       0.637   9.632  20.672  0.00  0.00    +0.000 A 
ATOM     14  C   UNL     1      -0.076  10.777  20.990  0.00  0.00    +0.000 A 
ATOM     15  C   UNL     1      -0.469  11.618  19.947  0.00  0.00    +0.000 A 
ATOM     16  C   UNL     1      -0.151  11.301  18.614  0.00  0.00    +0.000 A 
ATOM     17  C   UNL     1       0.575  10.145  18.300  0.00  0.00    +0.000 A 
ATOM     18  C   UNL     1       0.972   9.321  19.341  0.00  0.00    +0.000 A 
ENDBRANCH   5   9
BRANCH   1  19
ATOM     19  N   UNL     1       4.930   2.412  19.304  0.00  0.00    +0.000 N 
ATOM     20  H   UNL     1       4.666   1.736  18.589  0.00  0.00    +0.000 HD
ATOM     21  H   UNL     1       4.878   2.044  20.250  0.00  0.00    +0.000 HD
ENDBRANCH   1  19
TORSDOF 2
ENDMDL
MODEL 9
REMARK VINA RESULT:      -7.3      1.407      1.561
REMARK  Name = 
REMARK  2 active torsions:
REMARK  status: ('A' for Active; 'I' for Inactive)
REMARK    1  A    between atoms: N_1  and  C_2
REMARK    2  A    between atoms: C_6  and  C_7
REMARK                            x       y       z     vdW  Elec       q    Type
REMARK                         _______ _______ _______ _____ _____    ______ ____
ROOT
ATOM      1  C   UNL     1       3.674   3.324  18.742  0.00  0.00    +0.000 A 
ATOM      2  C   UNL     1       2.289   3.413  18.973  0.00  0.00    +0.000 A 
ATOM      3 CL   UNL     1       1.265   2.037  18.732  0.00  0.00    +0.000 Cl
ATOM      4  C   UNL     1       1.704   4.591  19.451  0.00  0.00    +0.000 A 
ATOM      5  C   UNL     1       2.490   5.723  19.681  0.00  0.00    +0.000 A 
ATOM      6  C   UNL     1       3.860   5.673  19.410  0.00  0.00    +0.000 A 
ATOM      7  C   UNL     1       4.438   4.491  18.929  0.00  0.00    +0.000 A 
ATOM      8 CL   UNL     1       6.142   4.484  18.624  0.00  0.00    +0.000 Cl
ENDROOT
BRANCH   5   9
ATOM      9  C   UNL     1       1.884   6.919  20.278  0.00  0.00    +0.000 C 
ATOM     10  C   UNL     1       1.705   8.059  19.589  0.00  0.00    +0.000 C 
ATOM     11  C   UNL     1       2.026   8.276  18.185  0.00  0.00    +0.000 C 
ATOM     12  C   UNL     1       1.692   9.523  17.822  0.00  0.00    +0.000 C 
ATOM     13  C   UNL     1       1.140  10.193  18.995  0.00  0.00    +0.000 A 
ATOM     14  C   UNL     1       0.672  11.493  19.104  0.00  0.00    +0.000 A 
ATOM     15  C   UNL     1       0.212  11.924  20.349  0.00  0.00    +0.000 A 
ATOM     16  C   UNL     1       0.232  11.059  21.458  0.00  0.00    +0.000 A 
ATOM     17  C   UNL     1       0.701   9.744  21.340  0.00  0.00    +0.000 A 
ATOM     18  C   UNL     1       1.146   9.319  20.098  0.00  0.00    +0.000 A 
ENDBRANCH   5   9
BRANCH   1  19
ATOM     19  N   UNL     1       4.235   2.175  18.140  0.00  0.00    +0.000 N 
ATOM     20  H   UNL     1       3.632   1.356  18.197  0.00  0.00    +0.000 HD
ATOM     21  H   UNL     1       5.193   1.994  18.431  0.00  0.00    +0.000 HD
ENDBRANCH   1  19
TORSDOF 2
ENDMDL
