MODEL 1
REMARK VINA RESULT:      -7.7      0.000      0.000
REMARK  Name = 
REMARK  3 active torsions:
REMARK  status: ('A' for Active; 'I' for Inactive)
REMARK    1  A    between atoms: S_2  and  C_4
REMARK    2  A    between atoms: S_2  and  N_12
REMARK    3  A    between atoms: C_16  and  C_17
REMARK                            x       y       z     vdW  Elec       q    Type
REMARK                         _______ _______ _______ _____ _____    ______ ____
ROOT
ATOM      1  O   UNL     1       2.741   6.516  17.496  0.00  0.00    +0.000 OA
ATOM      2  S   UNL     1       3.453   5.829  18.551  0.00  0.00    +0.000 S 
ATOM      3  O   UNL     1       3.737   6.502  19.799  0.00  0.00    +0.000 OA
ENDROOT
BRANCH   2   4
ATOM      4  C   UNL     1       2.561   4.356  18.963  0.00  0.00    +0.000 A 
ATOM      5  C   UNL     1       2.096   4.175  20.272  0.00  0.00    +0.000 A 
ATOM      6  C   UNL     1       1.416   3.007  20.594  0.00  0.00    +0.000 A 
ATOM      7  F   UNL     1       0.996   2.816  21.851  0.00  0.00    +0.000 F 
ATOM      8  C   UNL     1       1.170   2.027  19.637  0.00  0.00    +0.000 A 
ATOM      9  C   UNL     1       1.592   2.234  18.323  0.00  0.00    +0.000 A 
ATOM     10  C   UNL     1       2.278   3.402  17.989  0.00  0.00    +0.000 A 
ATOM     11  F   UNL     1       2.682   3.547  16.722  0.00  0.00    +0.000 F 
ENDBRANCH   2   4
BRANCH   2  12
ATOM     12  N   UNL     1       4.926   5.271  17.927  0.00  0.00    +0.000 NA
ATOM     13  C   UNL     1       5.891   4.644  18.846  0.00  0.00    +0.000 C 
ATOM     14  C   UNL     1       7.024   5.643  18.972  0.00  0.00    +0.000 C 
ATOM     15  C   UNL     1       6.979   6.491  17.710  0.00  0.00    +0.000 C 
ATOM     16  C   UNL     1       5.667   6.143  16.988  0.00  0.00    +0.000 C 
BRANCH  16  17
ATOM     17  C   UNL     1       5.975   5.414  15.719  0.00  0.00    +0.000 A 
ATOM     18  C   UNL     1       5.343   4.433  14.979  0.00  0.00    +0.000 A 
ATOM     19  C   UNL     1       6.245   4.053  13.956  0.00  0.00    +0.000 A 
ATOM     20  C   UNL     1       7.354   4.850  14.108  0.00  0.00    +0.000 A 
ATOM     21  O   UNL     1       7.201   5.678  15.172  0.00  0.00    +0.000 OA
ENDBRANCH  16  17
ENDBRANCH   2  12
TORSDOF 3
ENDMDL
MODEL 2
REMARK VINA RESULT:      -7.7      2.656      5.903
REMARK  Name = 
REMARK  3 active torsions:
REMARK  status: ('A' for Active; 'I' for Inactive)
REMARK    1  A    between atoms: S_2  and  C_4
REMARK    2  A    between atoms: S_2  and  N_12
REMARK    3  A    between atoms: C_16  and  C_17
REMARK                            x       y       z     vdW  Elec       q    Type
REMARK                         _______ _______ _______ _____ _____    ______ ____
ROOT
ATOM      1  O   UNL     1       3.427   1.956  18.245  0.00  0.00    +0.000 OA
ATOM      2  S   UNL     1       4.191   2.880  19.053  0.00  0.00    +0.000 S 
ATOM      3  O   UNL     1       5.235   2.393  19.929  0.00  0.00    +0.000 OA
ENDROOT
BRANCH   2   4
ATOM      4  C   UNL     1       4.945   4.071  17.982  0.00  0.00    +0.000 A 
ATOM      5  C   UNL     1       4.741   3.982  16.599  0.00  0.00    +0.000 A 
ATOM      6  C   UNL     1       5.353   4.907  15.763  0.00  0.00    +0.000 A 
ATOM      7  F   UNL     1       5.185   4.808  14.438  0.00  0.00    +0.000 F 
ATOM      8  C   UNL     1       6.146   5.930  16.274  0.00  0.00    +0.000 A 
ATOM      9  C   UNL     1       6.306   6.044  17.656  0.00  0.00    +0.000 A 
ATOM     10  C   UNL     1       5.698   5.120  18.505  0.00  0.00    +0.000 A 
ATOM     11  F   UNL     1       5.897   5.255  19.821  0.00  0.00    +0.000 F 
ENDBRANCH   2   4
BRANCH   2  12
ATOM     12  N   UNL     1       3.114   3.783  19.998  0.00  0.00    +0.000 NA
ATOM     13  C   UNL     1       2.625   3.205  21.261  0.00  0.00    +0.000 C 
ATOM     14  C   UNL     1       1.167   2.876  21.008  0.00  0.00    +0.000 C 
ATOM     15  C   UNL     1       0.719   3.795  19.881  0.00  0.00    +0.000 C 
ATOM     16  C   UNL     1       1.985   4.463  19.323  0.00  0.00    +0.000 C 
BRANCH  16  17
ATOM     17  C   UNL     1       1.968   5.921  19.658  0.00  0.00    +0.000 A 
ATOM     18  C   UNL     1       1.580   6.665  20.755  0.00  0.00    +0.000 A 
ATOM     19  C   UNL     1       1.666   8.025  20.373  0.00  0.00    +0.000 A 
ATOM     20  C   UNL     1       2.138   8.031  19.082  0.00  0.00    +0.000 A 
ATOM     21  O   UNL     1       2.324   6.762  18.640  0.00  0.00    +0.000 OA
ENDBRANCH  16  17
ENDBRANCH   2  12
TORSDOF 3
ENDMDL
MODEL 3
REMARK VINA RESULT:      -7.6      2.719      5.791
REMARK  Name = 
REMARK  3 active torsions:
REMARK  status: ('A' for Active; 'I' for Inactive)
REMARK    1  A    between atoms: S_2  and  C_4
REMARK    2  A    between atoms: S_2  and  N_12
REMARK    3  A    between atoms: C_16  and  C_17
REMARK                            x       y       z     vdW  Elec       q    Type
REMARK                         _______ _______ _______ _____ _____    ______ ____
ROOT
ATOM      1  O   UNL     1       3.560   2.159  18.291  0.00  0.00    +0.000 OA
ATOM      2  S   UNL     1       4.279   2.952  19.263  0.00  0.00    +0.000 S 
ATOM      3  O   UNL     1       5.186   2.317  20.195  0.00  0.00    +0.000 OA
ENDROOT
BRANCH   2   4
ATOM      4  C   UNL     1       5.218   4.181  18.401  0.00  0.00    +0.000 A 
ATOM      5  C   UNL     1       6.329   4.762  19.025  0.00  0.00    +0.000 A 
ATOM      6  C   UNL     1       7.049   5.741  18.352  0.00  0.00    +0.000 A 
ATOM      7  F   UNL     1       8.093   6.322  18.955  0.00  0.00    +0.000 F 
ATOM      8  C   UNL     1       6.699   6.138  17.064  0.00  0.00    +0.000 A 
ATOM      9  C   UNL     1       5.622   5.520  16.428  0.00  0.00    +0.000 A 
ATOM     10  C   UNL     1       4.891   4.537  17.095  0.00  0.00    +0.000 A 
ATOM     11  F   UNL     1       3.852   3.988  16.455  0.00  0.00    +0.000 F 
ENDBRANCH   2   4
BRANCH   2  12
ATOM     12  N   UNL     1       3.155   3.836  20.170  0.00  0.00    +0.000 NA
ATOM     13  C   UNL     1       2.646   3.258  21.425  0.00  0.00    +0.000 C 
ATOM     14  C   UNL     1       1.203   2.892  21.135  0.00  0.00    +0.000 C 
ATOM     15  C   UNL     1       0.764   3.789  19.988  0.00  0.00    +0.000 C 
ATOM     16  C   UNL     1       2.029   4.483  19.458  0.00  0.00    +0.000 C 
BRANCH  16  17
ATOM     17  C   UNL     1       1.968   5.943  19.778  0.00  0.00    +0.000 A 
ATOM     18  C   UNL     1       1.527   6.687  20.855  0.00  0.00    +0.000 A 
ATOM     19  C   UNL     1       1.594   8.046  20.463  0.00  0.00    +0.000 A 
ATOM     20  C   UNL     1       2.108   8.051  19.188  0.00  0.00    +0.000 A 
ATOM     21  O   UNL     1       2.338   6.783  18.764  0.00  0.00    +0.000 OA
ENDBRANCH  16  17
ENDBRANCH   2  12
TORSDOF 3
ENDMDL
MODEL 4
REMARK VINA RESULT:      -7.5      2.269      3.767
REMARK  Name = 
REMARK  3 active torsions:
REMARK  status: ('A' for Active; 'I' for Inactive)
REMARK    1  A    between atoms: S_2  and  C_4
REMARK    2  A    between atoms: S_2  and  N_12
REMARK    3  A    between atoms: C_16  and  C_17
REMARK                            x       y       z     vdW  Elec       q    Type
REMARK                         _______ _______ _______ _____ _____    ______ ____
ROOT
ATOM      1  O   UNL     1       5.384   3.141  19.426  0.00  0.00    +0.000 OA
ATOM      2  S   UNL     1       4.474   3.694  18.447  0.00  0.00    +0.000 S 
ATOM      3  O   UNL     1       3.721   2.819  17.574  0.00  0.00    +0.000 OA
ENDROOT
BRANCH   2   4
ATOM      4  C   UNL     1       3.291   4.707  19.289  0.00  0.00    +0.000 A 
ATOM      5  C   UNL     1       3.233   6.078  19.007  0.00  0.00    +0.000 A 
ATOM      6  C   UNL     1       2.317   6.871  19.687  0.00  0.00    +0.000 A 
ATOM      7  F   UNL     1       2.278   8.187  19.442  0.00  0.00    +0.000 F 
ATOM      8  C   UNL     1       1.445   6.326  20.624  0.00  0.00    +0.000 A 
ATOM      9  C   UNL     1       1.473   4.952  20.865  0.00  0.00    +0.000 A 
ATOM     10  C   UNL     1       2.390   4.146  20.190  0.00  0.00    +0.000 A 
ATOM     11  F   UNL     1       2.396   2.838  20.470  0.00  0.00    +0.000 F 
ENDBRANCH   2   4
BRANCH   2  12
ATOM     12  N   UNL     1       5.334   4.774  17.466  0.00  0.00    +0.000 NA
ATOM     13  C   UNL     1       4.866   5.005  16.089  0.00  0.00    +0.000 C 
ATOM     14  C   UNL     1       5.898   4.336  15.203  0.00  0.00    +0.000 C 
ATOM     15  C   UNL     1       7.182   4.283  16.018  0.00  0.00    +0.000 C 
ATOM     16  C   UNL     1       6.812   4.688  17.454  0.00  0.00    +0.000 C 
BRANCH  16  17
ATOM     17  C   UNL     1       7.423   6.017  17.768  0.00  0.00    +0.000 A 
ATOM     18  C   UNL     1       8.101   6.548  18.848  0.00  0.00    +0.000 A 
ATOM     19  C   UNL     1       8.271   7.928  18.582  0.00  0.00    +0.000 A 
ATOM     20  C   UNL     1       7.722   8.149  17.341  0.00  0.00    +0.000 A 
ATOM     21  O   UNL     1       7.206   6.998  16.840  0.00  0.00    +0.000 OA
ENDBRANCH  16  17
ENDBRANCH   2  12
TORSDOF 3
ENDMDL
MODEL 5
REMARK VINA RESULT:      -7.5      1.265      1.818
REMARK  Name = 
REMARK  3 active torsions:
REMARK  status: ('A' for Active; 'I' for Inactive)
REMARK    1  A    between atoms: S_2  and  C_4
REMARK    2  A    between atoms: S_2  and  N_12
REMARK    3  A    between atoms: C_16  and  C_17
REMARK                            x       y       z     vdW  Elec       q    Type
REMARK                         _______ _______ _______ _____ _____    ______ ____
ROOT
ATOM      1  O   UNL     1       3.241   6.600  17.853  0.00  0.00    +0.000 OA
ATOM      2  S   UNL     1       4.038   5.705  18.662  0.00  0.00    +0.000 S 
ATOM      3  O   UNL     1       4.394   6.067  20.017  0.00  0.00    +0.000 OA
ENDROOT
BRANCH   2   4
ATOM      4  C   UNL     1       3.208   4.144  18.758  0.00  0.00    +0.000 A 
ATOM      5  C   UNL     1       3.868   2.985  18.331  0.00  0.00    +0.000 A 
ATOM      6  C   UNL     1       3.204   1.766  18.389  0.00  0.00    +0.000 A 
ATOM      7  F   UNL     1       3.820   0.660  17.954  0.00  0.00    +0.000 F 
ATOM      8  C   UNL     1       1.905   1.674  18.881  0.00  0.00    +0.000 A 
ATOM      9  C   UNL     1       1.270   2.825  19.352  0.00  0.00    +0.000 A 
ATOM     10  C   UNL     1       1.927   4.054  19.296  0.00  0.00    +0.000 A 
ATOM     11  F   UNL     1       1.271   5.133  19.737  0.00  0.00    +0.000 F 
ENDBRANCH   2   4
BRANCH   2  12
ATOM     12  N   UNL     1       5.476   5.370  17.831  0.00  0.00    +0.000 NA
ATOM     13  C   UNL     1       6.685   5.051  18.609  0.00  0.00    +0.000 C 
ATOM     14  C   UNL     1       7.590   6.256  18.445  0.00  0.00    +0.000 C 
ATOM     15  C   UNL     1       7.167   6.925  17.145  0.00  0.00    +0.000 C 
ATOM     16  C   UNL     1       5.859   6.250  16.704  0.00  0.00    +0.000 C 
BRANCH  16  17
ATOM     17  C   UNL     1       6.105   5.449  15.465  0.00  0.00    +0.000 A 
ATOM     18  C   UNL     1       5.432   4.436  14.809  0.00  0.00    +0.000 A 
ATOM     19  C   UNL     1       6.285   3.990  13.771  0.00  0.00    +0.000 A 
ATOM     20  C   UNL     1       7.408   4.782  13.830  0.00  0.00    +0.000 A 
ATOM     21  O   UNL     1       7.308   5.668  14.853  0.00  0.00    +0.000 OA
ENDBRANCH  16  17
ENDBRANCH   2  12
TORSDOF 3
ENDMDL
MODEL 6
REMARK VINA RESULT:      -7.2      3.378      6.243
REMARK  Name = 
REMARK  3 active torsions:
REMARK  status: ('A' for Active; 'I' for Inactive)
REMARK    1  A    between atoms: S_2  and  C_4
REMARK    2  A    between atoms: S_2  and  N_12
REMARK    3  A    between atoms: C_16  and  C_17
REMARK                            x       y       z     vdW  Elec       q    Type
REMARK                         _______ _______ _______ _____ _____    ______ ____
ROOT
ATOM      1  O   UNL     1       7.816   4.095  16.705  0.00  0.00    +0.000 OA
ATOM      2  S   UNL     1       7.063   5.129  16.031  0.00  0.00    +0.000 S 
ATOM      3  O   UNL     1       7.528   6.499  16.047  0.00  0.00    +0.000 OA
ENDROOT
BRANCH   2   4
ATOM      4  C   UNL     1       6.886   4.676  14.328  0.00  0.00    +0.000 A 
ATOM      5  C   UNL     1       5.794   3.895  13.932  0.00  0.00    +0.000 A 
ATOM      6  C   UNL     1       5.673   3.525  12.599  0.00  0.00    +0.000 A 
ATOM      7  F   UNL     1       4.646   2.753  12.221  0.00  0.00    +0.000 F 
ATOM      8  C   UNL     1       6.603   3.934  11.648  0.00  0.00    +0.000 A 
ATOM      9  C   UNL     1       7.663   4.754  12.039  0.00  0.00    +0.000 A 
ATOM     10  C   UNL     1       7.795   5.130  13.376  0.00  0.00    +0.000 A 
ATOM     11  F   UNL     1       8.839   5.898  13.708  0.00  0.00    +0.000 F 
ENDBRANCH   2   4
BRANCH   2  12
ATOM     12  N   UNL     1       5.481   5.122  16.637  0.00  0.00    +0.000 NA
ATOM     13  C   UNL     1       4.664   6.339  16.497  0.00  0.00    +0.000 C 
ATOM     14  C   UNL     1       4.546   6.899  17.901  0.00  0.00    +0.000 C 
ATOM     15  C   UNL     1       4.756   5.722  18.842  0.00  0.00    +0.000 C 
ATOM     16  C   UNL     1       5.246   4.548  17.981  0.00  0.00    +0.000 C 
BRANCH  16  17
ATOM     17  C   UNL     1       4.186   3.493  17.928  0.00  0.00    +0.000 A 
ATOM     18  C   UNL     1       3.041   3.297  17.180  0.00  0.00    +0.000 A 
ATOM     19  C   UNL     1       2.382   2.174  17.736  0.00  0.00    +0.000 A 
ATOM     20  C   UNL     1       3.181   1.730  18.762  0.00  0.00    +0.000 A 
ATOM     21  O   UNL     1       4.276   2.521  18.887  0.00  0.00    +0.000 OA
ENDBRANCH  16  17
ENDBRANCH   2  12
TORSDOF 3
ENDMDL
MODEL 7
REMARK VINA RESULT:      -7.2      2.223      3.025
REMARK  Name = 
REMARK  3 active torsions:
REMARK  status: ('A' for Active; 'I' for Inactive)
REMARK    1  A    between atoms: S_2  and  C_4
REMARK    2  A    between atoms: S_2  and  N_12
REMARK    3  A    between atoms: C_16  and  C_17
REMARK                            x       y       z     vdW  Elec       q    Type
REMARK                         _______ _______ _______ _____ _____    ______ ____
ROOT
ATOM      1  O   UNL     1       5.472   2.866  19.671  0.00  0.00    +0.000 OA
ATOM      2  S   UNL     1       4.611   3.455  18.670  0.00  0.00    +0.000 S 
ATOM      3  O   UNL     1       4.676   3.007  17.295  0.00  0.00    +0.000 OA
ENDROOT
BRANCH   2   4
ATOM      4  C   UNL     1       2.929   3.254  19.187  0.00  0.00    +0.000 A 
ATOM      5  C   UNL     1       2.649   2.997  20.535  0.00  0.00    +0.000 A 
ATOM      6  C   UNL     1       1.329   2.819  20.931  0.00  0.00    +0.000 A 
ATOM      7  F   UNL     1       1.058   2.544  22.213  0.00  0.00    +0.000 F 
ATOM      8  C   UNL     1       0.283   2.913  20.019  0.00  0.00    +0.000 A 
ATOM      9  C   UNL     1       0.563   3.218  18.686  0.00  0.00    +0.000 A 
ATOM     10  C   UNL     1       1.885   3.397  18.277  0.00  0.00    +0.000 A 
ATOM     11  F   UNL     1       2.109   3.666  16.986  0.00  0.00    +0.000 F 
ENDBRANCH   2   4
BRANCH   2  12
ATOM     12  N   UNL     1       4.857   5.131  18.671  0.00  0.00    +0.000 NA
ATOM     13  C   UNL     1       3.810   6.000  19.234  0.00  0.00    +0.000 C 
ATOM     14  C   UNL     1       3.199   6.707  18.040  0.00  0.00    +0.000 C 
ATOM     15  C   UNL     1       4.265   6.698  16.955  0.00  0.00    +0.000 C 
ATOM     16  C   UNL     1       5.385   5.764  17.441  0.00  0.00    +0.000 C 
BRANCH  16  17
ATOM     17  C   UNL     1       6.608   6.570  17.744  0.00  0.00    +0.000 A 
ATOM     18  C   UNL     1       7.673   6.437  18.614  0.00  0.00    +0.000 A 
ATOM     19  C   UNL     1       8.421   7.637  18.526  0.00  0.00    +0.000 A 
ATOM     20  C   UNL     1       7.791   8.411  17.581  0.00  0.00    +0.000 A 
ATOM     21  O   UNL     1       6.693   7.774  17.102  0.00  0.00    +0.000 OA
ENDBRANCH  16  17
ENDBRANCH   2  12
TORSDOF 3
ENDMDL
MODEL 8
REMARK VINA RESULT:      -7.1      2.636      6.005
REMARK  Name = 
REMARK  3 active torsions:
REMARK  status: ('A' for Active; 'I' for Inactive)
REMARK    1  A    between atoms: S_2  and  C_4
REMARK    2  A    between atoms: S_2  and  N_12
REMARK    3  A    between atoms: C_16  and  C_17
REMARK                            x       y       z     vdW  Elec       q    Type
REMARK                         _______ _______ _______ _____ _____    ______ ____
ROOT
ATOM      1  O   UNL     1       2.346   3.052  16.863  0.00  0.00    +0.000 OA
ATOM      2  S   UNL     1       3.408   2.924  17.836  0.00  0.00    +0.000 S 
ATOM      3  O   UNL     1       3.915   1.617  18.196  0.00  0.00    +0.000 OA
ENDROOT
BRANCH   2   4
ATOM      4  C   UNL     1       4.797   3.869  17.278  0.00  0.00    +0.000 A 
ATOM      5  C   UNL     1       4.944   4.138  15.912  0.00  0.00    +0.000 A 
ATOM      6  C   UNL     1       6.048   4.861  15.478  0.00  0.00    +0.000 A 
ATOM      7  F   UNL     1       6.209   5.095  14.170  0.00  0.00    +0.000 F 
ATOM      8  C   UNL     1       6.996   5.340  16.377  0.00  0.00    +0.000 A 
ATOM      9  C   UNL     1       6.819   5.113  17.743  0.00  0.00    +0.000 A 
ATOM     10  C   UNL     1       5.715   4.385  18.189  0.00  0.00    +0.000 A 
ATOM     11  F   UNL     1       5.598   4.172  19.504  0.00  0.00    +0.000 F 
ENDBRANCH   2   4
BRANCH   2  12
ATOM     12  N   UNL     1       2.920   3.691  19.265  0.00  0.00    +0.000 NA
ATOM     13  C   UNL     1       3.095   2.982  20.544  0.00  0.00    +0.000 C 
ATOM     14  C   UNL     1       1.693   2.614  20.987  0.00  0.00    +0.000 C 
ATOM     15  C   UNL     1       0.763   3.609  20.309  0.00  0.00    +0.000 C 
ATOM     16  C   UNL     1       1.609   4.378  19.282  0.00  0.00    +0.000 C 
BRANCH  16  17
ATOM     17  C   UNL     1       1.761   5.799  19.728  0.00  0.00    +0.000 A 
ATOM     18  C   UNL     1       1.412   6.508  20.861  0.00  0.00    +0.000 A 
ATOM     19  C   UNL     1       1.693   7.869  20.588  0.00  0.00    +0.000 A 
ATOM     20  C   UNL     1       2.232   7.903  19.324  0.00  0.00    +0.000 A 
ATOM     21  O   UNL     1       2.278   6.655  18.795  0.00  0.00    +0.000 OA
ENDBRANCH  16  17
ENDBRANCH   2  12
TORSDOF 3
ENDMDL
MODEL 9
REMARK VINA RESULT:      -7.0      2.724      5.867
REMARK  Name = 
REMARK  3 active torsions:
REMARK  status: ('A' for Active; 'I' for Inactive)
REMARK    1  A    between atoms: S_2  and  C_4
REMARK    2  A    between atoms: S_2  and  N_12
REMARK    3  A    between atoms: C_16  and  C_17
REMARK                            x       y       z     vdW  Elec       q    Type
REMARK                         _______ _______ _______ _____ _____    ______ ____
ROOT
ATOM      1  O   UNL     1       4.069   1.935  17.769  0.00  0.00    +0.000 OA
ATOM      2  S   UNL     1       4.435   2.979  18.701  0.00  0.00    +0.000 S 
ATOM      3  O   UNL     1       5.111   2.650  19.937  0.00  0.00    +0.000 OA
ENDROOT
BRANCH   2   4
ATOM      4  C   UNL     1       5.463   4.149  17.859  0.00  0.00    +0.000 A 
ATOM      5  C   UNL     1       5.756   3.958  16.503  0.00  0.00    +0.000 A 
ATOM      6  C   UNL     1       6.581   4.868  15.854  0.00  0.00    +0.000 A 
ATOM      7  F   UNL     1       6.889   4.674  14.565  0.00  0.00    +0.000 F 
ATOM      8  C   UNL     1       7.102   5.974  16.519  0.00  0.00    +0.000 A 
ATOM      9  C   UNL     1       6.766   6.187  17.857  0.00  0.00    +0.000 A 
ATOM     10  C   UNL     1       5.940   5.278  18.519  0.00  0.00    +0.000 A 
ATOM     11  F   UNL     1       5.663   5.510  19.807  0.00  0.00    +0.000 F 
ENDBRANCH   2   4
BRANCH   2  12
ATOM     12  N   UNL     1       3.040   3.852  19.102  0.00  0.00    +0.000 NA
ATOM     13  C   UNL     1       1.901   3.133  19.697  0.00  0.00    +0.000 C 
ATOM     14  C   UNL     1       0.838   3.115  18.617  0.00  0.00    +0.000 C 
ATOM     15  C   UNL     1       1.140   4.297  17.709  0.00  0.00    +0.000 C 
ATOM     16  C   UNL     1       2.519   4.834  18.124  0.00  0.00    +0.000 C 
BRANCH  16  17
ATOM     17  C   UNL     1       2.360   6.180  18.757  0.00  0.00    +0.000 A 
ATOM     18  C   UNL     1       2.117   6.632  20.039  0.00  0.00    +0.000 A 
ATOM     19  C   UNL     1       1.914   8.030  19.944  0.00  0.00    +0.000 A 
ATOM     20  C   UNL     1       2.084   8.352  18.618  0.00  0.00    +0.000 A 
ATOM     21  O   UNL     1       2.354   7.239  17.892  0.00  0.00    +0.000 OA
ENDBRANCH  16  17
ENDBRANCH   2  12
TORSDOF 3
ENDMDL
