MODEL 1
REMARK VINA RESULT:      -6.7      0.000      0.000
REMARK  Name = 
REMARK  8 active torsions:
REMARK  status: ('A' for Active; 'I' for Inactive)
REMARK    1  A    between atoms: C_1  and  O_2
REMARK    2  A    between atoms: O_2  and  C_3
REMARK    3  A    between atoms: C_5  and  C_6
REMARK    4  A    between atoms: C_6  and  C_7
REMARK    5  A    between atoms: C_7  and  O_9
REMARK    6  A    between atoms: C_11  and  C_12
REMARK    7  A    between atoms: C_12  and  C_13
REMARK    8  A    between atoms: C_12  and  C_14
REMARK                            x       y       z     vdW  Elec       q    Type
REMARK                         _______ _______ _______ _____ _____    ______ ____
ROOT
ATOM      1  C   UNL     1       3.464   6.613  17.686  0.00  0.00    +0.000 A 
ATOM      2  C   UNL     1       4.533   6.025  17.005  0.00  0.00    +0.000 A 
ATOM      3  C   UNL     1       4.624   4.633  16.869  0.00  0.00    +0.000 A 
ATOM      4  C   UNL     1       3.620   3.833  17.434  0.00  0.00    +0.000 A 
ATOM      5  C   UNL     1       2.531   4.402  18.110  0.00  0.00    +0.000 A 
ATOM      6  C   UNL     1       2.466   5.802  18.232  0.00  0.00    +0.000 A 
ENDROOT
BRANCH   5   7
ATOM      7  C   UNL     1       1.430   3.502  18.650  0.00  0.00    +0.000 C 
ATOM      8  C   UNL     1       1.829   2.025  18.641  0.00  0.00    +0.000 C 
ATOM      9  C   UNL     1       0.986   3.938  20.050  0.00  0.00    +0.000 C 
ENDBRANCH   5   7
BRANCH   1  11
ATOM     10  C   UNL     1       2.256   8.658  17.851  0.00  0.00    +0.000 C 
ATOM     11  O   UNL     1       3.501   7.980  17.734  0.00  0.00    +0.000 OA
ENDBRANCH   1  11
BRANCH   3  12
ATOM     12  C   UNL     1       5.736   4.000  16.063  0.00  0.00    +0.000 C 
BRANCH  12  13
ATOM     13  C   UNL     1       7.096   4.658  16.144  0.00  0.00    +0.000 C 
ATOM     14  O   UNL     1       7.454   5.534  15.368  0.00  0.00    +0.000 OA
BRANCH  13  15
ATOM     15  O   UNL     1       7.936   4.153  17.074  0.00  0.00    +0.000 OA
ATOM     16  H   UNL     1       7.854   4.570  17.954  0.00  0.00    +0.000 HD
ENDBRANCH  13  15
ENDBRANCH  12  13
ENDBRANCH   3  12
TORSDOF 5
ENDMDL
MODEL 2
REMARK VINA RESULT:      -6.4      2.116      2.638
REMARK  Name = 
REMARK  8 active torsions:
REMARK  status: ('A' for Active; 'I' for Inactive)
REMARK    1  A    between atoms: C_1  and  O_2
REMARK    2  A    between atoms: O_2  and  C_3
REMARK    3  A    between atoms: C_5  and  C_6
REMARK    4  A    between atoms: C_6  and  C_7
REMARK    5  A    between atoms: C_7  and  O_9
REMARK    6  A    between atoms: C_11  and  C_12
REMARK    7  A    between atoms: C_12  and  C_13
REMARK    8  A    between atoms: C_12  and  C_14
REMARK                            x       y       z     vdW  Elec       q    Type
REMARK                         _______ _______ _______ _____ _____    ______ ____
ROOT
ATOM      1  C   UNL     1       5.656   4.931  19.048  0.00  0.00    +0.000 A 
ATOM      2  C   UNL     1       5.959   5.156  17.702  0.00  0.00    +0.000 A 
ATOM      3  C   UNL     1       4.993   4.967  16.704  0.00  0.00    +0.000 A 
ATOM      4  C   UNL     1       3.710   4.542  17.078  0.00  0.00    +0.000 A 
ATOM      5  C   UNL     1       3.380   4.323  18.423  0.00  0.00    +0.000 A 
ATOM      6  C   UNL     1       4.370   4.520  19.404  0.00  0.00    +0.000 A 
ENDROOT
BRANCH   5   7
ATOM      7  C   UNL     1       1.959   3.927  18.792  0.00  0.00    +0.000 C 
ATOM      8  C   UNL     1       1.745   2.412  18.744  0.00  0.00    +0.000 C 
ATOM      9  C   UNL     1       1.557   4.489  20.159  0.00  0.00    +0.000 C 
ENDBRANCH   5   7
BRANCH   1  11
ATOM     10  C   UNL     1       7.865   5.759  19.370  0.00  0.00    +0.000 C 
ATOM     11  O   UNL     1       6.692   5.163  19.911  0.00  0.00    +0.000 OA
ENDBRANCH   1  11
BRANCH   3  12
ATOM     12  C   UNL     1       5.295   5.288  15.257  0.00  0.00    +0.000 C 
BRANCH  12  13
ATOM     13  C   UNL     1       6.562   4.699  14.678  0.00  0.00    +0.000 C 
ATOM     14  O   UNL     1       7.616   5.319  14.627  0.00  0.00    +0.000 OA
BRANCH  13  15
ATOM     15  O   UNL     1       6.439   3.470  14.131  0.00  0.00    +0.000 OA
ATOM     16  H   UNL     1       7.290   3.050  13.897  0.00  0.00    +0.000 HD
ENDBRANCH  13  15
ENDBRANCH  12  13
ENDBRANCH   3  12
TORSDOF 5
ENDMDL
MODEL 3
REMARK VINA RESULT:      -6.3      1.085      1.272
REMARK  Name = 
REMARK  8 active torsions:
REMARK  status: ('A' for Active; 'I' for Inactive)
REMARK    1  A    between atoms: C_1  and  O_2
REMARK    2  A    between atoms: O_2  and  C_3
REMARK    3  A    between atoms: C_5  and  C_6
REMARK    4  A    between atoms: C_6  and  C_7
REMARK    5  A    between atoms: C_7  and  O_9
REMARK    6  A    between atoms: C_11  and  C_12
REMARK    7  A    between atoms: C_12  and  C_13
REMARK    8  A    between atoms: C_12  and  C_14
REMARK                            x       y       z     vdW  Elec       q    Type
REMARK                         _______ _______ _______ _____ _____    ______ ____
ROOT
ATOM      1  C   UNL     1       2.806   6.374  18.238  0.00  0.00    +0.000 A 
ATOM      2  C   UNL     1       3.934   6.606  17.445  0.00  0.00    +0.000 A 
ATOM      3  C   UNL     1       4.584   5.551  16.790  0.00  0.00    +0.000 A 
ATOM      4  C   UNL     1       4.084   4.250  16.944  0.00  0.00    +0.000 A 
ATOM      5  C   UNL     1       2.947   3.995  17.724  0.00  0.00    +0.000 A 
ATOM      6  C   UNL     1       2.315   5.073  18.371  0.00  0.00    +0.000 A 
ENDROOT
BRANCH   5   7
ATOM      7  C   UNL     1       2.399   2.580  17.811  0.00  0.00    +0.000 C 
ATOM      8  C   UNL     1       3.439   1.584  18.330  0.00  0.00    +0.000 C 
ATOM      9  C   UNL     1       1.123   2.524  18.657  0.00  0.00    +0.000 C 
ENDBRANCH   5   7
BRANCH   1  11
ATOM     10  C   UNL     1       2.197   8.662  18.000  0.00  0.00    +0.000 C 
ATOM     11  O   UNL     1       2.272   7.495  18.810  0.00  0.00    +0.000 OA
ENDBRANCH   1  11
BRANCH   3  12
ATOM     12  C   UNL     1       5.755   5.811  15.868  0.00  0.00    +0.000 C 
BRANCH  12  13
ATOM     13  C   UNL     1       6.735   4.676  15.674  0.00  0.00    +0.000 C 
ATOM     14  O   UNL     1       6.665   3.895  14.735  0.00  0.00    +0.000 OA
BRANCH  13  15
ATOM     15  O   UNL     1       7.647   4.516  16.658  0.00  0.00    +0.000 OA
ATOM     16  H   UNL     1       7.263   4.474  17.555  0.00  0.00    +0.000 HD
ENDBRANCH  13  15
ENDBRANCH  12  13
ENDBRANCH   3  12
TORSDOF 5
ENDMDL
MODEL 4
REMARK VINA RESULT:      -6.2      2.289      2.878
REMARK  Name = 
REMARK  8 active torsions:
REMARK  status: ('A' for Active; 'I' for Inactive)
REMARK    1  A    between atoms: C_1  and  O_2
REMARK    2  A    between atoms: O_2  and  C_3
REMARK    3  A    between atoms: C_5  and  C_6
REMARK    4  A    between atoms: C_6  and  C_7
REMARK    5  A    between atoms: C_7  and  O_9
REMARK    6  A    between atoms: C_11  and  C_12
REMARK    7  A    between atoms: C_12  and  C_13
REMARK    8  A    between atoms: C_12  and  C_14
REMARK                            x       y       z     vdW  Elec       q    Type
REMARK                         _______ _______ _______ _____ _____    ______ ____
ROOT
ATOM      1  C   UNL     1       5.902   4.979  18.977  0.00  0.00    +0.000 A 
ATOM      2  C   UNL     1       6.168   5.346  17.655  0.00  0.00    +0.000 A 
ATOM      3  C   UNL     1       5.249   5.077  16.632  0.00  0.00    +0.000 A 
ATOM      4  C   UNL     1       4.050   4.426  16.957  0.00  0.00    +0.000 A 
ATOM      5  C   UNL     1       3.755   4.059  18.278  0.00  0.00    +0.000 A 
ATOM      6  C   UNL     1       4.697   4.342  19.285  0.00  0.00    +0.000 A 
ENDROOT
BRANCH   5   7
ATOM      7  C   UNL     1       2.415   3.415  18.598  0.00  0.00    +0.000 C 
ATOM      8  C   UNL     1       2.079   3.481  20.089  0.00  0.00    +0.000 C 
ATOM      9  C   UNL     1       1.287   4.022  17.758  0.00  0.00    +0.000 C 
ENDBRANCH   5   7
BRANCH   1  11
ATOM     10  C   UNL     1       8.080   5.869  19.338  0.00  0.00    +0.000 C 
ATOM     11  O   UNL     1       6.884   5.311  19.870  0.00  0.00    +0.000 OA
ENDBRANCH   1  11
BRANCH   3  12
ATOM     12  C   UNL     1       5.499   5.545  15.216  0.00  0.00    +0.000 C 
BRANCH  12  13
ATOM     13  C   UNL     1       6.576   4.822  14.439  0.00  0.00    +0.000 C 
ATOM     14  O   UNL     1       6.396   3.728  13.922  0.00  0.00    +0.000 OA
BRANCH  13  15
ATOM     15  O   UNL     1       7.789   5.416  14.427  0.00  0.00    +0.000 OA
ATOM     16  H   UNL     1       8.481   4.921  14.907  0.00  0.00    +0.000 HD
ENDBRANCH  13  15
ENDBRANCH  12  13
ENDBRANCH   3  12
TORSDOF 5
ENDMDL
MODEL 5
REMARK VINA RESULT:      -6.2      2.496      4.814
REMARK  Name = 
REMARK  8 active torsions:
REMARK  status: ('A' for Active; 'I' for Inactive)
REMARK    1  A    between atoms: C_1  and  O_2
REMARK    2  A    between atoms: O_2  and  C_3
REMARK    3  A    between atoms: C_5  and  C_6
REMARK    4  A    between atoms: C_6  and  C_7
REMARK    5  A    between atoms: C_7  and  O_9
REMARK    6  A    between atoms: C_11  and  C_12
REMARK    7  A    between atoms: C_12  and  C_13
REMARK    8  A    between atoms: C_12  and  C_14
REMARK                            x       y       z     vdW  Elec       q    Type
REMARK                         _______ _______ _______ _____ _____    ______ ____
ROOT
ATOM      1  C   UNL     1       3.079   6.389  18.051  0.00  0.00    +0.000 A 
ATOM      2  C   UNL     1       2.347   5.214  18.247  0.00  0.00    +0.000 A 
ATOM      3  C   UNL     1       2.783   3.995  17.710  0.00  0.00    +0.000 A 
ATOM      4  C   UNL     1       3.972   3.971  16.966  0.00  0.00    +0.000 A 
ATOM      5  C   UNL     1       4.729   5.134  16.768  0.00  0.00    +0.000 A 
ATOM      6  C   UNL     1       4.267   6.345  17.318  0.00  0.00    +0.000 A 
ENDROOT
BRANCH   5   7
ATOM      7  C   UNL     1       6.046   5.053  16.012  0.00  0.00    +0.000 C 
ATOM      8  C   UNL     1       7.201   4.591  16.903  0.00  0.00    +0.000 C 
ATOM      9  C   UNL     1       5.926   4.162  14.771  0.00  0.00    +0.000 C 
ENDBRANCH   5   7
BRANCH   1  11
ATOM     10  C   UNL     1       2.226   8.595  17.785  0.00  0.00    +0.000 C 
ATOM     11  O   UNL     1       2.539   7.501  18.637  0.00  0.00    +0.000 OA
ENDBRANCH   1  11
BRANCH   3  12
ATOM     12  C   UNL     1       2.035   2.710  17.989  0.00  0.00    +0.000 C 
BRANCH  12  13
ATOM     13  C   UNL     1       1.396   2.576  19.353  0.00  0.00    +0.000 C 
ATOM     14  O   UNL     1       2.044   2.359  20.369  0.00  0.00    +0.000 OA
BRANCH  13  15
ATOM     15  O   UNL     1       0.046   2.617  19.373  0.00  0.00    +0.000 OA
ATOM     16  H   UNL     1      -0.382   1.747  19.257  0.00  0.00    +0.000 HD
ENDBRANCH  13  15
ENDBRANCH  12  13
ENDBRANCH   3  12
TORSDOF 5
ENDMDL
MODEL 6
REMARK VINA RESULT:      -6.2      2.459      4.354
REMARK  Name = 
REMARK  8 active torsions:
REMARK  status: ('A' for Active; 'I' for Inactive)
REMARK    1  A    between atoms: C_1  and  O_2
REMARK    2  A    between atoms: O_2  and  C_3
REMARK    3  A    between atoms: C_5  and  C_6
REMARK    4  A    between atoms: C_6  and  C_7
REMARK    5  A    between atoms: C_7  and  O_9
REMARK    6  A    between atoms: C_11  and  C_12
REMARK    7  A    between atoms: C_12  and  C_13
REMARK    8  A    between atoms: C_12  and  C_14
REMARK                            x       y       z     vdW  Elec       q    Type
REMARK                         _______ _______ _______ _____ _____    ______ ____
ROOT
ATOM      1  C   UNL     1       2.979   6.523  18.042  0.00  0.00    +0.000 A 
ATOM      2  C   UNL     1       2.505   5.212  18.142  0.00  0.00    +0.000 A 
ATOM      3  C   UNL     1       3.249   4.135  17.641  0.00  0.00    +0.000 A 
ATOM      4  C   UNL     1       4.485   4.395  17.032  0.00  0.00    +0.000 A 
ATOM      5  C   UNL     1       4.987   5.700  16.931  0.00  0.00    +0.000 A 
ATOM      6  C   UNL     1       4.217   6.762  17.442  0.00  0.00    +0.000 A 
ENDROOT
BRANCH   5   7
ATOM      7  C   UNL     1       6.361   5.931  16.323  0.00  0.00    +0.000 C 
ATOM      8  C   UNL     1       7.346   6.540  17.323  0.00  0.00    +0.000 C 
ATOM      9  C   UNL     1       6.929   4.645  15.714  0.00  0.00    +0.000 C 
ENDBRANCH   5   7
BRANCH   1  11
ATOM     10  C   UNL     1       2.195   8.770  18.002  0.00  0.00    +0.000 C 
ATOM     11  O   UNL     1       2.152   7.470  18.579  0.00  0.00    +0.000 OA
ENDBRANCH   1  11
BRANCH   3  12
ATOM     12  C   UNL     1       2.775   2.710  17.821  0.00  0.00    +0.000 C 
BRANCH  12  13
ATOM     13  C   UNL     1       3.559   1.848  18.786  0.00  0.00    +0.000 C 
ATOM     14  O   UNL     1       3.832   2.208  19.923  0.00  0.00    +0.000 OA
BRANCH  13  15
ATOM     15  O   UNL     1       4.024   0.682  18.284  0.00  0.00    +0.000 OA
ATOM     16  H   UNL     1       4.095   0.667  17.310  0.00  0.00    +0.000 HD
ENDBRANCH  13  15
ENDBRANCH  12  13
ENDBRANCH   3  12
TORSDOF 5
ENDMDL
MODEL 7
REMARK VINA RESULT:      -6.1      1.924      3.529
REMARK  Name = 
REMARK  8 active torsions:
REMARK  status: ('A' for Active; 'I' for Inactive)
REMARK    1  A    between atoms: C_1  and  O_2
REMARK    2  A    between atoms: O_2  and  C_3
REMARK    3  A    between atoms: C_5  and  C_6
REMARK    4  A    between atoms: C_6  and  C_7
REMARK    5  A    between atoms: C_7  and  O_9
REMARK    6  A    between atoms: C_11  and  C_12
REMARK    7  A    between atoms: C_12  and  C_13
REMARK    8  A    between atoms: C_12  and  C_14
REMARK                            x       y       z     vdW  Elec       q    Type
REMARK                         _______ _______ _______ _____ _____    ______ ____
ROOT
ATOM      1  C   UNL     1       3.433   3.527  19.217  0.00  0.00    +0.000 A 
ATOM      2  C   UNL     1       4.405   3.342  18.229  0.00  0.00    +0.000 A 
ATOM      3  C   UNL     1       4.684   4.348  17.294  0.00  0.00    +0.000 A 
ATOM      4  C   UNL     1       3.965   5.551  17.362  0.00  0.00    +0.000 A 
ATOM      5  C   UNL     1       2.995   5.763  18.352  0.00  0.00    +0.000 A 
ATOM      6  C   UNL     1       2.736   4.735  19.278  0.00  0.00    +0.000 A 
ENDROOT
BRANCH   5   7
ATOM      7  C   UNL     1       2.286   7.106  18.432  0.00  0.00    +0.000 C 
ATOM      8  C   UNL     1       2.059   7.559  19.876  0.00  0.00    +0.000 C 
ATOM      9  C   UNL     1       3.029   8.181  17.635  0.00  0.00    +0.000 C 
ENDBRANCH   5   7
BRANCH   1  11
ATOM     10  C   UNL     1       2.605   2.714  21.295  0.00  0.00    +0.000 C 
ATOM     11  O   UNL     1       3.274   2.465  20.064  0.00  0.00    +0.000 OA
ENDBRANCH   1  11
BRANCH   3  12
ATOM     12  C   UNL     1       5.790   4.181  16.276  0.00  0.00    +0.000 C 
BRANCH  12  13
ATOM     13  C   UNL     1       7.101   4.875  16.575  0.00  0.00    +0.000 C 
ATOM     14  O   UNL     1       7.346   6.014  16.202  0.00  0.00    +0.000 OA
BRANCH  13  15
ATOM     15  O   UNL     1       8.031   4.122  17.203  0.00  0.00    +0.000 OA
ATOM     16  H   UNL     1       8.552   4.608  17.872  0.00  0.00    +0.000 HD
ENDBRANCH  13  15
ENDBRANCH  12  13
ENDBRANCH   3  12
TORSDOF 5
ENDMDL
MODEL 8
REMARK VINA RESULT:      -6.1      1.742      3.580
REMARK  Name = 
REMARK  8 active torsions:
REMARK  status: ('A' for Active; 'I' for Inactive)
REMARK    1  A    between atoms: C_1  and  O_2
REMARK    2  A    between atoms: O_2  and  C_3
REMARK    3  A    between atoms: C_5  and  C_6
REMARK    4  A    between atoms: C_6  and  C_7
REMARK    5  A    between atoms: C_7  and  O_9
REMARK    6  A    between atoms: C_11  and  C_12
REMARK    7  A    between atoms: C_12  and  C_13
REMARK    8  A    between atoms: C_12  and  C_14
REMARK                            x       y       z     vdW  Elec       q    Type
REMARK                         _______ _______ _______ _____ _____    ______ ____
ROOT
ATOM      1  C   UNL     1       2.515   4.302  17.672  0.00  0.00    +0.000 A 
ATOM      2  C   UNL     1       3.792   4.204  17.112  0.00  0.00    +0.000 A 
ATOM      3  C   UNL     1       4.637   5.320  17.042  0.00  0.00    +0.000 A 
ATOM      4  C   UNL     1       4.178   6.546  17.543  0.00  0.00    +0.000 A 
ATOM      5  C   UNL     1       2.906   6.666  18.121  0.00  0.00    +0.000 A 
ATOM      6  C   UNL     1       2.079   5.529  18.177  0.00  0.00    +0.000 A 
ENDROOT
BRANCH   5   7
ATOM      7  C   UNL     1       2.473   7.998  18.712  0.00  0.00    +0.000 C 
ATOM      8  C   UNL     1       1.578   8.794  17.760  0.00  0.00    +0.000 C 
ATOM      9  C   UNL     1       1.791   7.813  20.072  0.00  0.00    +0.000 C 
ENDBRANCH   5   7
BRANCH   1  11
ATOM     10  C   UNL     1       2.545   1.927  17.828  0.00  0.00    +0.000 C 
ATOM     11  O   UNL     1       1.805   3.133  17.680  0.00  0.00    +0.000 OA
ENDBRANCH   1  11
BRANCH   3  12
ATOM     12  C   UNL     1       6.048   5.196  16.510  0.00  0.00    +0.000 C 
BRANCH  12  13
ATOM     13  C   UNL     1       7.085   4.631  17.455  0.00  0.00    +0.000 C 
ATOM     14  O   UNL     1       8.164   4.202  17.072  0.00  0.00    +0.000 OA
BRANCH  13  15
ATOM     15  O   UNL     1       6.710   4.542  18.750  0.00  0.00    +0.000 OA
ATOM     16  H   UNL     1       7.356   4.086  19.323  0.00  0.00    +0.000 HD
ENDBRANCH  13  15
ENDBRANCH  12  13
ENDBRANCH   3  12
TORSDOF 5
ENDMDL
MODEL 9
REMARK VINA RESULT:      -6.1      0.800      1.067
REMARK  Name = 
REMARK  8 active torsions:
REMARK  status: ('A' for Active; 'I' for Inactive)
REMARK    1  A    between atoms: C_1  and  O_2
REMARK    2  A    between atoms: O_2  and  C_3
REMARK    3  A    between atoms: C_5  and  C_6
REMARK    4  A    between atoms: C_6  and  C_7
REMARK    5  A    between atoms: C_7  and  O_9
REMARK    6  A    between atoms: C_11  and  C_12
REMARK    7  A    between atoms: C_12  and  C_13
REMARK    8  A    between atoms: C_12  and  C_14
REMARK                            x       y       z     vdW  Elec       q    Type
REMARK                         _______ _______ _______ _____ _____    ______ ____
ROOT
ATOM      1  C   UNL     1       3.270   6.928  17.832  0.00  0.00    +0.000 A 
ATOM      2  C   UNL     1       4.475   6.391  17.372  0.00  0.00    +0.000 A 
ATOM      3  C   UNL     1       4.691   5.005  17.361  0.00  0.00    +0.000 A 
ATOM      4  C   UNL     1       3.672   4.161  17.825  0.00  0.00    +0.000 A 
ATOM      5  C   UNL     1       2.450   4.676  18.280  0.00  0.00    +0.000 A 
ATOM      6  C   UNL     1       2.262   6.071  18.280  0.00  0.00    +0.000 A 
ENDROOT
BRANCH   5   7
ATOM      7  C   UNL     1       1.348   3.723  18.713  0.00  0.00    +0.000 C 
ATOM      8  C   UNL     1       1.714   2.258  18.463  0.00  0.00    +0.000 C 
ATOM      9  C   UNL     1       0.958   3.944  20.178  0.00  0.00    +0.000 C 
ENDBRANCH   5   7
BRANCH   1  11
ATOM     10  C   UNL     1       1.941   8.887  18.084  0.00  0.00    +0.000 C 
ATOM     11  O   UNL     1       3.197   8.293  17.777  0.00  0.00    +0.000 OA
ENDBRANCH   1  11
BRANCH   3  12
ATOM     12  C   UNL     1       5.962   4.419  16.788  0.00  0.00    +0.000 C 
BRANCH  12  13
ATOM     13  C   UNL     1       6.362   4.880  15.404  0.00  0.00    +0.000 C 
ATOM     14  O   UNL     1       7.369   5.542  15.193  0.00  0.00    +0.000 OA
BRANCH  13  15
ATOM     15  O   UNL     1       5.484   4.595  14.416  0.00  0.00    +0.000 OA
ATOM     16  H   UNL     1       5.887   4.542  13.528  0.00  0.00    +0.000 HD
ENDBRANCH  13  15
ENDBRANCH  12  13
ENDBRANCH   3  12
TORSDOF 5
ENDMDL
