MODEL 1
REMARK VINA RESULT:      -7.9      0.000      0.000
REMARK  Name = 
REMARK  5 active torsions:
REMARK  status: ('A' for Active; 'I' for Inactive)
REMARK    1  A    between atoms: C_1  and  C_2
REMARK    2  A    between atoms: C_2  and  C_3
REMARK    3  A    between atoms: C_2  and  N_4
REMARK    4  A    between atoms: C_8  and  C_10
REMARK    5  A    between atoms: C_15  and  C_17
REMARK                            x       y       z     vdW  Elec       q    Type
REMARK                         _______ _______ _______ _____ _____    ______ ____
ROOT
ATOM      1  C   UNL     1      -0.197  10.962  20.767  0.00  0.00    +0.000 A 
ATOM      2  C   UNL     1      -0.381  10.914  22.140  0.00  0.00    +0.000 A 
ATOM      3  S   UNL     1       0.177   9.411  22.766  0.00  0.00    +0.000 S 
ATOM      4  C   UNL     1       0.640   8.957  21.192  0.00  0.00    +0.000 A 
ATOM      5  N   UNL     1       1.301   7.765  21.084  0.00  0.00    +0.000 N 
ATOM      6  C   UNL     1       1.983   7.447  19.927  0.00  0.00    +0.000 C 
ATOM      7  O   UNL     1       2.186   8.189  18.972  0.00  0.00    +0.000 OA
ATOM      8  N   UNL     1       0.322   9.786  20.237  0.00  0.00    +0.000 NA
ATOM      9  H   UNL     1       1.388   7.210  21.920  0.00  0.00    +0.000 HD
ENDROOT
BRANCH   1  14
ATOM     10  N   UNL     1       2.240  15.415  19.466  0.00  0.00    +0.000 NA
ATOM     11  C   UNL     1       0.804  15.466  19.086  0.00  0.00    +0.000 C 
ATOM     12  C   UNL     1       0.192  14.114  18.656  0.00  0.00    +0.000 C 
ATOM     13  N   UNL     1       0.465  13.048  19.624  0.00  0.00    +0.000 N 
ATOM     14  C   UNL     1      -0.541  12.128  19.935  0.00  0.00    +0.000 C 
ATOM     15  O   UNL     1      -1.702  12.288  19.557  0.00  0.00    +0.000 OA
ATOM     16  C   UNL     1       1.851  12.993  20.114  0.00  0.00    +0.000 C 
ATOM     17  C   UNL     1       2.357  14.386  20.526  0.00  0.00    +0.000 C 
BRANCH  10  19
ATOM     18  C   UNL     1       3.195  16.362  17.358  0.00  0.00    +0.000 C 
ATOM     19  C   UNL     1       3.154  15.167  18.323  0.00  0.00    +0.000 C 
ATOM     20  C   UNL     1       4.599  14.906  18.785  0.00  0.00    +0.000 C 
ENDBRANCH  10  19
ENDBRANCH   1  14
BRANCH   6  21
ATOM     21  C   UNL     1       2.568   6.080  19.868  0.00  0.00    +0.000 A 
ATOM     22  C   UNL     1       3.730   5.802  19.139  0.00  0.00    +0.000 A 
ATOM     23  C   UNL     1       4.281   4.519  19.179  0.00  0.00    +0.000 A 
ATOM     24  C   UNL     1       3.688   3.513  19.950  0.00  0.00    +0.000 A 
ATOM     25 CL   UNL     1       4.448   1.961  19.972  0.00  0.00    +0.000 Cl
ATOM     26  C   UNL     1       2.526   3.790  20.678  0.00  0.00    +0.000 A 
ATOM     27 CL   UNL     1       1.736   2.601  21.651  0.00  0.00    +0.000 Cl
ATOM     28  C   UNL     1       1.971   5.071  20.639  0.00  0.00    +0.000 A 
ENDBRANCH   6  21
TORSDOF 3
ENDMDL
MODEL 2
REMARK VINA RESULT:      -7.5      0.799      1.466
REMARK  Name = 
REMARK  5 active torsions:
REMARK  status: ('A' for Active; 'I' for Inactive)
REMARK    1  A    between atoms: C_1  and  C_2
REMARK    2  A    between atoms: C_2  and  C_3
REMARK    3  A    between atoms: C_2  and  N_4
REMARK    4  A    between atoms: C_8  and  C_10
REMARK    5  A    between atoms: C_15  and  C_17
REMARK                            x       y       z     vdW  Elec       q    Type
REMARK                         _______ _______ _______ _____ _____    ______ ____
ROOT
ATOM      1  C   UNL     1      -0.134  11.048  20.840  0.00  0.00    +0.000 A 
ATOM      2  C   UNL     1      -0.289  10.966  22.215  0.00  0.00    +0.000 A 
ATOM      3  S   UNL     1       0.230   9.426  22.784  0.00  0.00    +0.000 S 
ATOM      4  C   UNL     1       0.641   9.004  21.187  0.00  0.00    +0.000 A 
ATOM      5  N   UNL     1       1.257   7.793  21.028  0.00  0.00    +0.000 N 
ATOM      6  C   UNL     1       1.900   7.486  19.847  0.00  0.00    +0.000 C 
ATOM      7  O   UNL     1       2.108   8.248  18.909  0.00  0.00    +0.000 OA
ATOM      8  N   UNL     1       0.331   9.872  20.264  0.00  0.00    +0.000 NA
ATOM      9  H   UNL     1       1.342   7.210  21.846  0.00  0.00    +0.000 HD
ENDROOT
BRANCH   1  14
ATOM     10  N   UNL     1       2.442  15.435  19.583  0.00  0.00    +0.000 NA
ATOM     11  C   UNL     1       0.998  15.554  19.249  0.00  0.00    +0.000 C 
ATOM     12  C   UNL     1       0.319  14.240  18.803  0.00  0.00    +0.000 C 
ATOM     13  N   UNL     1       0.578  13.138  19.733  0.00  0.00    +0.000 N 
ATOM     14  C   UNL     1      -0.455  12.250  20.050  0.00  0.00    +0.000 C 
ATOM     15  O   UNL     1      -1.620  12.466  19.713  0.00  0.00    +0.000 OA
ATOM     16  C   UNL     1       1.975  13.013  20.178  0.00  0.00    +0.000 C 
ATOM     17  C   UNL     1       2.548  14.373  20.611  0.00  0.00    +0.000 C 
BRANCH  10  19
ATOM     18  C   UNL     1       3.188  16.303  17.360  0.00  0.00    +0.000 C 
ATOM     19  C   UNL     1       3.310  15.184  18.406  0.00  0.00    +0.000 C 
ATOM     20  C   UNL     1       4.797  15.085  18.796  0.00  0.00    +0.000 C 
ENDBRANCH  10  19
ENDBRANCH   1  14
BRANCH   6  21
ATOM     21  C   UNL     1       2.435   6.102  19.734  0.00  0.00    +0.000 A 
ATOM     22  C   UNL     1       2.106   5.103  20.656  0.00  0.00    +0.000 A 
ATOM     23  C   UNL     1       2.573   3.800  20.462  0.00  0.00    +0.000 A 
ATOM     24  C   UNL     1       3.358   3.485  19.346  0.00  0.00    +0.000 A 
ATOM     25 CL   UNL     1       3.870   1.845  19.159  0.00  0.00    +0.000 Cl
ATOM     26  C   UNL     1       3.688   4.484  18.425  0.00  0.00    +0.000 A 
ATOM     27 CL   UNL     1       4.652   4.173  17.026  0.00  0.00    +0.000 Cl
ATOM     28  C   UNL     1       3.224   5.787  18.617  0.00  0.00    +0.000 A 
ENDBRANCH   6  21
TORSDOF 3
ENDMDL
MODEL 3
REMARK VINA RESULT:      -7.2      7.472     10.711
REMARK  Name = 
REMARK  5 active torsions:
REMARK  status: ('A' for Active; 'I' for Inactive)
REMARK    1  A    between atoms: C_1  and  C_2
REMARK    2  A    between atoms: C_2  and  C_3
REMARK    3  A    between atoms: C_2  and  N_4
REMARK    4  A    between atoms: C_8  and  C_10
REMARK    5  A    between atoms: C_15  and  C_17
REMARK                            x       y       z     vdW  Elec       q    Type
REMARK                         _______ _______ _______ _____ _____    ______ ____
ROOT
ATOM      1  C   UNL     1       6.701   5.547  17.938  0.00  0.00    +0.000 A 
ATOM      2  C   UNL     1       7.357   4.925  18.990  0.00  0.00    +0.000 A 
ATOM      3  S   UNL     1       8.539   5.979  19.664  0.00  0.00    +0.000 S 
ATOM      4  C   UNL     1       8.076   7.173  18.543  0.00  0.00    +0.000 A 
ATOM      5  N   UNL     1       8.679   8.393  18.686  0.00  0.00    +0.000 N 
ATOM      6  C   UNL     1       8.168   9.503  18.045  0.00  0.00    +0.000 C 
ATOM      7  O   UNL     1       7.113   9.567  17.424  0.00  0.00    +0.000 OA
ATOM      8  N   UNL     1       7.193   6.816  17.654  0.00  0.00    +0.000 NA
ATOM      9  H   UNL     1       9.405   8.468  19.380  0.00  0.00    +0.000 HD
ENDROOT
BRANCH   1  14
ATOM     10  N   UNL     1       2.831   2.204  19.079  0.00  0.00    +0.000 NA
ATOM     11  C   UNL     1       2.974   2.368  17.608  0.00  0.00    +0.000 C 
ATOM     12  C   UNL     1       3.421   3.772  17.146  0.00  0.00    +0.000 C 
ATOM     13  N   UNL     1       4.605   4.244  17.868  0.00  0.00    +0.000 N 
ATOM     14  C   UNL     1       5.609   4.924  17.171  0.00  0.00    +0.000 C 
ATOM     15  O   UNL     1       5.614   4.986  15.941  0.00  0.00    +0.000 OA
ATOM     16  C   UNL     1       4.572   4.033  19.324  0.00  0.00    +0.000 C 
ATOM     17  C   UNL     1       4.128   2.602  19.673  0.00  0.00    +0.000 C 
BRANCH  10  19
ATOM     18  C   UNL     1       0.363   2.590  18.954  0.00  0.00    +0.000 C 
ATOM     19  C   UNL     1       1.683   2.948  19.655  0.00  0.00    +0.000 C 
ATOM     20  C   UNL     1       1.497   2.650  21.154  0.00  0.00    +0.000 C 
ENDBRANCH  10  19
ENDBRANCH   1  14
BRANCH   6  21
ATOM     21  C   UNL     1       8.964  10.754  18.172  0.00  0.00    +0.000 A 
ATOM     22  C   UNL     1       8.525  11.969  17.635  0.00  0.00    +0.000 A 
ATOM     23  C   UNL     1       9.272  13.131  17.849  0.00  0.00    +0.000 A 
ATOM     24  C   UNL     1      10.450  13.090  18.603  0.00  0.00    +0.000 A 
ATOM     25 CL   UNL     1      11.301  14.574  18.849  0.00  0.00    +0.000 Cl
ATOM     26  C   UNL     1      10.890  11.875  19.139  0.00  0.00    +0.000 A 
ATOM     27 CL   UNL     1      12.333  11.746  20.079  0.00  0.00    +0.000 Cl
ATOM     28  C   UNL     1      10.146  10.712  18.926  0.00  0.00    +0.000 A 
ENDBRANCH   6  21
TORSDOF 3
ENDMDL
MODEL 4
REMARK VINA RESULT:      -7.2      1.815      2.159
REMARK  Name = 
REMARK  5 active torsions:
REMARK  status: ('A' for Active; 'I' for Inactive)
REMARK    1  A    between atoms: C_1  and  C_2
REMARK    2  A    between atoms: C_2  and  C_3
REMARK    3  A    between atoms: C_2  and  N_4
REMARK    4  A    between atoms: C_8  and  C_10
REMARK    5  A    between atoms: C_15  and  C_17
REMARK                            x       y       z     vdW  Elec       q    Type
REMARK                         _______ _______ _______ _____ _____    ______ ____
ROOT
ATOM      1  C   UNL     1       0.126  10.601  20.330  0.00  0.00    +0.000 A 
ATOM      2  C   UNL     1       0.215  10.104  21.622  0.00  0.00    +0.000 A 
ATOM      3  S   UNL     1       1.103   8.629  21.635  0.00  0.00    +0.000 S 
ATOM      4  C   UNL     1       1.321   8.776  19.953  0.00  0.00    +0.000 A 
ATOM      5  N   UNL     1       2.122   7.834  19.370  0.00  0.00    +0.000 N 
ATOM      6  C   UNL     1       2.611   8.025  18.094  0.00  0.00    +0.000 C 
ATOM      7  O   UNL     1       2.515   9.045  17.420  0.00  0.00    +0.000 OA
ATOM      8  N   UNL     1       0.706   9.772  19.378  0.00  0.00    +0.000 NA
ATOM      9  H   UNL     1       2.449   7.082  19.955  0.00  0.00    +0.000 HD
ENDROOT
BRANCH   1  14
ATOM     10  N   UNL     1       1.672  15.589  19.897  0.00  0.00    +0.000 NA
ATOM     11  C   UNL     1       0.188  15.490  19.886  0.00  0.00    +0.000 C 
ATOM     12  C   UNL     1      -0.378  14.215  19.224  0.00  0.00    +0.000 C 
ATOM     13  N   UNL     1       0.248  12.996  19.741  0.00  0.00    +0.000 N 
ATOM     14  C   UNL     1      -0.542  11.868  19.985  0.00  0.00    +0.000 C 
ATOM     15  O   UNL     1      -1.772  11.919  19.946  0.00  0.00    +0.000 OA
ATOM     16  C   UNL     1       1.713  13.052  19.864  0.00  0.00    +0.000 C 
ATOM     17  C   UNL     1       2.169  14.353  20.546  0.00  0.00    +0.000 C 
BRANCH  10  19
ATOM     18  C   UNL     1       1.798  17.138  17.938  0.00  0.00    +0.000 C 
ATOM     19  C   UNL     1       2.267  15.811  18.555  0.00  0.00    +0.000 C 
ATOM     20  C   UNL     1       3.805  15.852  18.605  0.00  0.00    +0.000 C 
ENDBRANCH  10  19
ENDBRANCH   1  14
BRANCH   6  21
ATOM     21  C   UNL     1       3.374   6.890  17.508  0.00  0.00    +0.000 A 
ATOM     22  C   UNL     1       4.524   7.088  16.736  0.00  0.00    +0.000 A 
ATOM     23  C   UNL     1       5.247   5.986  16.275  0.00  0.00    +0.000 A 
ATOM     24  C   UNL     1       4.837   4.685  16.587  0.00  0.00    +0.000 A 
ATOM     25 CL   UNL     1       5.802   3.374  16.005  0.00  0.00    +0.000 Cl
ATOM     26  C   UNL     1       3.686   4.485  17.357  0.00  0.00    +0.000 A 
ATOM     27 CL   UNL     1       3.117   2.911  17.782  0.00  0.00    +0.000 Cl
ATOM     28  C   UNL     1       2.960   5.585  17.819  0.00  0.00    +0.000 A 
ENDBRANCH   6  21
TORSDOF 3
ENDMDL
MODEL 5
REMARK VINA RESULT:      -7.2      1.962      2.451
REMARK  Name = 
REMARK  5 active torsions:
REMARK  status: ('A' for Active; 'I' for Inactive)
REMARK    1  A    between atoms: C_1  and  C_2
REMARK    2  A    between atoms: C_2  and  C_3
REMARK    3  A    between atoms: C_2  and  N_4
REMARK    4  A    between atoms: C_8  and  C_10
REMARK    5  A    between atoms: C_15  and  C_17
REMARK                            x       y       z     vdW  Elec       q    Type
REMARK                         _______ _______ _______ _____ _____    ______ ____
ROOT
ATOM      1  C   UNL     1      -0.048  11.296  20.267  0.00  0.00    +0.000 A 
ATOM      2  C   UNL     1      -0.001  10.983  21.617  0.00  0.00    +0.000 A 
ATOM      3  S   UNL     1       0.766   9.460  21.850  0.00  0.00    +0.000 S 
ATOM      4  C   UNL     1       0.998   9.348  20.167  0.00  0.00    +0.000 A 
ATOM      5  N   UNL     1       1.721   8.271  19.734  0.00  0.00    +0.000 N 
ATOM      6  C   UNL     1       2.226   8.240  18.451  0.00  0.00    +0.000 C 
ATOM      7  O   UNL     1       2.213   9.158  17.638  0.00  0.00    +0.000 OA
ATOM      8  N   UNL     1       0.465  10.297  19.449  0.00  0.00    +0.000 NA
ATOM      9  H   UNL     1       1.986   7.587  20.425  0.00  0.00    +0.000 HD
ENDROOT
BRANCH   1  14
ATOM     10  N   UNL     1       1.822  16.118  19.426  0.00  0.00    +0.000 NA
ATOM     11  C   UNL     1       0.340  16.097  19.309  0.00  0.00    +0.000 C 
ATOM     12  C   UNL     1      -0.253  14.786  18.745  0.00  0.00    +0.000 C 
ATOM     13  N   UNL     1       0.260  13.601  19.437  0.00  0.00    +0.000 N 
ATOM     14  C   UNL     1      -0.612  12.550  19.736  0.00  0.00    +0.000 C 
ATOM     15  O   UNL     1      -1.830  12.661  19.596  0.00  0.00    +0.000 OA
ATOM     16  C   UNL     1       1.713  13.595  19.668  0.00  0.00    +0.000 C 
ATOM     17  C   UNL     1       2.196  14.939  20.240  0.00  0.00    +0.000 C 
BRANCH  10  19
ATOM     18  C   UNL     1       2.113  17.386  17.290  0.00  0.00    +0.000 C 
ATOM     19  C   UNL     1       2.525  16.160  18.119  0.00  0.00    +0.000 C 
ATOM     20  C   UNL     1       4.054  16.217  18.288  0.00  0.00    +0.000 C 
ENDBRANCH  10  19
ENDBRANCH   1  14
BRANCH   6  21
ATOM     21  C   UNL     1       2.896   6.976  18.042  0.00  0.00    +0.000 A 
ATOM     22  C   UNL     1       2.277   5.729  18.183  0.00  0.00    +0.000 A 
ATOM     23  C   UNL     1       2.919   4.581  17.712  0.00  0.00    +0.000 A 
ATOM     24  C   UNL     1       4.170   4.669  17.092  0.00  0.00    +0.000 A 
ATOM     25 CL   UNL     1       4.884   3.206  16.509  0.00  0.00    +0.000 Cl
ATOM     26  C   UNL     1       4.790   5.914  16.953  0.00  0.00    +0.000 A 
ATOM     27 CL   UNL     1       6.334   6.102  16.200  0.00  0.00    +0.000 Cl
ATOM     28  C   UNL     1       4.153   7.064  17.423  0.00  0.00    +0.000 A 
ENDBRANCH   6  21
TORSDOF 3
ENDMDL
MODEL 6
REMARK VINA RESULT:      -6.9      1.078      1.125
REMARK  Name = 
REMARK  5 active torsions:
REMARK  status: ('A' for Active; 'I' for Inactive)
REMARK    1  A    between atoms: C_1  and  C_2
REMARK    2  A    between atoms: C_2  and  C_3
REMARK    3  A    between atoms: C_2  and  N_4
REMARK    4  A    between atoms: C_8  and  C_10
REMARK    5  A    between atoms: C_15  and  C_17
REMARK                            x       y       z     vdW  Elec       q    Type
REMARK                         _______ _______ _______ _____ _____    ______ ____
ROOT
ATOM      1  C   UNL     1       0.500  11.175  20.124  0.00  0.00    +0.000 A 
ATOM      2  C   UNL     1       0.132  11.073  21.457  0.00  0.00    +0.000 A 
ATOM      3  S   UNL     1       0.368   9.464  22.021  0.00  0.00    +0.000 S 
ATOM      4  C   UNL     1       0.958   9.039  20.481  0.00  0.00    +0.000 A 
ATOM      5  N   UNL     1       1.438   7.764  20.357  0.00  0.00    +0.000 N 
ATOM      6  C   UNL     1       2.209   7.412  19.268  0.00  0.00    +0.000 C 
ATOM      7  O   UNL     1       2.646   8.168  18.407  0.00  0.00    +0.000 OA
ATOM      8  N   UNL     1       0.898   9.966  19.566  0.00  0.00    +0.000 NA
ATOM      9  H   UNL     1       1.329   7.152  21.149  0.00  0.00    +0.000 HD
ENDROOT
BRANCH   1  14
ATOM     10  N   UNL     1       3.109  15.716  20.296  0.00  0.00    +0.000 NA
ATOM     11  C   UNL     1       1.911  15.825  19.423  0.00  0.00    +0.000 C 
ATOM     12  C   UNL     1       1.540  14.537  18.656  0.00  0.00    +0.000 C 
ATOM     13  N   UNL     1       1.472  13.367  19.535  0.00  0.00    +0.000 N 
ATOM     14  C   UNL     1       0.450  12.430  19.354  0.00  0.00    +0.000 C 
ATOM     15  O   UNL     1      -0.496  12.644  18.596  0.00  0.00    +0.000 OA
ATOM     16  C   UNL     1       2.583  13.241  20.492  0.00  0.00    +0.000 C 
ATOM     17  C   UNL     1       2.860  14.574  21.208  0.00  0.00    +0.000 C 
BRANCH  10  19
ATOM     18  C   UNL     1       4.595  16.755  18.574  0.00  0.00    +0.000 C 
ATOM     19  C   UNL     1       4.385  15.586  19.549  0.00  0.00    +0.000 C 
ATOM     20  C   UNL     1       5.604  15.555  20.490  0.00  0.00    +0.000 C 
ENDBRANCH  10  19
ENDBRANCH   1  14
BRANCH   6  21
ATOM     21  C   UNL     1       2.581   5.975  19.168  0.00  0.00    +0.000 A 
ATOM     22  C   UNL     1       3.320   5.473  18.091  0.00  0.00    +0.000 A 
ATOM     23  C   UNL     1       3.710   4.132  18.084  0.00  0.00    +0.000 A 
ATOM     24  C   UNL     1       3.376   3.288  19.149  0.00  0.00    +0.000 A 
ATOM     25 CL   UNL     1       3.922   1.650  19.081  0.00  0.00    +0.000 Cl
ATOM     26  C   UNL     1       2.635   3.788  20.225  0.00  0.00    +0.000 A 
ATOM     27 CL   UNL     1       2.184   2.809  21.575  0.00  0.00    +0.000 Cl
ATOM     28  C   UNL     1       2.243   5.128  20.235  0.00  0.00    +0.000 A 
ENDBRANCH   6  21
TORSDOF 3
ENDMDL
MODEL 7
REMARK VINA RESULT:      -6.9      3.559      5.332
REMARK  Name = 
REMARK  5 active torsions:
REMARK  status: ('A' for Active; 'I' for Inactive)
REMARK    1  A    between atoms: C_1  and  C_2
REMARK    2  A    between atoms: C_2  and  C_3
REMARK    3  A    between atoms: C_2  and  N_4
REMARK    4  A    between atoms: C_8  and  C_10
REMARK    5  A    between atoms: C_15  and  C_17
REMARK                            x       y       z     vdW  Elec       q    Type
REMARK                         _______ _______ _______ _____ _____    ______ ____
ROOT
ATOM      1  C   UNL     1      -0.408  12.387  21.316  0.00  0.00    +0.000 A 
ATOM      2  C   UNL     1      -0.317  13.021  20.086  0.00  0.00    +0.000 A 
ATOM      3  S   UNL     1       0.491  12.011  18.951  0.00  0.00    +0.000 S 
ATOM      4  C   UNL     1       0.631  10.815  20.154  0.00  0.00    +0.000 A 
ATOM      5  N   UNL     1       1.164   9.621  19.751  0.00  0.00    +0.000 N 
ATOM      6  C   UNL     1       1.045   8.500  20.545  0.00  0.00    +0.000 C 
ATOM      7  O   UNL     1       0.379   8.398  21.570  0.00  0.00    +0.000 OA
ATOM      8  N   UNL     1       0.218  11.146  21.346  0.00  0.00    +0.000 NA
ATOM      9  H   UNL     1       1.510   9.568  18.807  0.00  0.00    +0.000 HD
ENDROOT
BRANCH   1  14
ATOM     10  N   UNL     1      -5.285  13.982  22.380  0.00  0.00    +0.000 NA
ATOM     11  C   UNL     1      -4.336  14.438  23.430  0.00  0.00    +0.000 C 
ATOM     12  C   UNL     1      -3.163  13.475  23.716  0.00  0.00    +0.000 C 
ATOM     13  N   UNL     1      -2.470  13.064  22.493  0.00  0.00    +0.000 N 
ATOM     14  C   UNL     1      -1.075  12.972  22.492  0.00  0.00    +0.000 C 
ATOM     15  O   UNL     1      -0.399  13.393  23.431  0.00  0.00    +0.000 OA
ATOM     16  C   UNL     1      -3.350  12.682  21.377  0.00  0.00    +0.000 C 
ATOM     17  C   UNL     1      -4.473  13.713  21.170  0.00  0.00    +0.000 C 
BRANCH  10  19
ATOM     18  C   UNL     1      -6.991  13.143  24.004  0.00  0.00    +0.000 C 
ATOM     19  C   UNL     1      -6.112  12.818  22.786  0.00  0.00    +0.000 C 
ATOM     20  C   UNL     1      -7.052  12.356  21.657  0.00  0.00    +0.000 C 
ENDBRANCH  10  19
ENDBRANCH   1  14
BRANCH   6  21
ATOM     21  C   UNL     1       1.760   7.284  20.072  0.00  0.00    +0.000 A 
ATOM     22  C   UNL     1       2.578   7.300  18.937  0.00  0.00    +0.000 A 
ATOM     23  C   UNL     1       3.289   6.151  18.580  0.00  0.00    +0.000 A 
ATOM     24  C   UNL     1       3.195   4.988  19.353  0.00  0.00    +0.000 A 
ATOM     25 CL   UNL     1       4.128   3.618  18.862  0.00  0.00    +0.000 Cl
ATOM     26  C   UNL     1       2.375   4.970  20.486  0.00  0.00    +0.000 A 
ATOM     27 CL   UNL     1       2.208   3.573  21.488  0.00  0.00    +0.000 Cl
ATOM     28  C   UNL     1       1.663   6.117  20.845  0.00  0.00    +0.000 A 
ENDBRANCH   6  21
TORSDOF 3
ENDMDL
MODEL 8
REMARK VINA RESULT:      -6.8      4.930      8.866
REMARK  Name = 
REMARK  5 active torsions:
REMARK  status: ('A' for Active; 'I' for Inactive)
REMARK    1  A    between atoms: C_1  and  C_2
REMARK    2  A    between atoms: C_2  and  C_3
REMARK    3  A    between atoms: C_2  and  N_4
REMARK    4  A    between atoms: C_8  and  C_10
REMARK    5  A    between atoms: C_15  and  C_17
REMARK                            x       y       z     vdW  Elec       q    Type
REMARK                         _______ _______ _______ _____ _____    ______ ____
ROOT
ATOM      1  C   UNL     1       1.532   8.213  19.662  0.00  0.00    +0.000 A 
ATOM      2  C   UNL     1       1.674   8.892  18.461  0.00  0.00    +0.000 A 
ATOM      3  S   UNL     1       0.879  10.417  18.540  0.00  0.00    +0.000 S 
ATOM      4  C   UNL     1       0.439  10.075  20.149  0.00  0.00    +0.000 A 
ATOM      5  N   UNL     1      -0.197  11.082  20.821  0.00  0.00    +0.000 N 
ATOM      6  C   UNL     1      -0.324  11.034  22.194  0.00  0.00    +0.000 C 
ATOM      7  O   UNL     1       0.196  10.218  22.947  0.00  0.00    +0.000 OA
ATOM      8  N   UNL     1       0.747   8.888  20.589  0.00  0.00    +0.000 NA
ATOM      9  H   UNL     1      -0.432  11.909  20.295  0.00  0.00    +0.000 HD
ENDROOT
BRANCH   1  14
ATOM     10  N   UNL     1       5.270   5.318  17.402  0.00  0.00    +0.000 NA
ATOM     11  C   UNL     1       4.501   4.515  18.388  0.00  0.00    +0.000 C 
ATOM     12  C   UNL     1       3.992   5.300  19.618  0.00  0.00    +0.000 C 
ATOM     13  N   UNL     1       3.286   6.526  19.240  0.00  0.00    +0.000 N 
ATOM     14  C   UNL     1       2.126   6.892  19.931  0.00  0.00    +0.000 C 
ATOM     15  O   UNL     1       1.580   6.127  20.727  0.00  0.00    +0.000 OA
ATOM     16  C   UNL     1       3.947   7.330  18.200  0.00  0.00    +0.000 C 
ATOM     17  C   UNL     1       4.401   6.456  17.019  0.00  0.00    +0.000 C 
BRANCH  10  19
ATOM     18  C   UNL     1       7.635   4.617  17.816  0.00  0.00    +0.000 C 
ATOM     19  C   UNL     1       6.602   5.753  17.892  0.00  0.00    +0.000 C 
ATOM     20  C   UNL     1       7.161   6.932  17.075  0.00  0.00    +0.000 C 
ENDBRANCH  10  19
ENDBRANCH   1  14
BRANCH   6  21
ATOM     21  C   UNL     1      -1.133  12.118  22.814  0.00  0.00    +0.000 A 
ATOM     22  C   UNL     1      -0.755  13.462  22.738  0.00  0.00    +0.000 A 
ATOM     23  C   UNL     1      -1.589  14.448  23.270  0.00  0.00    +0.000 A 
ATOM     24  C   UNL     1      -2.805  14.102  23.870  0.00  0.00    +0.000 A 
ATOM     25 CL   UNL     1      -3.796  15.381  24.478  0.00  0.00    +0.000 Cl
ATOM     26  C   UNL     1      -3.183  12.758  23.949  0.00  0.00    +0.000 A 
ATOM     27 CL   UNL     1      -4.667  12.253  24.675  0.00  0.00    +0.000 Cl
ATOM     28  C   UNL     1      -2.351  11.770  23.419  0.00  0.00    +0.000 A 
ENDBRANCH   6  21
TORSDOF 3
ENDMDL
MODEL 9
REMARK VINA RESULT:      -6.8      3.788      5.647
REMARK  Name = 
REMARK  5 active torsions:
REMARK  status: ('A' for Active; 'I' for Inactive)
REMARK    1  A    between atoms: C_1  and  C_2
REMARK    2  A    between atoms: C_2  and  C_3
REMARK    3  A    between atoms: C_2  and  N_4
REMARK    4  A    between atoms: C_8  and  C_10
REMARK    5  A    between atoms: C_15  and  C_17
REMARK                            x       y       z     vdW  Elec       q    Type
REMARK                         _______ _______ _______ _____ _____    ______ ____
ROOT
ATOM      1  C   UNL     1      -0.589  12.311  21.319  0.00  0.00    +0.000 A 
ATOM      2  C   UNL     1      -0.610  12.922  20.075  0.00  0.00    +0.000 A 
ATOM      3  S   UNL     1       0.208  11.948  18.916  0.00  0.00    +0.000 S 
ATOM      4  C   UNL     1       0.499  10.792  20.131  0.00  0.00    +0.000 A 
ATOM      5  N   UNL     1       1.096   9.632  19.722  0.00  0.00    +0.000 N 
ATOM      6  C   UNL     1       1.101   8.522  20.542  0.00  0.00    +0.000 C 
ATOM      7  O   UNL     1       0.500   8.395  21.603  0.00  0.00    +0.000 OA
ATOM      8  N   UNL     1       0.127  11.119  21.337  0.00  0.00    +0.000 NA
ATOM      9  H   UNL     1       1.394   9.582  18.761  0.00  0.00    +0.000 HD
ENDROOT
BRANCH   1  14
ATOM     10  N   UNL     1      -5.421  13.976  22.476  0.00  0.00    +0.000 NA
ATOM     11  C   UNL     1      -4.455  14.378  23.531  0.00  0.00    +0.000 C 
ATOM     12  C   UNL     1      -3.301  13.381  23.777  0.00  0.00    +0.000 C 
ATOM     13  N   UNL     1      -2.626  12.995  22.535  0.00  0.00    +0.000 N 
ATOM     14  C   UNL     1      -1.234  12.872  22.519  0.00  0.00    +0.000 C 
ATOM     15  O   UNL     1      -0.541  13.248  23.465  0.00  0.00    +0.000 OA
ATOM     16  C   UNL     1      -3.523  12.667  21.415  0.00  0.00    +0.000 C 
ATOM     17  C   UNL     1      -4.625  13.728  21.251  0.00  0.00    +0.000 C 
BRANCH  10  19
ATOM     18  C   UNL     1      -7.114  13.114  24.101  0.00  0.00    +0.000 C 
ATOM     19  C   UNL     1      -6.271  12.818  22.852  0.00  0.00    +0.000 C 
ATOM     20  C   UNL     1      -7.246  12.428  21.726  0.00  0.00    +0.000 C 
ENDBRANCH  10  19
ENDBRANCH   1  14
BRANCH   6  21
ATOM     21  C   UNL     1       1.877   7.351  20.052  0.00  0.00    +0.000 A 
ATOM     22  C   UNL     1       1.775   6.091  20.651  0.00  0.00    +0.000 A 
ATOM     23  C   UNL     1       2.466   5.006  20.105  0.00  0.00    +0.000 A 
ATOM     24  C   UNL     1       3.250   5.168  18.957  0.00  0.00    +0.000 A 
ATOM     25 CL   UNL     1       4.049   3.771  18.324  0.00  0.00    +0.000 Cl
ATOM     26  C   UNL     1       3.354   6.428  18.359  0.00  0.00    +0.000 A 
ATOM     27 CL   UNL     1       4.304   6.705  16.942  0.00  0.00    +0.000 Cl
ATOM     28  C   UNL     1       2.666   7.514  18.903  0.00  0.00    +0.000 A 
ENDBRANCH   6  21
TORSDOF 3
ENDMDL
