MODEL 1
REMARK VINA RESULT:      -7.7      0.000      0.000
REMARK  Name = 
REMARK  4 active torsions:
REMARK  status: ('A' for Active; 'I' for Inactive)
REMARK    1  A    between atoms: C_2  and  C_5
REMARK    2  A    between atoms: N_12  and  C_13
REMARK    3  A    between atoms: C_13  and  C_14
REMARK    4  A    between atoms: C_13  and  C_20
REMARK                            x       y       z     vdW  Elec       q    Type
REMARK                         _______ _______ _______ _____ _____    ______ ____
ROOT
ATOM      1  C   UNL     1      -0.017  10.487  21.085  0.00  0.00    +0.000 A 
ATOM      2  N   UNL     1       0.311  11.040  19.936  0.00  0.00    +0.000 NA
ATOM      3  N   UNL     1       0.992  10.163  19.119  0.00  0.00    +0.000 NA
ATOM      4  C   UNL     1       1.177   8.970  19.646  0.00  0.00    +0.000 A 
ATOM      5  N   UNL     1       1.854   7.950  19.041  0.00  0.00    +0.000 N 
ATOM      6  C   UNL     1       2.486   8.168  17.733  0.00  0.00    +0.000 C 
ATOM      7  C   UNL     1       3.977   7.739  17.767  0.00  0.00    +0.000 C 
ATOM      8  N   UNL     1       4.240   6.370  18.304  0.00  0.00    +0.000 NA
ATOM      9  C   UNL     1       3.603   6.319  19.642  0.00  0.00    +0.000 C 
ATOM     10  C   UNL     1       2.096   6.646  19.659  0.00  0.00    +0.000 C 
ATOM     11  S   UNL     1       0.459   8.846  21.218  0.00  0.00    +0.000 S 
ENDROOT
BRANCH   1  13
ATOM     12  F   UNL     1      -2.011  11.458  21.937  0.00  0.00    +0.000 F 
ATOM     13  C   UNL     1      -0.721  11.142  22.220  0.00  0.00    +0.000 C 
ATOM     14  F   UNL     1      -0.113  12.303  22.593  0.00  0.00    +0.000 F 
ATOM     15  F   UNL     1      -0.751  10.354  23.330  0.00  0.00    +0.000 F 
ENDBRANCH   1  13
BRANCH   8  16
ATOM     16  C   UNL     1       3.759   5.302  17.370  0.00  0.00    +0.000 C 
BRANCH  16  17
ATOM     17  C   UNL     1       4.890   4.872  16.427  0.00  0.00    +0.000 A 
ATOM     18  C   UNL     1       6.237   5.053  16.786  0.00  0.00    +0.000 A 
ATOM     19  C   UNL     1       7.257   4.830  15.861  0.00  0.00    +0.000 A 
ATOM     20  C   UNL     1       6.945   4.419  14.567  0.00  0.00    +0.000 A 
ATOM     21  C   UNL     1       5.617   4.198  14.205  0.00  0.00    +0.000 A 
ATOM     22  C   UNL     1       4.595   4.413  15.131  0.00  0.00    +0.000 A 
ENDBRANCH  16  17
BRANCH  16  23
ATOM     23  C   UNL     1       3.118   4.077  18.044  0.00  0.00    +0.000 A 
ATOM     24  C   UNL     1       1.732   3.867  17.915  0.00  0.00    +0.000 A 
ATOM     25  C   UNL     1       1.113   2.761  18.506  0.00  0.00    +0.000 A 
ATOM     26  C   UNL     1       1.870   1.846  19.236  0.00  0.00    +0.000 A 
ATOM     27  C   UNL     1       3.245   2.030  19.365  0.00  0.00    +0.000 A 
ATOM     28  C   UNL     1       3.865   3.126  18.760  0.00  0.00    +0.000 A 
ENDBRANCH  16  23
ENDBRANCH   8  16
TORSDOF 4
ENDMDL
MODEL 2
REMARK VINA RESULT:      -7.6      0.735      1.282
REMARK  Name = 
REMARK  4 active torsions:
REMARK  status: ('A' for Active; 'I' for Inactive)
REMARK    1  A    between atoms: C_2  and  C_5
REMARK    2  A    between atoms: N_12  and  C_13
REMARK    3  A    between atoms: C_13  and  C_14
REMARK    4  A    between atoms: C_13  and  C_20
REMARK                            x       y       z     vdW  Elec       q    Type
REMARK                         _______ _______ _______ _____ _____    ______ ____
ROOT
ATOM      1  C   UNL     1       0.288   9.722  21.657  0.00  0.00    +0.000 A 
ATOM      2  N   UNL     1       0.465  10.409  20.548  0.00  0.00    +0.000 NA
ATOM      3  N   UNL     1       1.114   9.670  19.583  0.00  0.00    +0.000 NA
ATOM      4  C   UNL     1       1.426   8.447  19.961  0.00  0.00    +0.000 A 
ATOM      5  N   UNL     1       2.103   7.544  19.192  0.00  0.00    +0.000 N 
ATOM      6  C   UNL     1       2.586   7.936  17.862  0.00  0.00    +0.000 C 
ATOM      7  C   UNL     1       4.097   7.617  17.712  0.00  0.00    +0.000 C 
ATOM      8  N   UNL     1       4.498   6.224  18.075  0.00  0.00    +0.000 NA
ATOM      9  C   UNL     1       4.003   5.994  19.453  0.00  0.00    +0.000 C 
ATOM     10  C   UNL     1       2.487   6.206  19.644  0.00  0.00    +0.000 C 
ATOM     11  S   UNL     1       0.878   8.116  21.572  0.00  0.00    +0.000 S 
ENDROOT
BRANCH   1  13
ATOM     12  F   UNL     1      -0.387  11.564  22.999  0.00  0.00    +0.000 F 
ATOM     13  C   UNL     1      -0.339  10.209  22.915  0.00  0.00    +0.000 C 
ATOM     14  F   UNL     1       0.334   9.779  24.019  0.00  0.00    +0.000 F 
ATOM     15  F   UNL     1      -1.621   9.768  23.054  0.00  0.00    +0.000 F 
ENDBRANCH   1  13
BRANCH   8  16
ATOM     16  C   UNL     1       3.995   5.221  17.082  0.00  0.00    +0.000 C 
BRANCH  16  17
ATOM     17  C   UNL     1       5.106   4.853  16.088  0.00  0.00    +0.000 A 
ATOM     18  C   UNL     1       6.443   5.208  16.338  0.00  0.00    +0.000 A 
ATOM     19  C   UNL     1       7.420   5.034  15.358  0.00  0.00    +0.000 A 
ATOM     20  C   UNL     1       7.076   4.500  14.119  0.00  0.00    +0.000 A 
ATOM     21  C   UNL     1       5.762   4.108  13.868  0.00  0.00    +0.000 A 
ATOM     22  C   UNL     1       4.783   4.273  14.849  0.00  0.00    +0.000 A 
ENDBRANCH  16  17
BRANCH  16  23
ATOM     23  C   UNL     1       3.365   3.955  17.685  0.00  0.00    +0.000 A 
ATOM     24  C   UNL     1       4.198   2.982  18.270  0.00  0.00    +0.000 A 
ATOM     25  C   UNL     1       3.663   1.821  18.836  0.00  0.00    +0.000 A 
ATOM     26  C   UNL     1       2.285   1.612  18.825  0.00  0.00    +0.000 A 
ATOM     27  C   UNL     1       1.443   2.567  18.261  0.00  0.00    +0.000 A 
ATOM     28  C   UNL     1       1.977   3.735  17.711  0.00  0.00    +0.000 A 
ENDBRANCH  16  23
ENDBRANCH   8  16
TORSDOF 4
ENDMDL
MODEL 3
REMARK VINA RESULT:      -7.5      0.246      1.303
REMARK  Name = 
REMARK  4 active torsions:
REMARK  status: ('A' for Active; 'I' for Inactive)
REMARK    1  A    between atoms: C_2  and  C_5
REMARK    2  A    between atoms: N_12  and  C_13
REMARK    3  A    between atoms: C_13  and  C_14
REMARK    4  A    between atoms: C_13  and  C_20
REMARK                            x       y       z     vdW  Elec       q    Type
REMARK                         _______ _______ _______ _____ _____    ______ ____
ROOT
ATOM      1  C   UNL     1      -0.029  10.555  21.138  0.00  0.00    +0.000 A 
ATOM      2  N   UNL     1       0.371  11.157  20.038  0.00  0.00    +0.000 NA
ATOM      3  N   UNL     1       1.064  10.303  19.207  0.00  0.00    +0.000 NA
ATOM      4  C   UNL     1       1.188   9.078  19.677  0.00  0.00    +0.000 A 
ATOM      5  N   UNL     1       1.863   8.070  19.051  0.00  0.00    +0.000 N 
ATOM      6  C   UNL     1       2.565   8.336  17.789  0.00  0.00    +0.000 C 
ATOM      7  C   UNL     1       4.039   7.858  17.870  0.00  0.00    +0.000 C 
ATOM      8  N   UNL     1       4.234   6.455  18.345  0.00  0.00    +0.000 NA
ATOM      9  C   UNL     1       3.532   6.354  19.646  0.00  0.00    +0.000 C 
ATOM     10  C   UNL     1       2.036   6.728  19.609  0.00  0.00    +0.000 C 
ATOM     11  S   UNL     1       0.390   8.895  21.205  0.00  0.00    +0.000 S 
ENDROOT
BRANCH   1  13
ATOM     12  F   UNL     1      -2.057  11.476  21.968  0.00  0.00    +0.000 F 
ATOM     13  C   UNL     1      -0.769  11.172  22.272  0.00  0.00    +0.000 C 
ATOM     14  F   UNL     1      -0.188  12.333  22.687  0.00  0.00    +0.000 F 
ATOM     15  F   UNL     1      -0.812  10.357  23.362  0.00  0.00    +0.000 F 
ENDBRANCH   1  13
BRANCH   8  16
ATOM     16  C   UNL     1       3.769   5.453  17.333  0.00  0.00    +0.000 C 
BRANCH  16  17
ATOM     17  C   UNL     1       4.875   5.183  16.304  0.00  0.00    +0.000 A 
ATOM     18  C   UNL     1       4.613   4.434  15.143  0.00  0.00    +0.000 A 
ATOM     19  C   UNL     1       5.653   4.038  14.303  0.00  0.00    +0.000 A 
ATOM     20  C   UNL     1       6.966   4.389  14.606  0.00  0.00    +0.000 A 
ATOM     21  C   UNL     1       7.239   5.163  15.733  0.00  0.00    +0.000 A 
ATOM     22  C   UNL     1       6.200   5.568  16.573  0.00  0.00    +0.000 A 
ENDBRANCH  16  17
BRANCH  16  23
ATOM     23  C   UNL     1       3.230   4.133  17.910  0.00  0.00    +0.000 A 
ATOM     24  C   UNL     1       4.118   3.253  18.560  0.00  0.00    +0.000 A 
ATOM     25  C   UNL     1       3.666   2.048  19.106  0.00  0.00    +0.000 A 
ATOM     26  C   UNL     1       2.320   1.701  19.010  0.00  0.00    +0.000 A 
ATOM     27  C   UNL     1       1.424   2.562  18.380  0.00  0.00    +0.000 A 
ATOM     28  C   UNL     1       1.873   3.775  17.851  0.00  0.00    +0.000 A 
ENDBRANCH  16  23
ENDBRANCH   8  16
TORSDOF 4
ENDMDL
MODEL 4
REMARK VINA RESULT:      -7.5      0.348      1.194
REMARK  Name = 
REMARK  4 active torsions:
REMARK  status: ('A' for Active; 'I' for Inactive)
REMARK    1  A    between atoms: C_2  and  C_5
REMARK    2  A    between atoms: N_12  and  C_13
REMARK    3  A    between atoms: C_13  and  C_14
REMARK    4  A    between atoms: C_13  and  C_20
REMARK                            x       y       z     vdW  Elec       q    Type
REMARK                         _______ _______ _______ _____ _____    ______ ____
ROOT
ATOM      1  C   UNL     1       0.162  10.740  20.862  0.00  0.00    +0.000 A 
ATOM      2  N   UNL     1       0.580  11.294  19.743  0.00  0.00    +0.000 NA
ATOM      3  N   UNL     1       1.260  10.397  18.947  0.00  0.00    +0.000 NA
ATOM      4  C   UNL     1       1.358   9.188  19.461  0.00  0.00    +0.000 A 
ATOM      5  N   UNL     1       2.016   8.146  18.875  0.00  0.00    +0.000 N 
ATOM      6  C   UNL     1       2.729   8.352  17.608  0.00  0.00    +0.000 C 
ATOM      7  C   UNL     1       4.193   7.849  17.715  0.00  0.00    +0.000 C 
ATOM      8  N   UNL     1       4.359   6.461  18.240  0.00  0.00    +0.000 NA
ATOM      9  C   UNL     1       3.648   6.420  19.540  0.00  0.00    +0.000 C 
ATOM     10  C   UNL     1       2.160   6.821  19.482  0.00  0.00    +0.000 C 
ATOM     11  S   UNL     1       0.549   9.075  20.990  0.00  0.00    +0.000 S 
ENDROOT
BRANCH   1  13
ATOM     12  F   UNL     1      -0.075  12.640  22.269  0.00  0.00    +0.000 F 
ATOM     13  C   UNL     1      -0.570  11.411  21.968  0.00  0.00    +0.000 C 
ATOM     14  F   UNL     1      -0.526  10.686  23.121  0.00  0.00    +0.000 F 
ATOM     15  F   UNL     1      -1.890  11.587  21.679  0.00  0.00    +0.000 F 
ENDBRANCH   1  13
BRANCH   8  16
ATOM     16  C   UNL     1       3.878   5.432  17.261  0.00  0.00    +0.000 C 
BRANCH  16  17
ATOM     17  C   UNL     1       4.965   5.144  16.216  0.00  0.00    +0.000 A 
ATOM     18  C   UNL     1       4.650   4.502  15.006  0.00  0.00    +0.000 A 
ATOM     19  C   UNL     1       5.658   4.081  14.140  0.00  0.00    +0.000 A 
ATOM     20  C   UNL     1       6.994   4.300  14.468  0.00  0.00    +0.000 A 
ATOM     21  C   UNL     1       7.323   4.969  15.646  0.00  0.00    +0.000 A 
ATOM     22  C   UNL     1       6.316   5.398  16.512  0.00  0.00    +0.000 A 
ENDBRANCH  16  17
BRANCH  16  23
ATOM     23  C   UNL     1       3.361   4.123  17.881  0.00  0.00    +0.000 A 
ATOM     24  C   UNL     1       1.985   3.828  17.817  0.00  0.00    +0.000 A 
ATOM     25  C   UNL     1       1.476   2.645  18.361  0.00  0.00    +0.000 A 
ATOM     26  C   UNL     1       2.334   1.738  18.980  0.00  0.00    +0.000 A 
ATOM     27  C   UNL     1       3.699   2.006  19.045  0.00  0.00    +0.000 A 
ATOM     28  C   UNL     1       4.209   3.180  18.485  0.00  0.00    +0.000 A 
ENDBRANCH  16  23
ENDBRANCH   8  16
TORSDOF 4
ENDMDL
MODEL 5
REMARK VINA RESULT:      -7.4      0.774      1.436
REMARK  Name = 
REMARK  4 active torsions:
REMARK  status: ('A' for Active; 'I' for Inactive)
REMARK    1  A    between atoms: C_2  and  C_5
REMARK    2  A    between atoms: N_12  and  C_13
REMARK    3  A    between atoms: C_13  and  C_14
REMARK    4  A    between atoms: C_13  and  C_20
REMARK                            x       y       z     vdW  Elec       q    Type
REMARK                         _______ _______ _______ _____ _____    ______ ____
ROOT
ATOM      1  C   UNL     1       0.248   9.731  21.700  0.00  0.00    +0.000 A 
ATOM      2  N   UNL     1       0.398  10.430  20.595  0.00  0.00    +0.000 NA
ATOM      3  N   UNL     1       1.056   9.714  19.618  0.00  0.00    +0.000 NA
ATOM      4  C   UNL     1       1.399   8.496  19.984  0.00  0.00    +0.000 A 
ATOM      5  N   UNL     1       2.089   7.615  19.202  0.00  0.00    +0.000 N 
ATOM      6  C   UNL     1       2.552   8.028  17.870  0.00  0.00    +0.000 C 
ATOM      7  C   UNL     1       4.068   7.745  17.705  0.00  0.00    +0.000 C 
ATOM      8  N   UNL     1       4.504   6.359  18.053  0.00  0.00    +0.000 NA
ATOM      9  C   UNL     1       4.027   6.107  19.433  0.00  0.00    +0.000 C 
ATOM     10  C   UNL     1       2.509   6.283  19.640  0.00  0.00    +0.000 C 
ATOM     11  S   UNL     1       0.873   8.139  21.596  0.00  0.00    +0.000 S 
ENDROOT
BRANCH   1  13
ATOM     12  F   UNL     1       0.310   9.813  24.075  0.00  0.00    +0.000 F 
ATOM     13  C   UNL     1      -0.380  10.193  22.967  0.00  0.00    +0.000 C 
ATOM     14  F   UNL     1      -1.644   9.707  23.116  0.00  0.00    +0.000 F 
ATOM     15  F   UNL     1      -0.483  11.550  23.025  0.00  0.00    +0.000 F 
ENDBRANCH   1  13
BRANCH   8  16
ATOM     16  C   UNL     1       4.016   5.352  17.056  0.00  0.00    +0.000 C 
BRANCH  16  17
ATOM     17  C   UNL     1       5.085   5.104  15.983  0.00  0.00    +0.000 A 
ATOM     18  C   UNL     1       4.767   4.435  14.789  0.00  0.00    +0.000 A 
ATOM     19  C   UNL     1       5.769   4.052  13.899  0.00  0.00    +0.000 A 
ATOM     20  C   UNL     1       7.102   4.338  14.186  0.00  0.00    +0.000 A 
ATOM     21  C   UNL     1       7.432   5.034  15.348  0.00  0.00    +0.000 A 
ATOM     22  C   UNL     1       6.430   5.425  16.238  0.00  0.00    +0.000 A 
ENDBRANCH  16  17
BRANCH  16  23
ATOM     23  C   UNL     1       3.524   4.022  17.650  0.00  0.00    +0.000 A 
ATOM     24  C   UNL     1       2.163   3.677  17.532  0.00  0.00    +0.000 A 
ATOM     25  C   UNL     1       1.678   2.473  18.051  0.00  0.00    +0.000 A 
ATOM     26  C   UNL     1       2.544   1.594  18.698  0.00  0.00    +0.000 A 
ATOM     27  C   UNL     1       3.895   1.912  18.816  0.00  0.00    +0.000 A 
ATOM     28  C   UNL     1       4.383   3.107  18.281  0.00  0.00    +0.000 A 
ENDBRANCH  16  23
ENDBRANCH   8  16
TORSDOF 4
ENDMDL
MODEL 6
REMARK VINA RESULT:      -7.4      0.567      1.310
REMARK  Name = 
REMARK  4 active torsions:
REMARK  status: ('A' for Active; 'I' for Inactive)
REMARK    1  A    between atoms: C_2  and  C_5
REMARK    2  A    between atoms: N_12  and  C_13
REMARK    3  A    between atoms: C_13  and  C_14
REMARK    4  A    between atoms: C_13  and  C_20
REMARK                            x       y       z     vdW  Elec       q    Type
REMARK                         _______ _______ _______ _____ _____    ______ ____
ROOT
ATOM      1  C   UNL     1       0.148  11.078  20.435  0.00  0.00    +0.000 A 
ATOM      2  N   UNL     1       0.676  11.523  19.314  0.00  0.00    +0.000 NA
ATOM      3  N   UNL     1       1.338  10.529  18.627  0.00  0.00    +0.000 NA
ATOM      4  C   UNL     1       1.313   9.354  19.223  0.00  0.00    +0.000 A 
ATOM      5  N   UNL     1       1.929   8.230  18.751  0.00  0.00    +0.000 N 
ATOM      6  C   UNL     1       2.734   8.299  17.525  0.00  0.00    +0.000 C 
ATOM      7  C   UNL     1       4.147   7.704  17.764  0.00  0.00    +0.000 C 
ATOM      8  N   UNL     1       4.176   6.347  18.387  0.00  0.00    +0.000 NA
ATOM      9  C   UNL     1       3.382   6.446  19.636  0.00  0.00    +0.000 C 
ATOM     10  C   UNL     1       1.935   6.944  19.450  0.00  0.00    +0.000 C 
ATOM     11  S   UNL     1       0.402   9.403  20.696  0.00  0.00    +0.000 S 
ENDROOT
BRANCH   1  13
ATOM     12  F   UNL     1      -0.535  11.349  22.695  0.00  0.00    +0.000 F 
ATOM     13  C   UNL     1      -0.602  11.873  21.444  0.00  0.00    +0.000 C 
ATOM     14  F   UNL     1      -1.926  11.967  21.136  0.00  0.00    +0.000 F 
ATOM     15  F   UNL     1      -0.141  13.152  21.536  0.00  0.00    +0.000 F 
ENDBRANCH   1  13
BRANCH   8  16
ATOM     16  C   UNL     1       3.684   5.289  17.447  0.00  0.00    +0.000 C 
BRANCH  16  17
ATOM     17  C   UNL     1       4.823   4.822  16.530  0.00  0.00    +0.000 A 
ATOM     18  C   UNL     1       6.158   4.842  16.970  0.00  0.00    +0.000 A 
ATOM     19  C   UNL     1       7.203   4.590  16.082  0.00  0.00    +0.000 A 
ATOM     20  C   UNL     1       6.930   4.311  14.746  0.00  0.00    +0.000 A 
ATOM     21  C   UNL     1       5.611   4.251  14.301  0.00  0.00    +0.000 A 
ATOM     22  C   UNL     1       4.561   4.495  15.187  0.00  0.00    +0.000 A 
ENDBRANCH  16  17
BRANCH  16  23
ATOM     23  C   UNL     1       2.993   4.086  18.110  0.00  0.00    +0.000 A 
ATOM     24  C   UNL     1       3.750   3.216  18.917  0.00  0.00    +0.000 A 
ATOM     25  C   UNL     1       3.157   2.116  19.544  0.00  0.00    +0.000 A 
ATOM     26  C   UNL     1       1.797   1.866  19.373  0.00  0.00    +0.000 A 
ATOM     27  C   UNL     1       1.028   2.721  18.586  0.00  0.00    +0.000 A 
ATOM     28  C   UNL     1       1.618   3.830  17.974  0.00  0.00    +0.000 A 
ENDBRANCH  16  23
ENDBRANCH   8  16
TORSDOF 4
ENDMDL
MODEL 7
REMARK VINA RESULT:      -6.9      1.318      1.506
REMARK  Name = 
REMARK  4 active torsions:
REMARK  status: ('A' for Active; 'I' for Inactive)
REMARK    1  A    between atoms: C_2  and  C_5
REMARK    2  A    between atoms: N_12  and  C_13
REMARK    3  A    between atoms: C_13  and  C_14
REMARK    4  A    between atoms: C_13  and  C_20
REMARK                            x       y       z     vdW  Elec       q    Type
REMARK                         _______ _______ _______ _____ _____    ______ ____
ROOT
ATOM      1  C   UNL     1       0.742  11.624  19.301  0.00  0.00    +0.000 A 
ATOM      2  N   UNL     1       1.583  11.890  18.324  0.00  0.00    +0.000 NA
ATOM      3  N   UNL     1       2.188  10.750  17.841  0.00  0.00    +0.000 NA
ATOM      4  C   UNL     1       1.813   9.643  18.449  0.00  0.00    +0.000 A 
ATOM      5  N   UNL     1       2.301   8.399  18.170  0.00  0.00    +0.000 N 
ATOM      6  C   UNL     1       3.362   8.239  17.167  0.00  0.00    +0.000 C 
ATOM      7  C   UNL     1       4.549   7.429  17.750  0.00  0.00    +0.000 C 
ATOM      8  N   UNL     1       4.185   6.135  18.403  0.00  0.00    +0.000 NA
ATOM      9  C   UNL     1       3.162   6.459  19.425  0.00  0.00    +0.000 C 
ATOM     10  C   UNL     1       1.912   7.185  18.889  0.00  0.00    +0.000 C 
ATOM     11  S   UNL     1       0.617   9.955  19.665  0.00  0.00    +0.000 S 
ENDROOT
BRANCH   1  13
ATOM     12  F   UNL     1      -1.049  12.033  20.809  0.00  0.00    +0.000 F 
ATOM     13  C   UNL     1      -0.057  12.608  20.081  0.00  0.00    +0.000 C 
ATOM     14  F   UNL     1      -0.655  13.530  19.275  0.00  0.00    +0.000 F 
ATOM     15  F   UNL     1       0.709  13.310  20.961  0.00  0.00    +0.000 F 
ENDBRANCH   1  13
BRANCH   8  16
ATOM     16  C   UNL     1       3.733   5.113  17.405  0.00  0.00    +0.000 C 
BRANCH  16  17
ATOM     17  C   UNL     1       4.901   4.703  16.497  0.00  0.00    +0.000 A 
ATOM     18  C   UNL     1       6.219   4.677  16.984  0.00  0.00    +0.000 A 
ATOM     19  C   UNL     1       7.294   4.481  16.119  0.00  0.00    +0.000 A 
ATOM     20  C   UNL     1       7.067   4.303  14.756  0.00  0.00    +0.000 A 
ATOM     21  C   UNL     1       5.764   4.288  14.261  0.00  0.00    +0.000 A 
ATOM     22  C   UNL     1       4.685   4.477  15.126  0.00  0.00    +0.000 A 
ENDBRANCH  16  17
BRANCH  16  23
ATOM     23  C   UNL     1       3.044   3.872  17.997  0.00  0.00    +0.000 A 
ATOM     24  C   UNL     1       1.637   3.814  18.027  0.00  0.00    +0.000 A 
ATOM     25  C   UNL     1       0.974   2.700  18.549  0.00  0.00    +0.000 A 
ATOM     26  C   UNL     1       1.705   1.626  19.053  0.00  0.00    +0.000 A 
ATOM     27  C   UNL     1       3.097   1.660  19.023  0.00  0.00    +0.000 A 
ATOM     28  C   UNL     1       3.760   2.765  18.484  0.00  0.00    +0.000 A 
ENDBRANCH  16  23
ENDBRANCH   8  16
TORSDOF 4
ENDMDL
MODEL 8
REMARK VINA RESULT:      -6.6      7.051      9.396
REMARK  Name = 
REMARK  4 active torsions:
REMARK  status: ('A' for Active; 'I' for Inactive)
REMARK    1  A    between atoms: C_2  and  C_5
REMARK    2  A    between atoms: N_12  and  C_13
REMARK    3  A    between atoms: C_13  and  C_14
REMARK    4  A    between atoms: C_13  and  C_20
REMARK                            x       y       z     vdW  Elec       q    Type
REMARK                         _______ _______ _______ _____ _____    ______ ____
ROOT
ATOM      1  C   UNL     1       5.020  16.676  19.594  0.00  0.00    +0.000 A 
ATOM      2  N   UNL     1       4.020  17.376  19.103  0.00  0.00    +0.000 NA
ATOM      3  N   UNL     1       2.827  16.688  19.174  0.00  0.00    +0.000 NA
ATOM      4  C   UNL     1       2.929  15.487  19.706  0.00  0.00    +0.000 A 
ATOM      5  N   UNL     1       1.893  14.609  19.847  0.00  0.00    +0.000 N 
ATOM      6  C   UNL     1       0.563  14.962  19.334  0.00  0.00    +0.000 C 
ATOM      7  C   UNL     1       0.014  13.838  18.416  0.00  0.00    +0.000 C 
ATOM      8  N   UNL     1       0.054  12.460  18.993  0.00  0.00    +0.000 NA
ATOM      9  C   UNL     1       1.458  12.223  19.405  0.00  0.00    +0.000 C 
ATOM     10  C   UNL     1       2.031  13.259  20.393  0.00  0.00    +0.000 C 
ATOM     11  S   UNL     1       4.553  15.145  20.205  0.00  0.00    +0.000 S 
ENDROOT
BRANCH   1  13
ATOM     12  F   UNL     1       7.072  17.011  18.443  0.00  0.00    +0.000 F 
ATOM     13  C   UNL     1       6.450  17.083  19.648  0.00  0.00    +0.000 C 
ATOM     14  F   UNL     1       7.170  16.301  20.501  0.00  0.00    +0.000 F 
ATOM     15  F   UNL     1       6.603  18.364  20.085  0.00  0.00    +0.000 F 
ENDBRANCH   1  13
BRANCH   8  16
ATOM     16  C   UNL     1      -0.934  12.292  20.107  0.00  0.00    +0.000 C 
BRANCH  16  17
ATOM     17  C   UNL     1      -2.363  12.258  19.548  0.00  0.00    +0.000 A 
ATOM     18  C   UNL     1      -3.424  12.864  20.244  0.00  0.00    +0.000 A 
ATOM     19  C   UNL     1      -4.743  12.680  19.831  0.00  0.00    +0.000 A 
ATOM     20  C   UNL     1      -5.020  11.894  18.716  0.00  0.00    +0.000 A 
ATOM     21  C   UNL     1      -3.978  11.317  17.992  0.00  0.00    +0.000 A 
ATOM     22  C   UNL     1      -2.656  11.505  18.398  0.00  0.00    +0.000 A 
ENDBRANCH  16  17
BRANCH  16  23
ATOM     23  C   UNL     1      -0.685  11.090  21.034  0.00  0.00    +0.000 A 
ATOM     24  C   UNL     1      -0.383   9.836  20.469  0.00  0.00    +0.000 A 
ATOM     25  C   UNL     1      -0.142   8.721  21.278  0.00  0.00    +0.000 A 
ATOM     26  C   UNL     1      -0.201   8.841  22.665  0.00  0.00    +0.000 A 
ATOM     27  C   UNL     1      -0.487  10.076  23.243  0.00  0.00    +0.000 A 
ATOM     28  C   UNL     1      -0.710  11.193  22.435  0.00  0.00    +0.000 A 
ENDBRANCH  16  23
ENDBRANCH   8  16
TORSDOF 4
ENDMDL
MODEL 9
REMARK VINA RESULT:      -6.6      0.993      1.375
REMARK  Name = 
REMARK  4 active torsions:
REMARK  status: ('A' for Active; 'I' for Inactive)
REMARK    1  A    between atoms: C_2  and  C_5
REMARK    2  A    between atoms: N_12  and  C_13
REMARK    3  A    between atoms: C_13  and  C_14
REMARK    4  A    between atoms: C_13  and  C_20
REMARK                            x       y       z     vdW  Elec       q    Type
REMARK                         _______ _______ _______ _____ _____    ______ ____
ROOT
ATOM      1  C   UNL     1      -0.435  11.388  19.967  0.00  0.00    +0.000 A 
ATOM      2  N   UNL     1       0.215  11.797  18.898  0.00  0.00    +0.000 NA
ATOM      3  N   UNL     1       0.971  10.791  18.338  0.00  0.00    +0.000 NA
ATOM      4  C   UNL     1       0.896   9.642  18.978  0.00  0.00    +0.000 A 
ATOM      5  N   UNL     1       1.583   8.513  18.633  0.00  0.00    +0.000 N 
ATOM      6  C   UNL     1       2.528   8.549  17.509  0.00  0.00    +0.000 C 
ATOM      7  C   UNL     1       3.912   7.997  17.940  0.00  0.00    +0.000 C 
ATOM      8  N   UNL     1       3.890   6.668  18.621  0.00  0.00    +0.000 NA
ATOM      9  C   UNL     1       2.952   6.800  19.761  0.00  0.00    +0.000 C 
ATOM     10  C   UNL     1       1.528   7.258  19.383  0.00  0.00    +0.000 C 
ATOM     11  S   UNL     1      -0.185   9.732  20.330  0.00  0.00    +0.000 S 
ENDROOT
BRANCH   1  13
ATOM     12  F   UNL     1      -2.632  12.090  20.539  0.00  0.00    +0.000 F 
ATOM     13  C   UNL     1      -1.314  12.207  20.844  0.00  0.00    +0.000 C 
ATOM     14  F   UNL     1      -1.017  13.535  20.764  0.00  0.00    +0.000 F 
ATOM     15  F   UNL     1      -1.190  11.868  22.157  0.00  0.00    +0.000 F 
ENDBRANCH   1  13
BRANCH   8  16
ATOM     16  C   UNL     1       3.533   5.561  17.676  0.00  0.00    +0.000 C 
BRANCH  16  17
ATOM     17  C   UNL     1       4.742   5.195  16.805  0.00  0.00    +0.000 A 
ATOM     18  C   UNL     1       4.612   4.296  15.732  0.00  0.00    +0.000 A 
ATOM     19  C   UNL     1       5.738   3.827  15.056  0.00  0.00    +0.000 A 
ATOM     20  C   UNL     1       7.007   4.252  15.439  0.00  0.00    +0.000 A 
ATOM     21  C   UNL     1       7.152   5.172  16.477  0.00  0.00    +0.000 A 
ATOM     22  C   UNL     1       6.027   5.650  17.150  0.00  0.00    +0.000 A 
ENDBRANCH  16  17
BRANCH  16  23
ATOM     23  C   UNL     1       2.933   4.304  18.329  0.00  0.00    +0.000 A 
ATOM     24  C   UNL     1       1.633   3.897  17.972  0.00  0.00    +0.000 A 
ATOM     25  C   UNL     1       1.056   2.755  18.537  0.00  0.00    +0.000 A 
ATOM     26  C   UNL     1       1.767   2.003  19.469  0.00  0.00    +0.000 A 
ATOM     27  C   UNL     1       3.059   2.383  19.827  0.00  0.00    +0.000 A 
ATOM     28  C   UNL     1       3.642   3.514  19.249  0.00  0.00    +0.000 A 
ENDBRANCH  16  23
ENDBRANCH   8  16
TORSDOF 4
ENDMDL
