MODEL 1
REMARK VINA RESULT:      -8.4      0.000      0.000
REMARK  Name = 
REMARK  13 active torsions:
REMARK  status: ('A' for Active; 'I' for Inactive)
REMARK    1  A    between atoms: C_2  and  C_3
REMARK    2  A    between atoms: C_3  and  O_4
REMARK    3  A    between atoms: O_4  and  C_5
REMARK    4  A    between atoms: C_8  and  C_9
REMARK    5  A    between atoms: C_9  and  N_10
REMARK    6  A    between atoms: N_10  and  C_11
REMARK    7  A    between atoms: C_12  and  C_14
REMARK    8  A    between atoms: C_17  and  C_18
REMARK    9  A    between atoms: C_18  and  N_19
REMARK   10  A    between atoms: N_19  and  S_20
REMARK   11  A    between atoms: S_20  and  C_23
REMARK   12  A    between atoms: C_26  and  C_27
REMARK   13  A    between atoms: C_28  and  C_29
REMARK                            x       y       z     vdW  Elec       q    Type
REMARK                         _______ _______ _______ _____ _____    ______ ____
ROOT
ATOM      1  C   UNL     1       1.201   9.739  19.547  0.00  0.00    +0.000 A 
ATOM      2  C   UNL     1       1.009   9.087  20.769  0.00  0.00    +0.000 A 
ATOM      3  C   UNL     1       1.449   7.785  20.979  0.00  0.00    +0.000 A 
ATOM      4  C   UNL     1       1.938   7.026  19.915  0.00  0.00    +0.000 A 
ATOM      5  C   UNL     1       2.054   7.641  18.658  0.00  0.00    +0.000 A 
ATOM      6  C   UNL     1       1.702   8.988  18.478  0.00  0.00    +0.000 A 
ENDROOT
BRANCH   1   9
ATOM      7  N   UNL     1      -0.456  11.524  18.862  0.00  0.00    +0.000 N 
ATOM      8  C   UNL     1      -0.658  12.878  18.359  0.00  0.00    +0.000 C 
ATOM      9  C   UNL     1       0.829  11.176  19.315  0.00  0.00    +0.000 C 
ATOM     10  O   UNL     1       1.695  12.023  19.543  0.00  0.00    +0.000 OA
BRANCH   7  11
ATOM     11  C   UNL     1      -1.528  10.550  18.712  0.00  0.00    +0.000 C 
BRANCH  11  15
ATOM     12  C   UNL     1      -3.727  10.264  15.038  0.00  0.00    +0.000 A 
ATOM     13  C   UNL     1      -2.532   9.568  15.213  0.00  0.00    +0.000 A 
ATOM     14  C   UNL     1      -1.848   9.670  16.413  0.00  0.00    +0.000 A 
ATOM     15  C   UNL     1      -2.327  10.494  17.445  0.00  0.00    +0.000 A 
ATOM     16  C   UNL     1      -3.541  11.162  17.286  0.00  0.00    +0.000 A 
ATOM     17  C   UNL     1      -4.228  11.057  16.075  0.00  0.00    +0.000 A 
BRANCH  12  18
ATOM     18  O   UNL     1      -4.471  10.236  13.894  0.00  0.00    +0.000 OA
BRANCH  18  19
ATOM     19  C   UNL     1      -3.742   9.868  12.723  0.00  0.00    +0.000 C 
BRANCH  19  21
ATOM     20  C   UNL     1      -6.058   9.598  11.841  0.00  0.00    +0.000 C 
ATOM     21  C   UNL     1      -4.734   9.460  11.687  0.00  0.00    +0.000 C 
ENDBRANCH  19  21
ENDBRANCH  18  19
ENDBRANCH  12  18
ENDBRANCH  11  15
ENDBRANCH   7  11
ENDBRANCH   1   9
BRANCH   4  22
ATOM     22  C   UNL     1       2.328   5.577  20.122  0.00  0.00    +0.000 C 
BRANCH  22  23
ATOM     23  N   UNL     1       2.004   4.749  18.951  0.00  0.00    +0.000 NA
ATOM     24  H   UNL     1       1.477   5.199  18.204  0.00  0.00    +0.000 HD
BRANCH  23  25
ATOM     25  S   UNL     1       3.199   3.748  18.345  0.00  0.00    +0.000 S 
ATOM     26  O   UNL     1       3.605   2.899  19.453  0.00  0.00    +0.000 OA
ATOM     27  O   UNL     1       2.724   3.190  17.096  0.00  0.00    +0.000 OA
BRANCH  25  28
ATOM     28  C   UNL     1       4.538   4.869  18.020  0.00  0.00    +0.000 A 
ATOM     29  C   UNL     1       4.425   5.790  16.984  0.00  0.00    +0.000 A 
ATOM     30  C   UNL     1       5.459   6.701  16.771  0.00  0.00    +0.000 A 
ATOM     31  C   UNL     1       6.606   6.703  17.585  0.00  0.00    +0.000 A 
ATOM     32  C   UNL     1       7.679   7.727  17.324  0.00  0.00    +0.000 C 
ATOM     33  C   UNL     1       6.715   5.761  18.630  0.00  0.00    +0.000 A 
ATOM     34  C   UNL     1       7.903   5.687  19.551  0.00  0.00    +0.000 C 
ATOM     35  C   UNL     1       5.665   4.850  18.843  0.00  0.00    +0.000 A 
ENDBRANCH  25  28
ENDBRANCH  23  25
ENDBRANCH  22  23
ENDBRANCH   4  22
TORSDOF 10
ENDMDL
MODEL 2
REMARK VINA RESULT:      -8.4      2.953      9.803
REMARK  Name = 
REMARK  13 active torsions:
REMARK  status: ('A' for Active; 'I' for Inactive)
REMARK    1  A    between atoms: C_2  and  C_3
REMARK    2  A    between atoms: C_3  and  O_4
REMARK    3  A    between atoms: O_4  and  C_5
REMARK    4  A    between atoms: C_8  and  C_9
REMARK    5  A    between atoms: C_9  and  N_10
REMARK    6  A    between atoms: N_10  and  C_11
REMARK    7  A    between atoms: C_12  and  C_14
REMARK    8  A    between atoms: C_17  and  C_18
REMARK    9  A    between atoms: C_18  and  N_19
REMARK   10  A    between atoms: N_19  and  S_20
REMARK   11  A    between atoms: S_20  and  C_23
REMARK   12  A    between atoms: C_26  and  C_27
REMARK   13  A    between atoms: C_28  and  C_29
REMARK                            x       y       z     vdW  Elec       q    Type
REMARK                         _______ _______ _______ _____ _____    ______ ____
ROOT
ATOM      1  C   UNL     1       2.117   5.302  19.043  0.00  0.00    +0.000 A 
ATOM      2  C   UNL     1       1.750   5.316  20.392  0.00  0.00    +0.000 A 
ATOM      3  C   UNL     1       1.417   6.496  21.047  0.00  0.00    +0.000 A 
ATOM      4  C   UNL     1       1.611   7.729  20.421  0.00  0.00    +0.000 A 
ATOM      5  C   UNL     1       2.065   7.735  19.092  0.00  0.00    +0.000 A 
ATOM      6  C   UNL     1       2.302   6.534  18.405  0.00  0.00    +0.000 A 
ENDROOT
BRANCH   1   9
ATOM      7  N   UNL     1       3.668   3.458  18.271  0.00  0.00    +0.000 N 
ATOM      8  C   UNL     1       3.946   2.430  17.275  0.00  0.00    +0.000 C 
ATOM      9  C   UNL     1       2.386   4.038  18.277  0.00  0.00    +0.000 C 
ATOM     10  O   UNL     1       1.440   3.540  17.665  0.00  0.00    +0.000 OA
BRANCH   7  11
ATOM     11  C   UNL     1       4.762   3.961  19.091  0.00  0.00    +0.000 C 
BRANCH  11  15
ATOM     12  C   UNL     1       7.427   7.029  17.715  0.00  0.00    +0.000 A 
ATOM     13  C   UNL     1       7.722   6.283  18.854  0.00  0.00    +0.000 A 
ATOM     14  C   UNL     1       6.850   5.291  19.270  0.00  0.00    +0.000 A 
ATOM     15  C   UNL     1       5.652   5.051  18.576  0.00  0.00    +0.000 A 
ATOM     16  C   UNL     1       5.373   5.771  17.416  0.00  0.00    +0.000 A 
ATOM     17  C   UNL     1       6.254   6.770  16.999  0.00  0.00    +0.000 A 
BRANCH  12  18
ATOM     18  O   UNL     1       8.217   8.031  17.227  0.00  0.00    +0.000 OA
BRANCH  18  19
ATOM     19  C   UNL     1       7.947   9.319  17.780  0.00  0.00    +0.000 C 
BRANCH  19  21
ATOM     20  C   UNL     1       9.463  10.821  19.069  0.00  0.00    +0.000 C 
ATOM     21  C   UNL     1       8.991   9.594  18.808  0.00  0.00    +0.000 C 
ENDBRANCH  19  21
ENDBRANCH  18  19
ENDBRANCH  12  18
ENDBRANCH  11  15
ENDBRANCH   7  11
ENDBRANCH   1   9
BRANCH   4  22
ATOM     22  C   UNL     1       1.340   9.020  21.166  0.00  0.00    +0.000 C 
BRANCH  22  23
ATOM     23  N   UNL     1       1.216  10.164  20.253  0.00  0.00    +0.000 NA
ATOM     24  H   UNL     1       0.987   9.954  19.283  0.00  0.00    +0.000 HD
BRANCH  23  25
ATOM     25  S   UNL     1       0.398  11.517  20.799  0.00  0.00    +0.000 S 
ATOM     26  O   UNL     1       0.042  11.234  22.180  0.00  0.00    +0.000 OA
ATOM     27  O   UNL     1       1.172  12.685  20.439  0.00  0.00    +0.000 OA
BRANCH  25  28
ATOM     28  C   UNL     1      -1.105  11.489  19.851  0.00  0.00    +0.000 A 
ATOM     29  C   UNL     1      -2.184  12.266  20.255  0.00  0.00    +0.000 A 
ATOM     30  C   UNL     1      -3.340  12.279  19.475  0.00  0.00    +0.000 A 
ATOM     31  C   UNL     1      -3.427  11.524  18.292  0.00  0.00    +0.000 A 
ATOM     32  C   UNL     1      -4.691  11.597  17.476  0.00  0.00    +0.000 C 
ATOM     33  C   UNL     1      -2.329  10.734  17.892  0.00  0.00    +0.000 A 
ATOM     34  C   UNL     1      -2.330   9.893  16.644  0.00  0.00    +0.000 C 
ATOM     35  C   UNL     1      -1.165  10.731  18.680  0.00  0.00    +0.000 A 
ENDBRANCH  25  28
ENDBRANCH  23  25
ENDBRANCH  22  23
ENDBRANCH   4  22
TORSDOF 10
ENDMDL
MODEL 3
REMARK VINA RESULT:      -7.9      3.122      9.787
REMARK  Name = 
REMARK  13 active torsions:
REMARK  status: ('A' for Active; 'I' for Inactive)
REMARK    1  A    between atoms: C_2  and  C_3
REMARK    2  A    between atoms: C_3  and  O_4
REMARK    3  A    between atoms: O_4  and  C_5
REMARK    4  A    between atoms: C_8  and  C_9
REMARK    5  A    between atoms: C_9  and  N_10
REMARK    6  A    between atoms: N_10  and  C_11
REMARK    7  A    between atoms: C_12  and  C_14
REMARK    8  A    between atoms: C_17  and  C_18
REMARK    9  A    between atoms: C_18  and  N_19
REMARK   10  A    between atoms: N_19  and  S_20
REMARK   11  A    between atoms: S_20  and  C_23
REMARK   12  A    between atoms: C_26  and  C_27
REMARK   13  A    between atoms: C_28  and  C_29
REMARK                            x       y       z     vdW  Elec       q    Type
REMARK                         _______ _______ _______ _____ _____    ______ ____
ROOT
ATOM      1  C   UNL     1       2.310   5.626  19.527  0.00  0.00    +0.000 A 
ATOM      2  C   UNL     1       2.371   6.149  18.232  0.00  0.00    +0.000 A 
ATOM      3  C   UNL     1       2.229   7.510  17.986  0.00  0.00    +0.000 A 
ATOM      4  C   UNL     1       1.843   8.376  19.011  0.00  0.00    +0.000 A 
ATOM      5  C   UNL     1       1.691   7.848  20.304  0.00  0.00    +0.000 A 
ATOM      6  C   UNL     1       1.935   6.490  20.562  0.00  0.00    +0.000 A 
ENDROOT
BRANCH   1   9
ATOM      7  N   UNL     1       3.853   3.635  19.765  0.00  0.00    +0.000 N 
ATOM      8  C   UNL     1       3.984   2.183  19.771  0.00  0.00    +0.000 C 
ATOM      9  C   UNL     1       2.557   4.178  19.842  0.00  0.00    +0.000 C 
ATOM     10  O   UNL     1       1.582   3.501  20.168  0.00  0.00    +0.000 OA
BRANCH   7  11
ATOM     11  C   UNL     1       5.033   4.449  19.507  0.00  0.00    +0.000 C 
BRANCH  11  15
ATOM     12  C   UNL     1       6.714   4.442  15.559  0.00  0.00    +0.000 A 
ATOM     13  C   UNL     1       5.356   4.202  15.759  0.00  0.00    +0.000 A 
ATOM     14  C   UNL     1       4.837   4.221  17.043  0.00  0.00    +0.000 A 
ATOM     15  C   UNL     1       5.672   4.445  18.152  0.00  0.00    +0.000 A 
ATOM     16  C   UNL     1       7.024   4.721  17.951  0.00  0.00    +0.000 A 
ATOM     17  C   UNL     1       7.543   4.701  16.655  0.00  0.00    +0.000 A 
BRANCH  12  18
ATOM     18  O   UNL     1       7.322   4.438  14.337  0.00  0.00    +0.000 OA
BRANCH  18  19
ATOM     19  C   UNL     1       6.449   4.711  13.240  0.00  0.00    +0.000 C 
BRANCH  19  21
ATOM     20  C   UNL     1       5.252   3.044  11.825  0.00  0.00    +0.000 C 
ATOM     21  C   UNL     1       6.380   3.477  12.405  0.00  0.00    +0.000 C 
ENDBRANCH  19  21
ENDBRANCH  18  19
ENDBRANCH  12  18
ENDBRANCH  11  15
ENDBRANCH   7  11
ENDBRANCH   1   9
BRANCH   4  22
ATOM     22  C   UNL     1       1.595   9.842  18.725  0.00  0.00    +0.000 C 
BRANCH  22  23
ATOM     23  N   UNL     1       0.796  10.480  19.781  0.00  0.00    +0.000 NA
ATOM     24  H   UNL     1       1.100  10.325  20.741  0.00  0.00    +0.000 HD
BRANCH  23  25
ATOM     25  S   UNL     1       0.298  12.058  19.541  0.00  0.00    +0.000 S 
ATOM     26  O   UNL     1       0.274  12.671  20.859  0.00  0.00    +0.000 OA
ATOM     27  O   UNL     1       1.082  12.616  18.459  0.00  0.00    +0.000 OA
BRANCH  25  28
ATOM     28  C   UNL     1      -1.388  11.873  19.014  0.00  0.00    +0.000 A 
ATOM     29  C   UNL     1      -1.677  11.092  17.901  0.00  0.00    +0.000 A 
ATOM     30  C   UNL     1      -3.007  10.909  17.527  0.00  0.00    +0.000 A 
ATOM     31  C   UNL     1      -4.055  11.498  18.256  0.00  0.00    +0.000 A 
ATOM     32  C   UNL     1      -5.475  11.245  17.820  0.00  0.00    +0.000 C 
ATOM     33  C   UNL     1      -3.754  12.294  19.381  0.00  0.00    +0.000 A 
ATOM     34  C   UNL     1      -4.807  12.965  20.222  0.00  0.00    +0.000 C 
ATOM     35  C   UNL     1      -2.410  12.468  19.756  0.00  0.00    +0.000 A 
ENDBRANCH  25  28
ENDBRANCH  23  25
ENDBRANCH  22  23
ENDBRANCH   4  22
TORSDOF 10
ENDMDL
MODEL 4
REMARK VINA RESULT:      -7.8      2.901      9.761
REMARK  Name = 
REMARK  13 active torsions:
REMARK  status: ('A' for Active; 'I' for Inactive)
REMARK    1  A    between atoms: C_2  and  C_3
REMARK    2  A    between atoms: C_3  and  O_4
REMARK    3  A    between atoms: O_4  and  C_5
REMARK    4  A    between atoms: C_8  and  C_9
REMARK    5  A    between atoms: C_9  and  N_10
REMARK    6  A    between atoms: N_10  and  C_11
REMARK    7  A    between atoms: C_12  and  C_14
REMARK    8  A    between atoms: C_17  and  C_18
REMARK    9  A    between atoms: C_18  and  N_19
REMARK   10  A    between atoms: N_19  and  S_20
REMARK   11  A    between atoms: S_20  and  C_23
REMARK   12  A    between atoms: C_26  and  C_27
REMARK   13  A    between atoms: C_28  and  C_29
REMARK                            x       y       z     vdW  Elec       q    Type
REMARK                         _______ _______ _______ _____ _____    ______ ____
ROOT
ATOM      1  C   UNL     1       2.213   6.448  19.399  0.00  0.00    +0.000 A 
ATOM      2  C   UNL     1       2.158   6.946  18.093  0.00  0.00    +0.000 A 
ATOM      3  C   UNL     1       2.000   8.303  17.835  0.00  0.00    +0.000 A 
ATOM      4  C   UNL     1       1.713   9.190  18.874  0.00  0.00    +0.000 A 
ATOM      5  C   UNL     1       1.678   8.688  20.185  0.00  0.00    +0.000 A 
ATOM      6  C   UNL     1       1.938   7.333  20.447  0.00  0.00    +0.000 A 
ENDROOT
BRANCH   1   9
ATOM      7  N   UNL     1       3.767   4.458  19.555  0.00  0.00    +0.000 N 
ATOM      8  C   UNL     1       3.898   3.006  19.574  0.00  0.00    +0.000 C 
ATOM      9  C   UNL     1       2.481   5.004  19.717  0.00  0.00    +0.000 C 
ATOM     10  O   UNL     1       1.531   4.334  20.123  0.00  0.00    +0.000 OA
BRANCH   7  11
ATOM     11  C   UNL     1       4.927   5.266  19.200  0.00  0.00    +0.000 C 
BRANCH  11  15
ATOM     12  C   UNL     1       6.503   5.161  15.211  0.00  0.00    +0.000 A 
ATOM     13  C   UNL     1       7.167   4.527  16.259  0.00  0.00    +0.000 A 
ATOM     14  C   UNL     1       6.630   4.567  17.535  0.00  0.00    +0.000 A 
ATOM     15  C   UNL     1       5.441   5.270  17.793  0.00  0.00    +0.000 A 
ATOM     16  C   UNL     1       4.757   5.874  16.739  0.00  0.00    +0.000 A 
ATOM     17  C   UNL     1       5.301   5.831  15.454  0.00  0.00    +0.000 A 
BRANCH  12  18
ATOM     18  O   UNL     1       6.952   5.185  13.922  0.00  0.00    +0.000 OA
BRANCH  18  19
ATOM     19  C   UNL     1       7.080   3.900  13.315  0.00  0.00    +0.000 C 
BRANCH  19  21
ATOM     20  C   UNL     1       4.995   3.380  12.051  0.00  0.00    +0.000 C 
ATOM     21  C   UNL     1       6.231   3.896  12.089  0.00  0.00    +0.000 C 
ENDBRANCH  19  21
ENDBRANCH  18  19
ENDBRANCH  12  18
ENDBRANCH  11  15
ENDBRANCH   7  11
ENDBRANCH   1   9
BRANCH   4  22
ATOM     22  C   UNL     1       1.446  10.652  18.584  0.00  0.00    +0.000 C 
BRANCH  22  23
ATOM     23  N   UNL     1       0.014  10.923  18.401  0.00  0.00    +0.000 NA
ATOM     24  H   UNL     1      -0.566  10.139  18.106  0.00  0.00    +0.000 HD
BRANCH  23  25
ATOM     25  S   UNL     1      -0.759  11.862  19.549  0.00  0.00    +0.000 S 
ATOM     26  O   UNL     1      -0.710  11.097  20.785  0.00  0.00    +0.000 OA
ATOM     27  O   UNL     1      -0.223  13.204  19.466  0.00  0.00    +0.000 OA
BRANCH  25  28
ATOM     28  C   UNL     1      -2.448  11.865  18.997  0.00  0.00    +0.000 A 
ATOM     29  C   UNL     1      -3.439  12.374  19.828  0.00  0.00    +0.000 A 
ATOM     30  C   UNL     1      -4.753  12.422  19.365  0.00  0.00    +0.000 A 
ATOM     31  C   UNL     1      -5.088  11.968  18.077  0.00  0.00    +0.000 A 
ATOM     32  C   UNL     1      -6.520  12.068  17.621  0.00  0.00    +0.000 C 
ATOM     33  C   UNL     1      -4.076  11.448  17.242  0.00  0.00    +0.000 A 
ATOM     34  C   UNL     1      -4.338  10.938  15.850  0.00  0.00    +0.000 C 
ATOM     35  C   UNL     1      -2.752  11.409  17.713  0.00  0.00    +0.000 A 
ENDBRANCH  25  28
ENDBRANCH  23  25
ENDBRANCH  22  23
ENDBRANCH   4  22
TORSDOF 10
ENDMDL
MODEL 5
REMARK VINA RESULT:      -7.8      1.263      1.681
REMARK  Name = 
REMARK  13 active torsions:
REMARK  status: ('A' for Active; 'I' for Inactive)
REMARK    1  A    between atoms: C_2  and  C_3
REMARK    2  A    between atoms: C_3  and  O_4
REMARK    3  A    between atoms: O_4  and  C_5
REMARK    4  A    between atoms: C_8  and  C_9
REMARK    5  A    between atoms: C_9  and  N_10
REMARK    6  A    between atoms: N_10  and  C_11
REMARK    7  A    between atoms: C_12  and  C_14
REMARK    8  A    between atoms: C_17  and  C_18
REMARK    9  A    between atoms: C_18  and  N_19
REMARK   10  A    between atoms: N_19  and  S_20
REMARK   11  A    between atoms: S_20  and  C_23
REMARK   12  A    between atoms: C_26  and  C_27
REMARK   13  A    between atoms: C_28  and  C_29
REMARK                            x       y       z     vdW  Elec       q    Type
REMARK                         _______ _______ _______ _____ _____    ______ ____
ROOT
ATOM      1  C   UNL     1       1.025  10.627  19.574  0.00  0.00    +0.000 A 
ATOM      2  C   UNL     1       0.948   9.608  20.529  0.00  0.00    +0.000 A 
ATOM      3  C   UNL     1       1.529   8.363  20.316  0.00  0.00    +0.000 A 
ATOM      4  C   UNL     1       2.056   8.035  19.065  0.00  0.00    +0.000 A 
ATOM      5  C   UNL     1       2.060   9.022  18.066  0.00  0.00    +0.000 A 
ATOM      6  C   UNL     1       1.562  10.309  18.322  0.00  0.00    +0.000 A 
ENDROOT
BRANCH   1   9
ATOM      7  N   UNL     1      -0.883  12.279  19.750  0.00  0.00    +0.000 N 
ATOM      8  C   UNL     1      -1.307  13.672  19.672  0.00  0.00    +0.000 C 
ATOM      9  C   UNL     1       0.497  12.014  19.809  0.00  0.00    +0.000 C 
ATOM     10  O   UNL     1       1.322  12.894  20.056  0.00  0.00    +0.000 OA
BRANCH   7  11
ATOM     11  C   UNL     1      -1.880  11.229  19.588  0.00  0.00    +0.000 C 
BRANCH  11  15
ATOM     12  C   UNL     1      -3.614  10.507  15.730  0.00  0.00    +0.000 A 
ATOM     13  C   UNL     1      -4.221  11.373  16.636  0.00  0.00    +0.000 A 
ATOM     14  C   UNL     1      -3.634  11.597  17.870  0.00  0.00    +0.000 A 
ATOM     15  C   UNL     1      -2.451  10.932  18.235  0.00  0.00    +0.000 A 
ATOM     16  C   UNL     1      -1.823  10.093  17.315  0.00  0.00    +0.000 A 
ATOM     17  C   UNL     1      -2.417   9.870  16.072  0.00  0.00    +0.000 A 
BRANCH  12  18
ATOM     18  O   UNL     1      -4.115  10.214  14.494  0.00  0.00    +0.000 OA
BRANCH  18  19
ATOM     19  C   UNL     1      -3.125   9.956  13.499  0.00  0.00    +0.000 C 
BRANCH  19  21
ATOM     20  C   UNL     1      -5.071   9.971  11.941  0.00  0.00    +0.000 C 
ATOM     21  C   UNL     1      -3.836   9.553  12.252  0.00  0.00    +0.000 C 
ENDBRANCH  19  21
ENDBRANCH  18  19
ENDBRANCH  12  18
ENDBRANCH  11  15
ENDBRANCH   7  11
ENDBRANCH   1   9
BRANCH   4  22
ATOM     22  C   UNL     1       2.603   6.647  18.803  0.00  0.00    +0.000 C 
BRANCH  22  23
ATOM     23  N   UNL     1       1.951   5.632  19.642  0.00  0.00    +0.000 NA
ATOM     24  H   UNL     1       0.933   5.659  19.685  0.00  0.00    +0.000 HD
BRANCH  23  25
ATOM     25  S   UNL     1       2.521   4.062  19.559  0.00  0.00    +0.000 S 
ATOM     26  O   UNL     1       3.066   3.768  20.875  0.00  0.00    +0.000 OA
ATOM     27  O   UNL     1       1.488   3.241  18.964  0.00  0.00    +0.000 OA
BRANCH  25  28
ATOM     28  C   UNL     1       3.893   4.190  18.437  0.00  0.00    +0.000 A 
ATOM     29  C   UNL     1       3.724   3.831  17.105  0.00  0.00    +0.000 A 
ATOM     30  C   UNL     1       4.791   3.986  16.221  0.00  0.00    +0.000 A 
ATOM     31  C   UNL     1       6.026   4.498  16.654  0.00  0.00    +0.000 A 
ATOM     32  C   UNL     1       7.135   4.667  15.649  0.00  0.00    +0.000 C 
ATOM     33  C   UNL     1       6.191   4.855  18.009  0.00  0.00    +0.000 A 
ATOM     34  C   UNL     1       7.475   5.411  18.565  0.00  0.00    +0.000 C 
ATOM     35  C   UNL     1       5.108   4.703  18.893  0.00  0.00    +0.000 A 
ENDBRANCH  25  28
ENDBRANCH  23  25
ENDBRANCH  22  23
ENDBRANCH   4  22
TORSDOF 10
ENDMDL
MODEL 6
REMARK VINA RESULT:      -7.8      2.903      9.803
REMARK  Name = 
REMARK  13 active torsions:
REMARK  status: ('A' for Active; 'I' for Inactive)
REMARK    1  A    between atoms: C_2  and  C_3
REMARK    2  A    between atoms: C_3  and  O_4
REMARK    3  A    between atoms: O_4  and  C_5
REMARK    4  A    between atoms: C_8  and  C_9
REMARK    5  A    between atoms: C_9  and  N_10
REMARK    6  A    between atoms: N_10  and  C_11
REMARK    7  A    between atoms: C_12  and  C_14
REMARK    8  A    between atoms: C_17  and  C_18
REMARK    9  A    between atoms: C_18  and  N_19
REMARK   10  A    between atoms: N_19  and  S_20
REMARK   11  A    between atoms: S_20  and  C_23
REMARK   12  A    between atoms: C_26  and  C_27
REMARK   13  A    between atoms: C_28  and  C_29
REMARK                            x       y       z     vdW  Elec       q    Type
REMARK                         _______ _______ _______ _____ _____    ______ ____
ROOT
ATOM      1  C   UNL     1       2.225   6.022  19.472  0.00  0.00    +0.000 A 
ATOM      2  C   UNL     1       1.999   7.042  20.402  0.00  0.00    +0.000 A 
ATOM      3  C   UNL     1       1.767   8.354  20.005  0.00  0.00    +0.000 A 
ATOM      4  C   UNL     1       1.929   8.726  18.669  0.00  0.00    +0.000 A 
ATOM      5  C   UNL     1       2.243   7.726  17.734  0.00  0.00    +0.000 A 
ATOM      6  C   UNL     1       2.376   6.385  18.129  0.00  0.00    +0.000 A 
ENDROOT
BRANCH   1   9
ATOM      7  N   UNL     1       3.631   3.940  19.772  0.00  0.00    +0.000 N 
ATOM      8  C   UNL     1       3.660   2.485  19.853  0.00  0.00    +0.000 C 
ATOM      9  C   UNL     1       2.380   4.578  19.857  0.00  0.00    +0.000 C 
ATOM     10  O   UNL     1       1.371   3.991  20.249  0.00  0.00    +0.000 OA
BRANCH   7  11
ATOM     11  C   UNL     1       4.856   4.652  19.435  0.00  0.00    +0.000 C 
BRANCH  11  15
ATOM     12  C   UNL     1       6.441   4.268  15.466  0.00  0.00    +0.000 A 
ATOM     13  C   UNL     1       5.068   4.208  15.697  0.00  0.00    +0.000 A 
ATOM     14  C   UNL     1       4.583   4.346  16.987  0.00  0.00    +0.000 A 
ATOM     15  C   UNL     1       5.461   4.511  18.071  0.00  0.00    +0.000 A 
ATOM     16  C   UNL     1       6.832   4.607  17.838  0.00  0.00    +0.000 A 
ATOM     17  C   UNL     1       7.318   4.468  16.536  0.00  0.00    +0.000 A 
BRANCH  12  18
ATOM     18  O   UNL     1       7.018   4.136  14.236  0.00  0.00    +0.000 OA
BRANCH  18  19
ATOM     19  C   UNL     1       6.127   4.337  13.139  0.00  0.00    +0.000 C 
BRANCH  19  21
ATOM     20  C   UNL     1       7.035   2.705  11.487  0.00  0.00    +0.000 C 
ATOM     21  C   UNL     1       6.083   3.066  12.359  0.00  0.00    +0.000 C 
ENDBRANCH  19  21
ENDBRANCH  18  19
ENDBRANCH  12  18
ENDBRANCH  11  15
ENDBRANCH   7  11
ENDBRANCH   1   9
BRANCH   4  22
ATOM     22  C   UNL     1       1.770  10.173  18.250  0.00  0.00    +0.000 C 
BRANCH  22  23
ATOM     23  N   UNL     1       0.358  10.542  18.074  0.00  0.00    +0.000 NA
ATOM     24  H   UNL     1      -0.294   9.781  17.892  0.00  0.00    +0.000 HD
BRANCH  23  25
ATOM     25  S   UNL     1      -0.293  11.672  19.122  0.00  0.00    +0.000 S 
ATOM     26  O   UNL     1      -0.184  11.090  20.450  0.00  0.00    +0.000 OA
ATOM     27  O   UNL     1       0.288  12.960  18.808  0.00  0.00    +0.000 OA
BRANCH  25  28
ATOM     28  C   UNL     1      -2.015  11.679  18.688  0.00  0.00    +0.000 A 
ATOM     29  C   UNL     1      -2.944  12.208  19.576  0.00  0.00    +0.000 A 
ATOM     30  C   UNL     1      -4.287  12.258  19.204  0.00  0.00    +0.000 A 
ATOM     31  C   UNL     1      -4.712  11.786  17.950  0.00  0.00    +0.000 A 
ATOM     32  C   UNL     1      -6.171  11.889  17.592  0.00  0.00    +0.000 C 
ATOM     33  C   UNL     1      -3.764  11.245  17.056  0.00  0.00    +0.000 A 
ATOM     34  C   UNL     1      -4.124  10.716  15.694  0.00  0.00    +0.000 C 
ATOM     35  C   UNL     1      -2.411  11.204  17.435  0.00  0.00    +0.000 A 
ENDBRANCH  25  28
ENDBRANCH  23  25
ENDBRANCH  22  23
ENDBRANCH   4  22
TORSDOF 10
ENDMDL
MODEL 7
REMARK VINA RESULT:      -7.7      3.069      9.830
REMARK  Name = 
REMARK  13 active torsions:
REMARK  status: ('A' for Active; 'I' for Inactive)
REMARK    1  A    between atoms: C_2  and  C_3
REMARK    2  A    between atoms: C_3  and  O_4
REMARK    3  A    between atoms: O_4  and  C_5
REMARK    4  A    between atoms: C_8  and  C_9
REMARK    5  A    between atoms: C_9  and  N_10
REMARK    6  A    between atoms: N_10  and  C_11
REMARK    7  A    between atoms: C_12  and  C_14
REMARK    8  A    between atoms: C_17  and  C_18
REMARK    9  A    between atoms: C_18  and  N_19
REMARK   10  A    between atoms: N_19  and  S_20
REMARK   11  A    between atoms: S_20  and  C_23
REMARK   12  A    between atoms: C_26  and  C_27
REMARK   13  A    between atoms: C_28  and  C_29
REMARK                            x       y       z     vdW  Elec       q    Type
REMARK                         _______ _______ _______ _____ _____    ______ ____
ROOT
ATOM      1  C   UNL     1       2.434   5.756  19.596  0.00  0.00    +0.000 A 
ATOM      2  C   UNL     1       2.379   6.236  18.283  0.00  0.00    +0.000 A 
ATOM      3  C   UNL     1       2.112   7.572  18.005  0.00  0.00    +0.000 A 
ATOM      4  C   UNL     1       1.715   8.439  19.024  0.00  0.00    +0.000 A 
ATOM      5  C   UNL     1       1.681   7.947  20.339  0.00  0.00    +0.000 A 
ATOM      6  C   UNL     1       2.050   6.623  20.624  0.00  0.00    +0.000 A 
ENDROOT
BRANCH   1   9
ATOM      7  N   UNL     1       4.098   3.850  19.633  0.00  0.00    +0.000 N 
ATOM      8  C   UNL     1       4.306   2.408  19.698  0.00  0.00    +0.000 C 
ATOM      9  C   UNL     1       2.817   4.344  19.939  0.00  0.00    +0.000 C 
ATOM     10  O   UNL     1       1.964   3.652  20.496  0.00  0.00    +0.000 OA
BRANCH   7  11
ATOM     11  C   UNL     1       5.158   4.692  19.093  0.00  0.00    +0.000 C 
BRANCH  11  15
ATOM     12  C   UNL     1       6.235   4.599  14.940  0.00  0.00    +0.000 A 
ATOM     13  C   UNL     1       7.157   4.987  15.910  0.00  0.00    +0.000 A 
ATOM     14  C   UNL     1       6.786   4.997  17.244  0.00  0.00    +0.000 A 
ATOM     15  C   UNL     1       5.479   4.655  17.630  0.00  0.00    +0.000 A 
ATOM     16  C   UNL     1       4.566   4.231  16.664  0.00  0.00    +0.000 A 
ATOM     17  C   UNL     1       4.943   4.221  15.321  0.00  0.00    +0.000 A 
BRANCH  12  18
ATOM     18  O   UNL     1       6.499   4.562  13.601  0.00  0.00    +0.000 OA
BRANCH  18  19
ATOM     19  C   UNL     1       6.644   3.248  13.062  0.00  0.00    +0.000 C 
BRANCH  19  21
ATOM     20  C   UNL     1       4.540   3.434  11.739  0.00  0.00    +0.000 C 
ATOM     21  C   UNL     1       5.857   3.193  11.797  0.00  0.00    +0.000 C 
ENDBRANCH  19  21
ENDBRANCH  18  19
ENDBRANCH  12  18
ENDBRANCH  11  15
ENDBRANCH   7  11
ENDBRANCH   1   9
BRANCH   4  22
ATOM     22  C   UNL     1       1.332   9.870  18.709  0.00  0.00    +0.000 C 
BRANCH  22  23
ATOM     23  N   UNL     1      -0.024  10.190  19.176  0.00  0.00    +0.000 NA
ATOM     24  H   UNL     1      -0.392   9.622  19.937  0.00  0.00    +0.000 HD
BRANCH  23  25
ATOM     25  S   UNL     1      -0.429  11.803  19.362  0.00  0.00    +0.000 S 
ATOM     26  O   UNL     1      -0.351  12.069  20.789  0.00  0.00    +0.000 OA
ATOM     27  O   UNL     1       0.339  12.570  18.404  0.00  0.00    +0.000 OA
BRANCH  25  28
ATOM     28  C   UNL     1      -2.146  11.843  18.910  0.00  0.00    +0.000 A 
ATOM     29  C   UNL     1      -2.548  11.299  17.695  0.00  0.00    +0.000 A 
ATOM     30  C   UNL     1      -3.905  11.287  17.374  0.00  0.00    +0.000 A 
ATOM     31  C   UNL     1      -4.866  11.811  18.255  0.00  0.00    +0.000 A 
ATOM     32  C   UNL     1      -6.320  11.747  17.866  0.00  0.00    +0.000 C 
ATOM     33  C   UNL     1      -4.449  12.365  19.484  0.00  0.00    +0.000 A 
ATOM     34  C   UNL     1      -5.404  12.950  20.491  0.00  0.00    +0.000 C 
ATOM     35  C   UNL     1      -3.080  12.368  19.805  0.00  0.00    +0.000 A 
ENDBRANCH  25  28
ENDBRANCH  23  25
ENDBRANCH  22  23
ENDBRANCH   4  22
TORSDOF 10
ENDMDL
MODEL 8
REMARK VINA RESULT:      -7.7      3.310     10.015
REMARK  Name = 
REMARK  13 active torsions:
REMARK  status: ('A' for Active; 'I' for Inactive)
REMARK    1  A    between atoms: C_2  and  C_3
REMARK    2  A    between atoms: C_3  and  O_4
REMARK    3  A    between atoms: O_4  and  C_5
REMARK    4  A    between atoms: C_8  and  C_9
REMARK    5  A    between atoms: C_9  and  N_10
REMARK    6  A    between atoms: N_10  and  C_11
REMARK    7  A    between atoms: C_12  and  C_14
REMARK    8  A    between atoms: C_17  and  C_18
REMARK    9  A    between atoms: C_18  and  N_19
REMARK   10  A    between atoms: N_19  and  S_20
REMARK   11  A    between atoms: S_20  and  C_23
REMARK   12  A    between atoms: C_26  and  C_27
REMARK   13  A    between atoms: C_28  and  C_29
REMARK                            x       y       z     vdW  Elec       q    Type
REMARK                         _______ _______ _______ _____ _____    ______ ____
ROOT
ATOM      1  C   UNL     1       2.141   5.312  19.035  0.00  0.00    +0.000 A 
ATOM      2  C   UNL     1       1.849   5.430  20.398  0.00  0.00    +0.000 A 
ATOM      3  C   UNL     1       1.521   6.653  20.971  0.00  0.00    +0.000 A 
ATOM      4  C   UNL     1       1.646   7.834  20.236  0.00  0.00    +0.000 A 
ATOM      5  C   UNL     1       2.025   7.739  18.887  0.00  0.00    +0.000 A 
ATOM      6  C   UNL     1       2.258   6.490  18.289  0.00  0.00    +0.000 A 
ENDROOT
BRANCH   1   9
ATOM      7  N   UNL     1       3.675   3.397  18.418  0.00  0.00    +0.000 N 
ATOM      8  C   UNL     1       3.953   2.300  17.499  0.00  0.00    +0.000 C 
ATOM      9  C   UNL     1       2.403   3.995  18.362  0.00  0.00    +0.000 C 
ATOM     10  O   UNL     1       1.459   3.471  17.770  0.00  0.00    +0.000 OA
BRANCH   7  11
ATOM     11  C   UNL     1       4.765   3.938  19.220  0.00  0.00    +0.000 C 
BRANCH  11  15
ATOM     12  C   UNL     1       7.392   6.983  17.724  0.00  0.00    +0.000 A 
ATOM     13  C   UNL     1       7.800   6.122  18.740  0.00  0.00    +0.000 A 
ATOM     14  C   UNL     1       6.936   5.141  19.197  0.00  0.00    +0.000 A 
ATOM     15  C   UNL     1       5.638   5.026  18.672  0.00  0.00    +0.000 A 
ATOM     16  C   UNL     1       5.240   5.863  17.629  0.00  0.00    +0.000 A 
ATOM     17  C   UNL     1       6.114   6.850  17.171  0.00  0.00    +0.000 A 
BRANCH  12  18
ATOM     18  O   UNL     1       8.164   7.985  17.210  0.00  0.00    +0.000 OA
BRANCH  18  19
ATOM     19  C   UNL     1       7.855   9.286  17.709  0.00  0.00    +0.000 C 
BRANCH  19  21
ATOM     20  C   UNL     1       9.308  10.892  18.945  0.00  0.00    +0.000 C 
ATOM     21  C   UNL     1       8.893   9.637  18.720  0.00  0.00    +0.000 C 
ENDBRANCH  19  21
ENDBRANCH  18  19
ENDBRANCH  12  18
ENDBRANCH  11  15
ENDBRANCH   7  11
ENDBRANCH   1   9
BRANCH   4  22
ATOM     22  C   UNL     1       1.381   9.176  20.886  0.00  0.00    +0.000 C 
BRANCH  22  23
ATOM     23  N   UNL     1       0.946  10.183  19.909  0.00  0.00    +0.000 NA
ATOM     24  H   UNL     1       0.313   9.866  19.176  0.00  0.00    +0.000 HD
BRANCH  23  25
ATOM     25  S   UNL     1       0.518  11.695  20.480  0.00  0.00    +0.000 S 
ATOM     26  O   UNL     1       0.480  11.576  21.929  0.00  0.00    +0.000 OA
ATOM     27  O   UNL     1       1.354  12.676  19.821  0.00  0.00    +0.000 OA
BRANCH  25  28
ATOM     28  C   UNL     1      -1.159  11.878  19.922  0.00  0.00    +0.000 A 
ATOM     29  C   UNL     1      -1.497  11.492  18.630  0.00  0.00    +0.000 A 
ATOM     30  C   UNL     1      -2.825  11.589  18.219  0.00  0.00    +0.000 A 
ATOM     31  C   UNL     1      -3.822  12.067  19.087  0.00  0.00    +0.000 A 
ATOM     32  C   UNL     1      -5.245  12.126  18.596  0.00  0.00    +0.000 C 
ATOM     33  C   UNL     1      -3.470  12.462  20.395  0.00  0.00    +0.000 A 
ATOM     34  C   UNL     1      -4.466  12.986  21.393  0.00  0.00    +0.000 C 
ATOM     35  C   UNL     1      -2.129  12.355  20.804  0.00  0.00    +0.000 A 
ENDBRANCH  25  28
ENDBRANCH  23  25
ENDBRANCH  22  23
ENDBRANCH   4  22
TORSDOF 10
ENDMDL
MODEL 9
REMARK VINA RESULT:      -7.7      2.916     10.017
REMARK  Name = 
REMARK  13 active torsions:
REMARK  status: ('A' for Active; 'I' for Inactive)
REMARK    1  A    between atoms: C_2  and  C_3
REMARK    2  A    between atoms: C_3  and  O_4
REMARK    3  A    between atoms: O_4  and  C_5
REMARK    4  A    between atoms: C_8  and  C_9
REMARK    5  A    between atoms: C_9  and  N_10
REMARK    6  A    between atoms: N_10  and  C_11
REMARK    7  A    between atoms: C_12  and  C_14
REMARK    8  A    between atoms: C_17  and  C_18
REMARK    9  A    between atoms: C_18  and  N_19
REMARK   10  A    between atoms: N_19  and  S_20
REMARK   11  A    between atoms: S_20  and  C_23
REMARK   12  A    between atoms: C_26  and  C_27
REMARK   13  A    between atoms: C_28  and  C_29
REMARK                            x       y       z     vdW  Elec       q    Type
REMARK                         _______ _______ _______ _____ _____    ______ ____
ROOT
ATOM      1  C   UNL     1       2.191   5.165  19.030  0.00  0.00    +0.000 A 
ATOM      2  C   UNL     1       1.803   5.308  20.366  0.00  0.00    +0.000 A 
ATOM      3  C   UNL     1       1.500   6.551  20.910  0.00  0.00    +0.000 A 
ATOM      4  C   UNL     1       1.746   7.718  20.184  0.00  0.00    +0.000 A 
ATOM      5  C   UNL     1       2.221   7.593  18.868  0.00  0.00    +0.000 A 
ATOM      6  C   UNL     1       2.429   6.330  18.292  0.00  0.00    +0.000 A 
ENDROOT
BRANCH   1   9
ATOM      7  N   UNL     1       3.694   3.218  18.439  0.00  0.00    +0.000 N 
ATOM      8  C   UNL     1       3.950   2.098  17.541  0.00  0.00    +0.000 C 
ATOM      9  C   UNL     1       2.429   3.831  18.382  0.00  0.00    +0.000 C 
ATOM     10  O   UNL     1       1.473   3.307  17.810  0.00  0.00    +0.000 OA
BRANCH   7  11
ATOM     11  C   UNL     1       4.798   3.761  19.220  0.00  0.00    +0.000 C 
BRANCH  11  15
ATOM     12  C   UNL     1       7.320   6.906  17.749  0.00  0.00    +0.000 A 
ATOM     13  C   UNL     1       7.561   6.316  18.988  0.00  0.00    +0.000 A 
ATOM     14  C   UNL     1       6.738   5.295  19.434  0.00  0.00    +0.000 A 
ATOM     15  C   UNL     1       5.639   4.871  18.667  0.00  0.00    +0.000 A 
ATOM     16  C   UNL     1       5.418   5.435  17.411  0.00  0.00    +0.000 A 
ATOM     17  C   UNL     1       6.250   6.463  16.965  0.00  0.00    +0.000 A 
BRANCH  12  18
ATOM     18  O   UNL     1       8.067   7.922  17.225  0.00  0.00    +0.000 OA
BRANCH  18  19
ATOM     19  C   UNL     1       7.624   9.230  17.586  0.00  0.00    +0.000 C 
BRANCH  19  21
ATOM     20  C   UNL     1       9.238   9.918  19.357  0.00  0.00    +0.000 C 
ATOM     21  C   UNL     1       8.811   9.981  18.089  0.00  0.00    +0.000 C 
ENDBRANCH  19  21
ENDBRANCH  18  19
ENDBRANCH  12  18
ENDBRANCH  11  15
ENDBRANCH   7  11
ENDBRANCH   1   9
BRANCH   4  22
ATOM     22  C   UNL     1       1.507   9.077  20.809  0.00  0.00    +0.000 C 
BRANCH  22  23
ATOM     23  N   UNL     1       0.166   9.593  20.503  0.00  0.00    +0.000 NA
ATOM     24  H   UNL     1      -0.413   9.861  21.296  0.00  0.00    +0.000 HD
BRANCH  23  25
ATOM     25  S   UNL     1       0.013  10.675  19.236  0.00  0.00    +0.000 S 
ATOM     26  O   UNL     1       0.998  11.716  19.483  0.00  0.00    +0.000 OA
ATOM     27  O   UNL     1       0.001   9.921  18.001  0.00  0.00    +0.000 OA
BRANCH  25  28
ATOM     28  C   UNL     1      -1.590  11.391  19.508  0.00  0.00    +0.000 A 
ATOM     29  C   UNL     1      -1.828  12.118  20.669  0.00  0.00    +0.000 A 
ATOM     30  C   UNL     1      -3.072  12.720  20.848  0.00  0.00    +0.000 A 
ATOM     31  C   UNL     1      -4.083  12.606  19.877  0.00  0.00    +0.000 A 
ATOM     32  C   UNL     1      -5.399  13.299  20.113  0.00  0.00    +0.000 C 
ATOM     33  C   UNL     1      -3.835  11.861  18.704  0.00  0.00    +0.000 A 
ATOM     34  C   UNL     1      -4.854  11.682  17.611  0.00  0.00    +0.000 C 
ATOM     35  C   UNL     1      -2.575  11.262  18.527  0.00  0.00    +0.000 A 
ENDBRANCH  25  28
ENDBRANCH  23  25
ENDBRANCH  22  23
ENDBRANCH   4  22
TORSDOF 10
ENDMDL
