MODEL 1
REMARK VINA RESULT:      -7.0      0.000      0.000
REMARK  Name = 
REMARK  4 active torsions:
REMARK  status: ('A' for Active; 'I' for Inactive)
REMARK    1  A    between atoms: C_2  and  O_3
REMARK    2  A    between atoms: C_2  and  C_4
REMARK    3  A    between atoms: C_7  and  N_8
REMARK    4  A    between atoms: N_8  and  C_9
REMARK                            x       y       z     vdW  Elec       q    Type
REMARK                         _______ _______ _______ _____ _____    ______ ____
ROOT
ATOM      1  C   UNL     1       6.692   4.553  14.772  0.00  0.00    +0.000 A 
ATOM      2  C   UNL     1       5.395   4.094  15.013  0.00  0.00    +0.000 A 
ATOM      3  C   UNL     1       4.950   3.916  16.325  0.00  0.00    +0.000 A 
ATOM      4  C   UNL     1       5.779   4.209  17.416  0.00  0.00    +0.000 A 
ATOM      5  C   UNL     1       7.068   4.697  17.162  0.00  0.00    +0.000 A 
ATOM      6  C   UNL     1       7.523   4.878  15.850  0.00  0.00    +0.000 A 
ENDROOT
BRANCH   1   8
ATOM      7  O   UNL     1       6.750   3.976  12.466  0.00  0.00    +0.000 OA
ATOM      8  C   UNL     1       7.131   4.705  13.364  0.00  0.00    +0.000 C 
BRANCH   8   9
ATOM      9  O   UNL     1       8.031   5.695  13.184  0.00  0.00    +0.000 OA
ATOM     10  H   UNL     1       8.963   5.420  13.262  0.00  0.00    +0.000 HD
ENDBRANCH   8   9
ENDBRANCH   1   8
BRANCH   4  11
ATOM     11  N   UNL     1       5.382   3.962  18.742  0.00  0.00    +0.000 N 
ATOM     12  H   UNL     1       6.027   3.404  19.289  0.00  0.00    +0.000 HD
BRANCH  11  13
ATOM     13  C   UNL     1       4.199   4.319  19.415  0.00  0.00    +0.000 A 
ATOM     14  C   UNL     1       3.717   5.632  19.309  0.00  0.00    +0.000 A 
ATOM     15  C   UNL     1       2.514   6.007  19.912  0.00  0.00    +0.000 A 
ATOM     16  C   UNL     1       1.772   5.069  20.627  0.00  0.00    +0.000 A 
ATOM     17  C   UNL     1       2.238   3.763  20.735  0.00  0.00    +0.000 A 
ATOM     18 CL   UNL     1       1.330   2.600  21.621  0.00  0.00    +0.000 Cl
ATOM     19  C   UNL     1       3.437   3.386  20.130  0.00  0.00    +0.000 A 
ENDBRANCH  11  13
ENDBRANCH   4  11
TORSDOF 4
ENDMDL
MODEL 2
REMARK VINA RESULT:      -7.0      0.319      1.211
REMARK  Name = 
REMARK  4 active torsions:
REMARK  status: ('A' for Active; 'I' for Inactive)
REMARK    1  A    between atoms: C_2  and  O_3
REMARK    2  A    between atoms: C_2  and  C_4
REMARK    3  A    between atoms: C_7  and  N_8
REMARK    4  A    between atoms: N_8  and  C_9
REMARK                            x       y       z     vdW  Elec       q    Type
REMARK                         _______ _______ _______ _____ _____    ______ ____
ROOT
ATOM      1  C   UNL     1       6.613   4.528  15.085  0.00  0.00    +0.000 A 
ATOM      2  C   UNL     1       7.530   4.794  16.104  0.00  0.00    +0.000 A 
ATOM      3  C   UNL     1       7.139   4.685  17.440  0.00  0.00    +0.000 A 
ATOM      4  C   UNL     1       5.838   4.295  17.785  0.00  0.00    +0.000 A 
ATOM      5  C   UNL     1       4.935   4.002  16.753  0.00  0.00    +0.000 A 
ATOM      6  C   UNL     1       5.318   4.109  15.410  0.00  0.00    +0.000 A 
ENDROOT
BRANCH   1   8
ATOM      7  O   UNL     1       6.650   3.982  12.770  0.00  0.00    +0.000 OA
ATOM      8  C   UNL     1       7.063   4.679  13.680  0.00  0.00    +0.000 C 
BRANCH   8   9
ATOM      9  O   UNL     1       8.011   5.626  13.516  0.00  0.00    +0.000 OA
ATOM     10  H   UNL     1       8.639   5.709  14.257  0.00  0.00    +0.000 HD
ENDBRANCH   8   9
ENDBRANCH   1   8
BRANCH   4  11
ATOM     11  N   UNL     1       5.398   4.256  19.119  0.00  0.00    +0.000 N 
ATOM     12  H   UNL     1       6.094   3.961  19.794  0.00  0.00    +0.000 HD
BRANCH  11  13
ATOM     13  C   UNL     1       4.124   4.505  19.661  0.00  0.00    +0.000 A 
ATOM     14  C   UNL     1       3.517   5.752  19.444  0.00  0.00    +0.000 A 
ATOM     15  C   UNL     1       2.227   6.013  19.913  0.00  0.00    +0.000 A 
ATOM     16  C   UNL     1       1.523   5.029  20.603  0.00  0.00    +0.000 A 
ATOM     17  C   UNL     1       2.113   3.787  20.819  0.00  0.00    +0.000 A 
ATOM     18 CL   UNL     1       1.253   2.567  21.675  0.00  0.00    +0.000 Cl
ATOM     19  C   UNL     1       3.399   3.523  20.348  0.00  0.00    +0.000 A 
ENDBRANCH  11  13
ENDBRANCH   4  11
TORSDOF 4
ENDMDL
MODEL 3
REMARK VINA RESULT:      -6.9      1.240      2.192
REMARK  Name = 
REMARK  4 active torsions:
REMARK  status: ('A' for Active; 'I' for Inactive)
REMARK    1  A    between atoms: C_2  and  O_3
REMARK    2  A    between atoms: C_2  and  C_4
REMARK    3  A    between atoms: C_7  and  N_8
REMARK    4  A    between atoms: N_8  and  C_9
REMARK                            x       y       z     vdW  Elec       q    Type
REMARK                         _______ _______ _______ _____ _____    ______ ____
ROOT
ATOM      1  C   UNL     1       6.582   4.482  15.233  0.00  0.00    +0.000 A 
ATOM      2  C   UNL     1       7.424   4.693  16.327  0.00  0.00    +0.000 A 
ATOM      3  C   UNL     1       6.948   4.490  17.624  0.00  0.00    +0.000 A 
ATOM      4  C   UNL     1       5.635   4.059  17.853  0.00  0.00    +0.000 A 
ATOM      5  C   UNL     1       4.808   3.823  16.747  0.00  0.00    +0.000 A 
ATOM      6  C   UNL     1       5.276   4.023  15.442  0.00  0.00    +0.000 A 
ENDROOT
BRANCH   1   8
ATOM      7  O   UNL     1       7.970   5.574  13.640  0.00  0.00    +0.000 OA
ATOM      8  C   UNL     1       7.121   4.732  13.875  0.00  0.00    +0.000 C 
BRANCH   8   9
ATOM      9  O   UNL     1       6.546   3.974  12.918  0.00  0.00    +0.000 OA
ATOM     10  H   UNL     1       7.032   3.158  12.695  0.00  0.00    +0.000 HD
ENDBRANCH   8   9
ENDBRANCH   1   8
BRANCH   4  11
ATOM     11  N   UNL     1       5.108   3.925  19.150  0.00  0.00    +0.000 N 
ATOM     12  H   UNL     1       5.768   3.618  19.854  0.00  0.00    +0.000 HD
BRANCH  11  13
ATOM     13  C   UNL     1       3.790   4.094  19.615  0.00  0.00    +0.000 A 
ATOM     14  C   UNL     1       2.996   2.962  19.853  0.00  0.00    +0.000 A 
ATOM     15  C   UNL     1       1.706   3.087  20.374  0.00  0.00    +0.000 A 
ATOM     16  C   UNL     1       1.192   4.348  20.667  0.00  0.00    +0.000 A 
ATOM     17  C   UNL     1       1.972   5.477  20.438  0.00  0.00    +0.000 A 
ATOM     18 CL   UNL     1       1.344   7.039  20.793  0.00  0.00    +0.000 Cl
ATOM     19  C   UNL     1       3.263   5.354  19.924  0.00  0.00    +0.000 A 
ENDBRANCH  11  13
ENDBRANCH   4  11
TORSDOF 4
ENDMDL
MODEL 4
REMARK VINA RESULT:      -6.9      1.345      1.439
REMARK  Name = 
REMARK  4 active torsions:
REMARK  status: ('A' for Active; 'I' for Inactive)
REMARK    1  A    between atoms: C_2  and  O_3
REMARK    2  A    between atoms: C_2  and  C_4
REMARK    3  A    between atoms: C_7  and  N_8
REMARK    4  A    between atoms: N_8  and  C_9
REMARK                            x       y       z     vdW  Elec       q    Type
REMARK                         _______ _______ _______ _____ _____    ______ ____
ROOT
ATOM      1  C   UNL     1       6.513   5.026  15.201  0.00  0.00    +0.000 A 
ATOM      2  C   UNL     1       5.388   5.842  15.338  0.00  0.00    +0.000 A 
ATOM      3  C   UNL     1       4.804   6.018  16.594  0.00  0.00    +0.000 A 
ATOM      4  C   UNL     1       5.336   5.400  17.734  0.00  0.00    +0.000 A 
ATOM      5  C   UNL     1       6.482   4.606  17.587  0.00  0.00    +0.000 A 
ATOM      6  C   UNL     1       7.075   4.424  16.332  0.00  0.00    +0.000 A 
ENDROOT
BRANCH   1   8
ATOM      7  O   UNL     1       6.676   4.021  13.051  0.00  0.00    +0.000 OA
ATOM      8  C   UNL     1       7.088   4.848  13.845  0.00  0.00    +0.000 C 
BRANCH   8   9
ATOM      9  O   UNL     1       8.140   5.655  13.596  0.00  0.00    +0.000 OA
ATOM     10  H   UNL     1       8.294   6.346  14.267  0.00  0.00    +0.000 HD
ENDBRANCH   8   9
ENDBRANCH   1   8
BRANCH   4  11
ATOM     11  N   UNL     1       4.719   5.496  18.993  0.00  0.00    +0.000 N 
ATOM     12  H   UNL     1       5.274   5.944  19.713  0.00  0.00    +0.000 HD
BRANCH  11  13
ATOM     13  C   UNL     1       3.471   5.015  19.430  0.00  0.00    +0.000 A 
ATOM     14  C   UNL     1       2.730   5.766  20.355  0.00  0.00    +0.000 A 
ATOM     15  C   UNL     1       1.461   5.351  20.764  0.00  0.00    +0.000 A 
ATOM     16  C   UNL     1       0.912   4.178  20.251  0.00  0.00    +0.000 A 
ATOM     17  C   UNL     1       1.636   3.427  19.330  0.00  0.00    +0.000 A 
ATOM     18 CL   UNL     1       0.968   1.975  18.695  0.00  0.00    +0.000 Cl
ATOM     19  C   UNL     1       2.902   3.843  18.916  0.00  0.00    +0.000 A 
ENDBRANCH  11  13
ENDBRANCH   4  11
TORSDOF 4
ENDMDL
MODEL 5
REMARK VINA RESULT:      -6.9      1.118      1.800
REMARK  Name = 
REMARK  4 active torsions:
REMARK  status: ('A' for Active; 'I' for Inactive)
REMARK    1  A    between atoms: C_2  and  O_3
REMARK    2  A    between atoms: C_2  and  C_4
REMARK    3  A    between atoms: C_7  and  N_8
REMARK    4  A    between atoms: N_8  and  C_9
REMARK                            x       y       z     vdW  Elec       q    Type
REMARK                         _______ _______ _______ _____ _____    ______ ____
ROOT
ATOM      1  C   UNL     1       6.713   4.589  15.010  0.00  0.00    +0.000 A 
ATOM      2  C   UNL     1       5.421   4.105  15.229  0.00  0.00    +0.000 A 
ATOM      3  C   UNL     1       4.976   3.868  16.531  0.00  0.00    +0.000 A 
ATOM      4  C   UNL     1       5.799   4.125  17.636  0.00  0.00    +0.000 A 
ATOM      5  C   UNL     1       7.083   4.638  17.405  0.00  0.00    +0.000 A 
ATOM      6  C   UNL     1       7.538   4.878  16.102  0.00  0.00    +0.000 A 
ENDROOT
BRANCH   1   8
ATOM      7  O   UNL     1       7.932   5.681  13.285  0.00  0.00    +0.000 OA
ATOM      8  C   UNL     1       7.153   4.804  13.611  0.00  0.00    +0.000 C 
BRANCH   8   9
ATOM      9  O   UNL     1       6.568   3.967  12.727  0.00  0.00    +0.000 OA
ATOM     10  H   UNL     1       5.594   4.002  12.713  0.00  0.00    +0.000 HD
ENDBRANCH   8   9
ENDBRANCH   1   8
BRANCH   4  11
ATOM     11  N   UNL     1       5.404   3.819  18.949  0.00  0.00    +0.000 N 
ATOM     12  H   UNL     1       6.130   3.433  19.540  0.00  0.00    +0.000 HD
BRANCH  11  13
ATOM     13  C   UNL     1       4.139   3.909  19.559  0.00  0.00    +0.000 A 
ATOM     14  C   UNL     1       3.514   2.740  20.020  0.00  0.00    +0.000 A 
ATOM     15  C   UNL     1       2.287   2.797  20.686  0.00  0.00    +0.000 A 
ATOM     16  C   UNL     1       1.668   4.026  20.903  0.00  0.00    +0.000 A 
ATOM     17  C   UNL     1       2.280   5.192  20.453  0.00  0.00    +0.000 A 
ATOM     18 CL   UNL     1       1.521   6.713  20.713  0.00  0.00    +0.000 Cl
ATOM     19  C   UNL     1       3.508   5.138  19.793  0.00  0.00    +0.000 A 
ENDBRANCH  11  13
ENDBRANCH   4  11
TORSDOF 4
ENDMDL
MODEL 6
REMARK VINA RESULT:      -6.7      1.495      1.644
REMARK  Name = 
REMARK  4 active torsions:
REMARK  status: ('A' for Active; 'I' for Inactive)
REMARK    1  A    between atoms: C_2  and  O_3
REMARK    2  A    between atoms: C_2  and  C_4
REMARK    3  A    between atoms: C_7  and  N_8
REMARK    4  A    between atoms: N_8  and  C_9
REMARK                            x       y       z     vdW  Elec       q    Type
REMARK                         _______ _______ _______ _____ _____    ______ ____
ROOT
ATOM      1  C   UNL     1       6.456   5.050  15.159  0.00  0.00    +0.000 A 
ATOM      2  C   UNL     1       5.481   6.043  15.271  0.00  0.00    +0.000 A 
ATOM      3  C   UNL     1       4.729   6.152  16.442  0.00  0.00    +0.000 A 
ATOM      4  C   UNL     1       4.944   5.289  17.525  0.00  0.00    +0.000 A 
ATOM      5  C   UNL     1       5.945   4.315  17.411  0.00  0.00    +0.000 A 
ATOM      6  C   UNL     1       6.705   4.198  16.240  0.00  0.00    +0.000 A 
ENDROOT
BRANCH   1   8
ATOM      7  O   UNL     1       6.901   4.207  12.979  0.00  0.00    +0.000 OA
ATOM      8  C   UNL     1       7.216   4.954  13.889  0.00  0.00    +0.000 C 
BRANCH   8   9
ATOM      9  O   UNL     1       8.315   5.736  13.858  0.00  0.00    +0.000 OA
ATOM     10  H   UNL     1       8.254   6.507  13.265  0.00  0.00    +0.000 HD
ENDBRANCH   8   9
ENDBRANCH   1   8
BRANCH   4  11
ATOM     11  N   UNL     1       4.146   5.328  18.681  0.00  0.00    +0.000 N 
ATOM     12  H   UNL     1       4.455   5.974  19.398  0.00  0.00    +0.000 HD
BRANCH  11  13
ATOM     13  C   UNL     1       3.016   4.565  19.028  0.00  0.00    +0.000 A 
ATOM     14  C   UNL     1       2.047   4.289  18.051  0.00  0.00    +0.000 A 
ATOM     15  C   UNL     1       0.943   3.484  18.341  0.00  0.00    +0.000 A 
ATOM     16  C   UNL     1       0.794   2.938  19.615  0.00  0.00    +0.000 A 
ATOM     17  C   UNL     1       1.751   3.201  20.590  0.00  0.00    +0.000 A 
ATOM     18 CL   UNL     1       1.573   2.535  22.166  0.00  0.00    +0.000 Cl
ATOM     19  C   UNL     1       2.857   4.001  20.300  0.00  0.00    +0.000 A 
ENDBRANCH  11  13
ENDBRANCH   4  11
TORSDOF 4
ENDMDL
MODEL 7
REMARK VINA RESULT:      -6.7      1.218      1.813
REMARK  Name = 
REMARK  4 active torsions:
REMARK  status: ('A' for Active; 'I' for Inactive)
REMARK    1  A    between atoms: C_2  and  O_3
REMARK    2  A    between atoms: C_2  and  C_4
REMARK    3  A    between atoms: C_7  and  N_8
REMARK    4  A    between atoms: N_8  and  C_9
REMARK                            x       y       z     vdW  Elec       q    Type
REMARK                         _______ _______ _______ _____ _____    ______ ____
ROOT
ATOM      1  C   UNL     1       6.625   5.016  15.209  0.00  0.00    +0.000 A 
ATOM      2  C   UNL     1       7.325   4.529  16.315  0.00  0.00    +0.000 A 
ATOM      3  C   UNL     1       6.730   4.544  17.579  0.00  0.00    +0.000 A 
ATOM      4  C   UNL     1       5.428   5.027  17.760  0.00  0.00    +0.000 A 
ATOM      5  C   UNL     1       4.725   5.486  16.638  0.00  0.00    +0.000 A 
ATOM      6  C   UNL     1       5.313   5.474  15.367  0.00  0.00    +0.000 A 
ENDROOT
BRANCH   1   8
ATOM      7  O   UNL     1       8.231   5.740  13.612  0.00  0.00    +0.000 OA
ATOM      8  C   UNL     1       7.303   5.002  13.891  0.00  0.00    +0.000 C 
BRANCH   8   9
ATOM      9  O   UNL     1       6.760   4.131  13.014  0.00  0.00    +0.000 OA
ATOM     10  H   UNL     1       6.799   3.197  13.288  0.00  0.00    +0.000 HD
ENDBRANCH   8   9
ENDBRANCH   1   8
BRANCH   4  11
ATOM     11  N   UNL     1       4.839   5.127  19.033  0.00  0.00    +0.000 N 
ATOM     12  H   UNL     1       5.454   5.451  19.769  0.00  0.00    +0.000 HD
BRANCH  11  13
ATOM     13  C   UNL     1       3.541   4.789  19.460  0.00  0.00    +0.000 A 
ATOM     14  C   UNL     1       2.866   5.642  20.347  0.00  0.00    +0.000 A 
ATOM     15  C   UNL     1       1.554   5.373  20.743  0.00  0.00    +0.000 A 
ATOM     16  C   UNL     1       0.896   4.246  20.255  0.00  0.00    +0.000 A 
ATOM     17  C   UNL     1       1.554   3.396  19.372  0.00  0.00    +0.000 A 
ATOM     18 CL   UNL     1       0.750   2.000  18.767  0.00  0.00    +0.000 Cl
ATOM     19  C   UNL     1       2.862   3.666  18.970  0.00  0.00    +0.000 A 
ENDBRANCH  11  13
ENDBRANCH   4  11
TORSDOF 4
ENDMDL
MODEL 8
REMARK VINA RESULT:      -6.7      2.862      3.564
REMARK  Name = 
REMARK  4 active torsions:
REMARK  status: ('A' for Active; 'I' for Inactive)
REMARK    1  A    between atoms: C_2  and  O_3
REMARK    2  A    between atoms: C_2  and  C_4
REMARK    3  A    between atoms: C_7  and  N_8
REMARK    4  A    between atoms: N_8  and  C_9
REMARK                            x       y       z     vdW  Elec       q    Type
REMARK                         _______ _______ _______ _____ _____    ______ ____
ROOT
ATOM      1  C   UNL     1       5.749   5.103  15.824  0.00  0.00    +0.000 A 
ATOM      2  C   UNL     1       4.767   4.203  16.244  0.00  0.00    +0.000 A 
ATOM      3  C   UNL     1       3.862   4.575  17.240  0.00  0.00    +0.000 A 
ATOM      4  C   UNL     1       3.906   5.849  17.821  0.00  0.00    +0.000 A 
ATOM      5  C   UNL     1       4.878   6.753  17.370  0.00  0.00    +0.000 A 
ATOM      6  C   UNL     1       5.791   6.389  16.372  0.00  0.00    +0.000 A 
ENDROOT
BRANCH   1   8
ATOM      7  O   UNL     1       7.690   5.302  14.463  0.00  0.00    +0.000 OA
ATOM      8  C   UNL     1       6.705   4.659  14.781  0.00  0.00    +0.000 C 
BRANCH   8   9
ATOM      9  O   UNL     1       6.352   3.501  14.183  0.00  0.00    +0.000 OA
ATOM     10  H   UNL     1       6.033   3.594  13.267  0.00  0.00    +0.000 HD
ENDBRANCH   8   9
ENDBRANCH   1   8
BRANCH   4  11
ATOM     11  N   UNL     1       3.058   6.217  18.880  0.00  0.00    +0.000 N 
ATOM     12  H   UNL     1       2.907   5.502  19.581  0.00  0.00    +0.000 HD
BRANCH  11  13
ATOM     13  C   UNL     1       2.336   7.407  19.090  0.00  0.00    +0.000 A 
ATOM     14  C   UNL     1       2.067   8.249  18.001  0.00  0.00    +0.000 A 
ATOM     15  C   UNL     1       1.300   9.406  18.160  0.00  0.00    +0.000 A 
ATOM     16  C   UNL     1       0.787   9.735  19.412  0.00  0.00    +0.000 A 
ATOM     17  C   UNL     1       1.044   8.905  20.499  0.00  0.00    +0.000 A 
ATOM     18 CL   UNL     1       0.418   9.306  22.051  0.00  0.00    +0.000 Cl
ATOM     19  C   UNL     1       1.805   7.746  20.341  0.00  0.00    +0.000 A 
ENDBRANCH  11  13
ENDBRANCH   4  11
TORSDOF 4
ENDMDL
MODEL 9
REMARK VINA RESULT:      -6.7      2.882      3.692
REMARK  Name = 
REMARK  4 active torsions:
REMARK  status: ('A' for Active; 'I' for Inactive)
REMARK    1  A    between atoms: C_2  and  O_3
REMARK    2  A    between atoms: C_2  and  C_4
REMARK    3  A    between atoms: C_7  and  N_8
REMARK    4  A    between atoms: N_8  and  C_9
REMARK                            x       y       z     vdW  Elec       q    Type
REMARK                         _______ _______ _______ _____ _____    ______ ____
ROOT
ATOM      1  C   UNL     1       5.714   4.980  15.765  0.00  0.00    +0.000 A 
ATOM      2  C   UNL     1       5.673   6.302  16.213  0.00  0.00    +0.000 A 
ATOM      3  C   UNL     1       4.756   6.676  17.198  0.00  0.00    +0.000 A 
ATOM      4  C   UNL     1       3.879   5.742  17.763  0.00  0.00    +0.000 A 
ATOM      5  C   UNL     1       3.950   4.412  17.326  0.00  0.00    +0.000 A 
ATOM      6  C   UNL     1       4.866   4.027  16.339  0.00  0.00    +0.000 A 
ENDROOT
BRANCH   1   8
ATOM      7  O   UNL     1       7.665   5.310  14.445  0.00  0.00    +0.000 OA
ATOM      8  C   UNL     1       6.687   4.631  14.701  0.00  0.00    +0.000 C 
BRANCH   8   9
ATOM      9  O   UNL     1       6.357   3.518  14.013  0.00  0.00    +0.000 OA
ATOM     10  H   UNL     1       6.857   3.384  13.187  0.00  0.00    +0.000 HD
ENDBRANCH   8   9
ENDBRANCH   1   8
BRANCH   4  11
ATOM     11  N   UNL     1       2.895   6.111  18.696  0.00  0.00    +0.000 N 
ATOM     12  H   UNL     1       2.529   5.353  19.261  0.00  0.00    +0.000 HD
BRANCH  11  13
ATOM     13  C   UNL     1       2.290   7.360  18.930  0.00  0.00    +0.000 A 
ATOM     14  C   UNL     1       2.053   8.222  17.848  0.00  0.00    +0.000 A 
ATOM     15  C   UNL     1       1.400   9.442  18.032  0.00  0.00    +0.000 A 
ATOM     16  C   UNL     1       0.969   9.817  19.303  0.00  0.00    +0.000 A 
ATOM     17  C   UNL     1       1.195   8.969  20.382  0.00  0.00    +0.000 A 
ATOM     18 CL   UNL     1       0.671   9.426  21.956  0.00  0.00    +0.000 Cl
ATOM     19  C   UNL     1       1.843   7.747  20.200  0.00  0.00    +0.000 A 
ENDBRANCH  11  13
ENDBRANCH   4  11
TORSDOF 4
ENDMDL
