MODEL 1
REMARK VINA RESULT:      -8.5      0.000      0.000
REMARK  Name = 
REMARK  7 active torsions:
REMARK  status: ('A' for Active; 'I' for Inactive)
REMARK    1  A    between atoms: C_1  and  N_2
REMARK    2  A    between atoms: N_17  and  C_18
REMARK    3  A    between atoms: C_18  and  C_19
REMARK    4  A    between atoms: C_19  and  C_20
REMARK    5  A    between atoms: C_20  and  S_21
REMARK    6  A    between atoms: S_21  and  C_22
REMARK    7  A    between atoms: N_26  and  C_27
REMARK                            x       y       z     vdW  Elec       q    Type
REMARK                         _______ _______ _______ _____ _____    ______ ____
ROOT
ATOM      1  C   UNL     1       5.938   3.293  14.626  0.00  0.00    +0.000 C 
ATOM      2  N   UNL     1       6.053   4.431  15.512  0.00  0.00    +0.000 N 
ATOM      3  C   UNL     1       7.079   5.346  15.320  0.00  0.00    +0.000 A 
ATOM      4  O   UNL     1       7.924   5.267  14.427  0.00  0.00    +0.000 OA
ATOM      5  N   UNL     1       7.141   6.405  16.184  0.00  0.00    +0.000 N 
ATOM      6  C   UNL     1       6.244   6.721  17.173  0.00  0.00    +0.000 A 
ATOM      7  O   UNL     1       6.373   7.798  17.747  0.00  0.00    +0.000 OA
ATOM      8  C   UNL     1       5.239   5.725  17.382  0.00  0.00    +0.000 A 
ATOM      9  C   UNL     1       5.161   4.628  16.557  0.00  0.00    +0.000 A 
ATOM     10  N   UNL     1       4.128   3.805  16.882  0.00  0.00    +0.000 NA
ATOM     11  C   UNL     1       3.582   4.335  17.958  0.00  0.00    +0.000 A 
ATOM     12  N   UNL     1       2.501   3.880  18.656  0.00  0.00    +0.000 N 
ATOM     13  C   UNL     1       1.564   2.975  17.983  0.00  0.00    +0.000 C 
ATOM     14  C   UNL     1       0.575   2.657  19.099  0.00  0.00    +0.000 C 
ATOM     15  C   UNL     1       1.482   2.467  20.303  0.00  0.00    +0.000 C 
ATOM     16  C   UNL     1       2.690   3.367  20.025  0.00  0.00    +0.000 C 
ATOM     17  N   UNL     1       4.214   5.543  18.289  0.00  0.00    +0.000 N 
ATOM     18  H   UNL     1       7.865   7.083  16.005  0.00  0.00    +0.000 HD
ENDROOT
BRANCH  17  19
ATOM     19  C   UNL     1       3.774   6.377  19.399  0.00  0.00    +0.000 C 
BRANCH  19  20
ATOM     20  C   UNL     1       2.542   7.255  19.226  0.00  0.00    +0.000 C 
BRANCH  20  21
ATOM     21  C   UNL     1       2.596   8.236  18.059  0.00  0.00    +0.000 C 
BRANCH  21  22
ATOM     22  S   UNL     1       1.112   9.272  18.037  0.00  0.00    +0.000 S 
BRANCH  22  23
ATOM     23  C   UNL     1       1.726  10.788  18.601  0.00  0.00    +0.000 A 
ATOM     24  N   UNL     1       2.446  11.627  17.891  0.00  0.00    +0.000 NA
ATOM     25  N   UNL     1       2.497  12.786  18.616  0.00  0.00    +0.000 NA
ATOM     26  N   UNL     1       1.803  12.679  19.741  0.00  0.00    +0.000 NA
ATOM     27  N   UNL     1       1.363  11.394  19.796  0.00  0.00    +0.000 N 
BRANCH  27  28
ATOM     28  C   UNL     1       0.604  10.918  20.895  0.00  0.00    +0.000 A 
ATOM     29  C   UNL     1       1.000   9.732  21.530  0.00  0.00    +0.000 A 
ATOM     30  C   UNL     1       0.354   9.319  22.697  0.00  0.00    +0.000 A 
ATOM     31  C   UNL     1      -0.706  10.062  23.215  0.00  0.00    +0.000 A 
ATOM     32  C   UNL     1      -1.151  11.199  22.546  0.00  0.00    +0.000 A 
ATOM     33  C   UNL     1      -0.504  11.623  21.384  0.00  0.00    +0.000 A 
ENDBRANCH  27  28
ENDBRANCH  22  23
ENDBRANCH  21  22
ENDBRANCH  20  21
ENDBRANCH  19  20
ENDBRANCH  17  19
TORSDOF 6
ENDMDL
MODEL 2
REMARK VINA RESULT:      -8.0      2.856      8.647
REMARK  Name = 
REMARK  7 active torsions:
REMARK  status: ('A' for Active; 'I' for Inactive)
REMARK    1  A    between atoms: C_1  and  N_2
REMARK    2  A    between atoms: N_17  and  C_18
REMARK    3  A    between atoms: C_18  and  C_19
REMARK    4  A    between atoms: C_19  and  C_20
REMARK    5  A    between atoms: C_20  and  S_21
REMARK    6  A    between atoms: S_21  and  C_22
REMARK    7  A    between atoms: N_26  and  C_27
REMARK                            x       y       z     vdW  Elec       q    Type
REMARK                         _______ _______ _______ _____ _____    ______ ____
ROOT
ATOM      1  C   UNL     1       0.291   9.114  21.701  0.00  0.00    +0.000 C 
ATOM      2  N   UNL     1       0.947   8.963  20.421  0.00  0.00    +0.000 N 
ATOM      3  C   UNL     1       1.008  10.044  19.553  0.00  0.00    +0.000 A 
ATOM      4  O   UNL     1       0.540  11.158  19.794  0.00  0.00    +0.000 OA
ATOM      5  N   UNL     1       1.641   9.849  18.356  0.00  0.00    +0.000 N 
ATOM      6  C   UNL     1       2.308   8.722  17.945  0.00  0.00    +0.000 A 
ATOM      7  O   UNL     1       2.954   8.781  16.903  0.00  0.00    +0.000 OA
ATOM      8  C   UNL     1       2.169   7.611  18.835  0.00  0.00    +0.000 A 
ATOM      9  C   UNL     1       1.512   7.756  20.034  0.00  0.00    +0.000 A 
ATOM     10  N   UNL     1       1.505   6.608  20.765  0.00  0.00    +0.000 NA
ATOM     11  C   UNL     1       2.095   5.706  20.007  0.00  0.00    +0.000 A 
ATOM     12  N   UNL     1       2.341   4.396  20.306  0.00  0.00    +0.000 N 
ATOM     13  C   UNL     1       2.357   3.991  21.715  0.00  0.00    +0.000 C 
ATOM     14  C   UNL     1       2.586   2.487  21.608  0.00  0.00    +0.000 C 
ATOM     15  C   UNL     1       1.686   2.095  20.449  0.00  0.00    +0.000 C 
ATOM     16  C   UNL     1       1.632   3.342  19.559  0.00  0.00    +0.000 C 
ATOM     17  N   UNL     1       2.554   6.285  18.815  0.00  0.00    +0.000 N 
ATOM     18  H   UNL     1       1.716  10.655  17.756  0.00  0.00    +0.000 HD
ENDROOT
BRANCH  17  19
ATOM     19  C   UNL     1       3.301   5.533  17.817  0.00  0.00    +0.000 C 
BRANCH  19  20
ATOM     20  C   UNL     1       4.677   6.028  17.390  0.00  0.00    +0.000 C 
BRANCH  20  21
ATOM     21  C   UNL     1       5.736   4.945  17.211  0.00  0.00    +0.000 C 
BRANCH  21  22
ATOM     22  S   UNL     1       5.480   4.064  15.651  0.00  0.00    +0.000 S 
BRANCH  22  23
ATOM     23  C   UNL     1       6.656   4.808  14.623  0.00  0.00    +0.000 A 
ATOM     24  N   UNL     1       7.605   5.626  15.023  0.00  0.00    +0.000 NA
ATOM     25  N   UNL     1       8.449   5.771  13.956  0.00  0.00    +0.000 NA
ATOM     26  N   UNL     1       8.049   5.041  12.925  0.00  0.00    +0.000 NA
ATOM     27  N   UNL     1       6.869   4.475  13.293  0.00  0.00    +0.000 N 
BRANCH  27  28
ATOM     28  C   UNL     1       6.138   3.645  12.406  0.00  0.00    +0.000 A 
ATOM     29  C   UNL     1       6.767   2.517  11.859  0.00  0.00    +0.000 A 
ATOM     30  C   UNL     1       6.028   1.610  11.096  0.00  0.00    +0.000 A 
ATOM     31  C   UNL     1       4.677   1.841  10.844  0.00  0.00    +0.000 A 
ATOM     32  C   UNL     1       4.067   2.997  11.321  0.00  0.00    +0.000 A 
ATOM     33  C   UNL     1       4.797   3.903  12.092  0.00  0.00    +0.000 A 
ENDBRANCH  27  28
ENDBRANCH  22  23
ENDBRANCH  21  22
ENDBRANCH  20  21
ENDBRANCH  19  20
ENDBRANCH  17  19
TORSDOF 6
ENDMDL
MODEL 3
REMARK VINA RESULT:      -7.9      4.109      9.586
REMARK  Name = 
REMARK  7 active torsions:
REMARK  status: ('A' for Active; 'I' for Inactive)
REMARK    1  A    between atoms: C_1  and  N_2
REMARK    2  A    between atoms: N_17  and  C_18
REMARK    3  A    between atoms: C_18  and  C_19
REMARK    4  A    between atoms: C_19  and  C_20
REMARK    5  A    between atoms: C_20  and  S_21
REMARK    6  A    between atoms: S_21  and  C_22
REMARK    7  A    between atoms: N_26  and  C_27
REMARK                            x       y       z     vdW  Elec       q    Type
REMARK                         _______ _______ _______ _____ _____    ______ ____
ROOT
ATOM      1  C   UNL     1      -4.201  14.585  21.781  0.00  0.00    +0.000 C 
ATOM      2  N   UNL     1      -3.025  13.755  21.924  0.00  0.00    +0.000 N 
ATOM      3  C   UNL     1      -2.222  13.896  23.048  0.00  0.00    +0.000 A 
ATOM      4  O   UNL     1      -2.439  14.691  23.963  0.00  0.00    +0.000 OA
ATOM      5  N   UNL     1      -1.123  13.086  23.136  0.00  0.00    +0.000 N 
ATOM      6  C   UNL     1      -0.766  12.077  22.277  0.00  0.00    +0.000 A 
ATOM      7  O   UNL     1       0.167  11.347  22.599  0.00  0.00    +0.000 OA
ATOM      8  C   UNL     1      -1.578  12.004  21.102  0.00  0.00    +0.000 A 
ATOM      9  C   UNL     1      -2.673  12.823  20.958  0.00  0.00    +0.000 A 
ATOM     10  N   UNL     1      -3.345  12.594  19.797  0.00  0.00    +0.000 NA
ATOM     11  C   UNL     1      -2.644  11.677  19.161  0.00  0.00    +0.000 A 
ATOM     12  N   UNL     1      -2.919  11.107  17.951  0.00  0.00    +0.000 N 
ATOM     13  C   UNL     1      -4.297  11.156  17.452  0.00  0.00    +0.000 C 
ATOM     14  C   UNL     1      -4.160  10.493  16.085  0.00  0.00    +0.000 C 
ATOM     15  C   UNL     1      -2.866  11.087  15.555  0.00  0.00    +0.000 C 
ATOM     16  C   UNL     1      -2.032  11.381  16.807  0.00  0.00    +0.000 C 
ATOM     17  N   UNL     1      -1.557  11.256  19.941  0.00  0.00    +0.000 N 
ATOM     18  H   UNL     1      -0.575  13.170  23.978  0.00  0.00    +0.000 HD
ENDROOT
BRANCH  17  19
ATOM     19  C   UNL     1      -0.648  10.203  19.512  0.00  0.00    +0.000 C 
BRANCH  19  20
ATOM     20  C   UNL     1       0.745  10.577  19.023  0.00  0.00    +0.000 C 
BRANCH  20  21
ATOM     21  C   UNL     1       1.475   9.493  18.236  0.00  0.00    +0.000 C 
BRANCH  21  22
ATOM     22  S   UNL     1       1.884   8.098  19.315  0.00  0.00    +0.000 S 
BRANCH  22  23
ATOM     23  C   UNL     1       2.856   7.115  18.275  0.00  0.00    +0.000 A 
ATOM     24  N   UNL     1       3.706   7.566  17.379  0.00  0.00    +0.000 NA
ATOM     25  N   UNL     1       4.434   6.482  16.972  0.00  0.00    +0.000 NA
ATOM     26  N   UNL     1       4.063   5.386  17.618  0.00  0.00    +0.000 NA
ATOM     27  N   UNL     1       3.009   5.742  18.400  0.00  0.00    +0.000 N 
BRANCH  27  28
ATOM     28  C   UNL     1       2.338   4.793  19.212  0.00  0.00    +0.000 A 
ATOM     29  C   UNL     1       1.506   3.844  18.601  0.00  0.00    +0.000 A 
ATOM     30  C   UNL     1       0.947   2.816  19.363  0.00  0.00    +0.000 A 
ATOM     31  C   UNL     1       1.181   2.751  20.736  0.00  0.00    +0.000 A 
ATOM     32  C   UNL     1       1.944   3.734  21.359  0.00  0.00    +0.000 A 
ATOM     33  C   UNL     1       2.514   4.759  20.602  0.00  0.00    +0.000 A 
ENDBRANCH  27  28
ENDBRANCH  22  23
ENDBRANCH  21  22
ENDBRANCH  20  21
ENDBRANCH  19  20
ENDBRANCH  17  19
TORSDOF 6
ENDMDL
MODEL 4
REMARK VINA RESULT:      -7.8      1.859      2.673
REMARK  Name = 
REMARK  7 active torsions:
REMARK  status: ('A' for Active; 'I' for Inactive)
REMARK    1  A    between atoms: C_1  and  N_2
REMARK    2  A    between atoms: N_17  and  C_18
REMARK    3  A    between atoms: C_18  and  C_19
REMARK    4  A    between atoms: C_19  and  C_20
REMARK    5  A    between atoms: C_20  and  S_21
REMARK    6  A    between atoms: S_21  and  C_22
REMARK    7  A    between atoms: N_26  and  C_27
REMARK                            x       y       z     vdW  Elec       q    Type
REMARK                         _______ _______ _______ _____ _____    ______ ____
ROOT
ATOM      1  C   UNL     1       5.906   3.217  14.858  0.00  0.00    +0.000 C 
ATOM      2  N   UNL     1       5.921   4.425  15.653  0.00  0.00    +0.000 N 
ATOM      3  C   UNL     1       6.877   5.399  15.399  0.00  0.00    +0.000 A 
ATOM      4  O   UNL     1       7.737   5.317  14.521  0.00  0.00    +0.000 OA
ATOM      5  N   UNL     1       6.846   6.523  16.178  0.00  0.00    +0.000 N 
ATOM      6  C   UNL     1       5.914   6.845  17.132  0.00  0.00    +0.000 A 
ATOM      7  O   UNL     1       5.953   7.970  17.622  0.00  0.00    +0.000 OA
ATOM      8  C   UNL     1       4.985   5.794  17.410  0.00  0.00    +0.000 A 
ATOM      9  C   UNL     1       5.002   4.633  16.673  0.00  0.00    +0.000 A 
ATOM     10  N   UNL     1       4.030   3.761  17.053  0.00  0.00    +0.000 NA
ATOM     11  C   UNL     1       3.431   4.329  18.080  0.00  0.00    +0.000 A 
ATOM     12  N   UNL     1       2.378   3.847  18.803  0.00  0.00    +0.000 N 
ATOM     13  C   UNL     1       1.522   2.823  18.195  0.00  0.00    +0.000 C 
ATOM     14  C   UNL     1       0.544   2.518  19.325  0.00  0.00    +0.000 C 
ATOM     15  C   UNL     1       1.446   2.492  20.547  0.00  0.00    +0.000 C 
ATOM     16  C   UNL     1       2.587   3.458  20.209  0.00  0.00    +0.000 C 
ATOM     17  N   UNL     1       3.965   5.604  18.321  0.00  0.00    +0.000 N 
ATOM     18  H   UNL     1       7.519   7.239  15.952  0.00  0.00    +0.000 HD
ENDROOT
BRANCH  17  19
ATOM     19  C   UNL     1       3.447   6.484  19.359  0.00  0.00    +0.000 C 
BRANCH  19  20
ATOM     20  C   UNL     1       2.385   7.514  18.998  0.00  0.00    +0.000 C 
BRANCH  20  21
ATOM     21  C   UNL     1       1.699   8.189  20.181  0.00  0.00    +0.000 C 
BRANCH  21  22
ATOM     22  S   UNL     1       0.676   9.571  19.613  0.00  0.00    +0.000 S 
BRANCH  22  23
ATOM     23  C   UNL     1       0.094  10.221  21.107  0.00  0.00    +0.000 A 
ATOM     24  N   UNL     1      -0.213   9.517  22.173  0.00  0.00    +0.000 NA
ATOM     25  N   UNL     1      -0.377  10.421  23.186  0.00  0.00    +0.000 NA
ATOM     26  N   UNL     1      -0.152  11.658  22.766  0.00  0.00    +0.000 NA
ATOM     27  N   UNL     1       0.076  11.571  21.429  0.00  0.00    +0.000 N 
BRANCH  27  28
ATOM     28  C   UNL     1       0.324  12.725  20.644  0.00  0.00    +0.000 A 
ATOM     29  C   UNL     1       1.551  13.391  20.785  0.00  0.00    +0.000 A 
ATOM     30  C   UNL     1       1.874  14.444  19.927  0.00  0.00    +0.000 A 
ATOM     31  C   UNL     1       0.966  14.861  18.954  0.00  0.00    +0.000 A 
ATOM     32  C   UNL     1      -0.282  14.253  18.860  0.00  0.00    +0.000 A 
ATOM     33  C   UNL     1      -0.608  13.194  19.708  0.00  0.00    +0.000 A 
ENDBRANCH  27  28
ENDBRANCH  22  23
ENDBRANCH  21  22
ENDBRANCH  20  21
ENDBRANCH  19  20
ENDBRANCH  17  19
TORSDOF 6
ENDMDL
MODEL 5
REMARK VINA RESULT:      -7.7      2.014      2.767
REMARK  Name = 
REMARK  7 active torsions:
REMARK  status: ('A' for Active; 'I' for Inactive)
REMARK    1  A    between atoms: C_1  and  N_2
REMARK    2  A    between atoms: N_17  and  C_18
REMARK    3  A    between atoms: C_18  and  C_19
REMARK    4  A    between atoms: C_19  and  C_20
REMARK    5  A    between atoms: C_20  and  S_21
REMARK    6  A    between atoms: S_21  and  C_22
REMARK    7  A    between atoms: N_26  and  C_27
REMARK                            x       y       z     vdW  Elec       q    Type
REMARK                         _______ _______ _______ _____ _____    ______ ____
ROOT
ATOM      1  C   UNL     1       5.965   3.309  14.871  0.00  0.00    +0.000 C 
ATOM      2  N   UNL     1       5.997   4.508  15.680  0.00  0.00    +0.000 N 
ATOM      3  C   UNL     1       6.976   5.463  15.447  0.00  0.00    +0.000 A 
ATOM      4  O   UNL     1       7.844   5.373  14.578  0.00  0.00    +0.000 OA
ATOM      5  N   UNL     1       6.960   6.579  16.239  0.00  0.00    +0.000 N 
ATOM      6  C   UNL     1       6.025   6.909  17.187  0.00  0.00    +0.000 A 
ATOM      7  O   UNL     1       6.083   8.027  17.691  0.00  0.00    +0.000 OA
ATOM      8  C   UNL     1       5.071   5.875  17.443  0.00  0.00    +0.000 A 
ATOM      9  C   UNL     1       5.072   4.723  16.692  0.00  0.00    +0.000 A 
ATOM     10  N   UNL     1       4.078   3.867  17.052  0.00  0.00    +0.000 NA
ATOM     11  C   UNL     1       3.480   4.436  18.080  0.00  0.00    +0.000 A 
ATOM     12  N   UNL     1       2.409   3.968  18.786  0.00  0.00    +0.000 N 
ATOM     13  C   UNL     1       1.538   2.970  18.157  0.00  0.00    +0.000 C 
ATOM     14  C   UNL     1       0.542   2.672  19.273  0.00  0.00    +0.000 C 
ATOM     15  C   UNL     1       1.431   2.613  20.504  0.00  0.00    +0.000 C 
ATOM     16  C   UNL     1       2.595   3.558  20.189  0.00  0.00    +0.000 C 
ATOM     17  N   UNL     1       4.037   5.696  18.341  0.00  0.00    +0.000 N 
ATOM     18  H   UNL     1       7.651   7.283  16.029  0.00  0.00    +0.000 HD
ENDROOT
BRANCH  17  19
ATOM     19  C   UNL     1       3.528   6.575  19.383  0.00  0.00    +0.000 C 
BRANCH  19  20
ATOM     20  C   UNL     1       2.246   7.359  19.133  0.00  0.00    +0.000 C 
BRANCH  20  21
ATOM     21  C   UNL     1       2.197   8.130  17.818  0.00  0.00    +0.000 C 
BRANCH  21  22
ATOM     22  S   UNL     1       1.861   9.883  18.126  0.00  0.00    +0.000 S 
BRANCH  22  23
ATOM     23  C   UNL     1       0.909   9.816  19.569  0.00  0.00    +0.000 A 
ATOM     24  N   UNL     1       1.383   9.670  20.786  0.00  0.00    +0.000 NA
ATOM     25  N   UNL     1       0.338   9.925  21.630  0.00  0.00    +0.000 NA
ATOM     26  N   UNL     1      -0.756  10.248  20.954  0.00  0.00    +0.000 NA
ATOM     27  N   UNL     1      -0.445  10.114  19.638  0.00  0.00    +0.000 N 
BRANCH  27  28
ATOM     28  C   UNL     1      -1.405  10.352  18.623  0.00  0.00    +0.000 A 
ATOM     29  C   UNL     1      -2.357  11.364  18.814  0.00  0.00    +0.000 A 
ATOM     30  C   UNL     1      -3.222  11.711  17.774  0.00  0.00    +0.000 A 
ATOM     31  C   UNL     1      -3.169  11.030  16.558  0.00  0.00    +0.000 A 
ATOM     32  C   UNL     1      -2.277   9.975  16.390  0.00  0.00    +0.000 A 
ATOM     33  C   UNL     1      -1.403   9.629  17.422  0.00  0.00    +0.000 A 
ENDBRANCH  27  28
ENDBRANCH  22  23
ENDBRANCH  21  22
ENDBRANCH  20  21
ENDBRANCH  19  20
ENDBRANCH  17  19
TORSDOF 6
ENDMDL
MODEL 6
REMARK VINA RESULT:      -7.7      2.417      4.438
REMARK  Name = 
REMARK  7 active torsions:
REMARK  status: ('A' for Active; 'I' for Inactive)
REMARK    1  A    between atoms: C_1  and  N_2
REMARK    2  A    between atoms: N_17  and  C_18
REMARK    3  A    between atoms: C_18  and  C_19
REMARK    4  A    between atoms: C_19  and  C_20
REMARK    5  A    between atoms: C_20  and  S_21
REMARK    6  A    between atoms: S_21  and  C_22
REMARK    7  A    between atoms: N_26  and  C_27
REMARK                            x       y       z     vdW  Elec       q    Type
REMARK                         _______ _______ _______ _____ _____    ______ ____
ROOT
ATOM      1  C   UNL     1       4.118   1.567  20.580  0.00  0.00    +0.000 C 
ATOM      2  N   UNL     1       3.458   2.853  20.522  0.00  0.00    +0.000 N 
ATOM      3  C   UNL     1       2.422   3.130  21.402  0.00  0.00    +0.000 A 
ATOM      4  O   UNL     1       2.009   2.348  22.259  0.00  0.00    +0.000 OA
ATOM      5  N   UNL     1       1.834   4.361  21.307  0.00  0.00    +0.000 N 
ATOM      6  C   UNL     1       2.211   5.400  20.493  0.00  0.00    +0.000 A 
ATOM      7  O   UNL     1       1.667   6.488  20.655  0.00  0.00    +0.000 OA
ATOM      8  C   UNL     1       3.238   5.057  19.558  0.00  0.00    +0.000 A 
ATOM      9  C   UNL     1       3.833   3.819  19.598  0.00  0.00    +0.000 A 
ATOM     10  N   UNL     1       4.808   3.680  18.659  0.00  0.00    +0.000 NA
ATOM     11  C   UNL     1       4.793   4.803  17.969  0.00  0.00    +0.000 A 
ATOM     12  N   UNL     1       5.598   5.150  16.922  0.00  0.00    +0.000 N 
ATOM     13  C   UNL     1       6.877   4.451  16.762  0.00  0.00    +0.000 C 
ATOM     14  C   UNL     1       7.415   5.068  15.475  0.00  0.00    +0.000 C 
ATOM     15  C   UNL     1       6.177   5.135  14.596  0.00  0.00    +0.000 C 
ATOM     16  C   UNL     1       5.011   5.294  15.578  0.00  0.00    +0.000 C 
ATOM     17  N   UNL     1       3.859   5.701  18.506  0.00  0.00    +0.000 N 
ATOM     18  H   UNL     1       1.113   4.563  21.982  0.00  0.00    +0.000 HD
ENDROOT
BRANCH  17  19
ATOM     19  C   UNL     1       3.676   7.046  17.980  0.00  0.00    +0.000 C 
BRANCH  19  20
ATOM     20  C   UNL     1       2.264   7.582  17.784  0.00  0.00    +0.000 C 
BRANCH  20  21
ATOM     21  C   UNL     1       2.131   9.101  17.806  0.00  0.00    +0.000 C 
BRANCH  21  22
ATOM     22  S   UNL     1       1.071   9.622  19.178  0.00  0.00    +0.000 S 
BRANCH  22  23
ATOM     23  C   UNL     1       1.296  11.337  19.172  0.00  0.00    +0.000 A 
ATOM     24  N   UNL     1       2.090  11.996  18.357  0.00  0.00    +0.000 NA
ATOM     25  N   UNL     1       1.778  13.318  18.517  0.00  0.00    +0.000 NA
ATOM     26  N   UNL     1       0.795  13.477  19.391  0.00  0.00    +0.000 NA
ATOM     27  N   UNL     1       0.518  12.240  19.882  0.00  0.00    +0.000 N 
BRANCH  27  28
ATOM     28  C   UNL     1      -0.474  12.044  20.876  0.00  0.00    +0.000 A 
ATOM     29  C   UNL     1      -0.205  11.172  21.941  0.00  0.00    +0.000 A 
ATOM     30  C   UNL     1      -1.107  11.070  23.002  0.00  0.00    +0.000 A 
ATOM     31  C   UNL     1      -2.293  11.803  22.989  0.00  0.00    +0.000 A 
ATOM     32  C   UNL     1      -2.599  12.612  21.899  0.00  0.00    +0.000 A 
ATOM     33  C   UNL     1      -1.698  12.726  20.839  0.00  0.00    +0.000 A 
ENDBRANCH  27  28
ENDBRANCH  22  23
ENDBRANCH  21  22
ENDBRANCH  20  21
ENDBRANCH  19  20
ENDBRANCH  17  19
TORSDOF 6
ENDMDL
MODEL 7
REMARK VINA RESULT:      -7.7      2.345      4.422
REMARK  Name = 
REMARK  7 active torsions:
REMARK  status: ('A' for Active; 'I' for Inactive)
REMARK    1  A    between atoms: C_1  and  N_2
REMARK    2  A    between atoms: N_17  and  C_18
REMARK    3  A    between atoms: C_18  and  C_19
REMARK    4  A    between atoms: C_19  and  C_20
REMARK    5  A    between atoms: C_20  and  S_21
REMARK    6  A    between atoms: S_21  and  C_22
REMARK    7  A    between atoms: N_26  and  C_27
REMARK                            x       y       z     vdW  Elec       q    Type
REMARK                         _______ _______ _______ _____ _____    ______ ____
ROOT
ATOM      1  C   UNL     1       4.533   1.508  20.944  0.00  0.00    +0.000 C 
ATOM      2  N   UNL     1       3.592   2.581  20.703  0.00  0.00    +0.000 N 
ATOM      3  C   UNL     1       2.445   2.670  21.479  0.00  0.00    +0.000 A 
ATOM      4  O   UNL     1       2.156   1.890  22.387  0.00  0.00    +0.000 OA
ATOM      5  N   UNL     1       1.590   3.704  21.212  0.00  0.00    +0.000 N 
ATOM      6  C   UNL     1       1.779   4.727  20.316  0.00  0.00    +0.000 A 
ATOM      7  O   UNL     1       0.978   5.656  20.323  0.00  0.00    +0.000 OA
ATOM      8  C   UNL     1       2.938   4.566  19.493  0.00  0.00    +0.000 A 
ATOM      9  C   UNL     1       3.807   3.522  19.706  0.00  0.00    +0.000 A 
ATOM     10  N   UNL     1       4.867   3.545  18.854  0.00  0.00    +0.000 NA
ATOM     11  C   UNL     1       4.645   4.563  18.046  0.00  0.00    +0.000 A 
ATOM     12  N   UNL     1       5.434   5.004  17.023  0.00  0.00    +0.000 N 
ATOM     13  C   UNL     1       6.853   4.632  17.024  0.00  0.00    +0.000 C 
ATOM     14  C   UNL     1       7.340   5.245  15.715  0.00  0.00    +0.000 C 
ATOM     15  C   UNL     1       6.207   4.926  14.756  0.00  0.00    +0.000 C 
ATOM     16  C   UNL     1       4.954   4.878  15.636  0.00  0.00    +0.000 C 
ATOM     17  N   UNL     1       3.479   5.247  18.421  0.00  0.00    +0.000 N 
ATOM     18  H   UNL     1       0.784   3.781  21.812  0.00  0.00    +0.000 HD
ENDROOT
BRANCH  17  19
ATOM     19  C   UNL     1       3.027   6.453  17.741  0.00  0.00    +0.000 C 
BRANCH  19  20
ATOM     20  C   UNL     1       2.588   7.653  18.570  0.00  0.00    +0.000 C 
BRANCH  20  21
ATOM     21  C   UNL     1       2.670   9.002  17.863  0.00  0.00    +0.000 C 
BRANCH  21  22
ATOM     22  S   UNL     1       1.101   9.891  18.017  0.00  0.00    +0.000 S 
BRANCH  22  23
ATOM     23  C   UNL     1       1.600  11.369  18.765  0.00  0.00    +0.000 A 
ATOM     24  N   UNL     1       2.203  12.364  18.152  0.00  0.00    +0.000 NA
ATOM     25  N   UNL     1       2.183  13.413  19.030  0.00  0.00    +0.000 NA
ATOM     26  N   UNL     1       1.559  13.087  20.153  0.00  0.00    +0.000 NA
ATOM     27  N   UNL     1       1.242  11.769  20.044  0.00  0.00    +0.000 N 
BRANCH  27  28
ATOM     28  C   UNL     1       0.587  11.077  21.094  0.00  0.00    +0.000 A 
ATOM     29  C   UNL     1       1.082   9.828  21.496  0.00  0.00    +0.000 A 
ATOM     30  C   UNL     1       0.541   9.193  22.616  0.00  0.00    +0.000 A 
ATOM     31  C   UNL     1      -0.515   9.778  23.314  0.00  0.00    +0.000 A 
ATOM     32  C   UNL     1      -1.059  10.980  22.873  0.00  0.00    +0.000 A 
ATOM     33  C   UNL     1      -0.517  11.625  21.761  0.00  0.00    +0.000 A 
ENDBRANCH  27  28
ENDBRANCH  22  23
ENDBRANCH  21  22
ENDBRANCH  20  21
ENDBRANCH  19  20
ENDBRANCH  17  19
TORSDOF 6
ENDMDL
MODEL 8
REMARK VINA RESULT:      -7.7      2.735      5.079
REMARK  Name = 
REMARK  7 active torsions:
REMARK  status: ('A' for Active; 'I' for Inactive)
REMARK    1  A    between atoms: C_1  and  N_2
REMARK    2  A    between atoms: N_17  and  C_18
REMARK    3  A    between atoms: C_18  and  C_19
REMARK    4  A    between atoms: C_19  and  C_20
REMARK    5  A    between atoms: C_20  and  S_21
REMARK    6  A    between atoms: S_21  and  C_22
REMARK    7  A    between atoms: N_26  and  C_27
REMARK                            x       y       z     vdW  Elec       q    Type
REMARK                         _______ _______ _______ _____ _____    ______ ____
ROOT
ATOM      1  C   UNL     1       4.024   1.406  20.525  0.00  0.00    +0.000 C 
ATOM      2  N   UNL     1       3.380   2.701  20.515  0.00  0.00    +0.000 N 
ATOM      3  C   UNL     1       2.329   2.948  21.388  0.00  0.00    +0.000 A 
ATOM      4  O   UNL     1       1.891   2.131  22.199  0.00  0.00    +0.000 OA
ATOM      5  N   UNL     1       1.756   4.189  21.339  0.00  0.00    +0.000 N 
ATOM      6  C   UNL     1       2.161   5.260  20.583  0.00  0.00    +0.000 A 
ATOM      7  O   UNL     1       1.625   6.346  20.785  0.00  0.00    +0.000 OA
ATOM      8  C   UNL     1       3.202   4.950  19.652  0.00  0.00    +0.000 A 
ATOM      9  C   UNL     1       3.783   3.704  19.645  0.00  0.00    +0.000 A 
ATOM     10  N   UNL     1       4.775   3.598  18.720  0.00  0.00    +0.000 NA
ATOM     11  C   UNL     1       4.785   4.753  18.084  0.00  0.00    +0.000 A 
ATOM     12  N   UNL     1       5.615   5.140  17.071  0.00  0.00    +0.000 N 
ATOM     13  C   UNL     1       6.890   4.434  16.902  0.00  0.00    +0.000 C 
ATOM     14  C   UNL     1       7.460   5.105  15.657  0.00  0.00    +0.000 C 
ATOM     15  C   UNL     1       6.241   5.228  14.759  0.00  0.00    +0.000 C 
ATOM     16  C   UNL     1       5.057   5.354  15.724  0.00  0.00    +0.000 C 
ATOM     17  N   UNL     1       3.851   5.636  18.645  0.00  0.00    +0.000 N 
ATOM     18  H   UNL     1       1.024   4.367  22.009  0.00  0.00    +0.000 HD
ENDROOT
BRANCH  17  19
ATOM     19  C   UNL     1       3.694   7.006  18.180  0.00  0.00    +0.000 C 
BRANCH  19  20
ATOM     20  C   UNL     1       2.291   7.565  17.975  0.00  0.00    +0.000 C 
BRANCH  20  21
ATOM     21  C   UNL     1       2.206   9.080  17.823  0.00  0.00    +0.000 C 
BRANCH  21  22
ATOM     22  S   UNL     1       0.512   9.649  18.111  0.00  0.00    +0.000 S 
BRANCH  22  23
ATOM     23  C   UNL     1       0.556  10.067  19.790  0.00  0.00    +0.000 A 
ATOM     24  N   UNL     1       0.521   9.211  20.786  0.00  0.00    +0.000 NA
ATOM     25  N   UNL     1       0.834   9.928  21.909  0.00  0.00    +0.000 NA
ATOM     26  N   UNL     1       1.084  11.195  21.614  0.00  0.00    +0.000 NA
ATOM     27  N   UNL     1       0.841  11.332  20.283  0.00  0.00    +0.000 N 
BRANCH  27  28
ATOM     28  C   UNL     1       0.980  12.583  19.631  0.00  0.00    +0.000 A 
ATOM     29  C   UNL     1      -0.153  13.395  19.472  0.00  0.00    +0.000 A 
ATOM     30  C   UNL     1      -0.017  14.687  18.960  0.00  0.00    +0.000 A 
ATOM     31  C   UNL     1       1.236  15.161  18.571  0.00  0.00    +0.000 A 
ATOM     32  C   UNL     1       2.350  14.332  18.656  0.00  0.00    +0.000 A 
ATOM     33  C   UNL     1       2.224  13.043  19.176  0.00  0.00    +0.000 A 
ENDBRANCH  27  28
ENDBRANCH  22  23
ENDBRANCH  21  22
ENDBRANCH  20  21
ENDBRANCH  19  20
ENDBRANCH  17  19
TORSDOF 6
ENDMDL
MODEL 9
REMARK VINA RESULT:      -7.6      2.925      5.067
REMARK  Name = 
REMARK  7 active torsions:
REMARK  status: ('A' for Active; 'I' for Inactive)
REMARK    1  A    between atoms: C_1  and  N_2
REMARK    2  A    between atoms: N_17  and  C_18
REMARK    3  A    between atoms: C_18  and  C_19
REMARK    4  A    between atoms: C_19  and  C_20
REMARK    5  A    between atoms: C_20  and  S_21
REMARK    6  A    between atoms: S_21  and  C_22
REMARK    7  A    between atoms: N_26  and  C_27
REMARK                            x       y       z     vdW  Elec       q    Type
REMARK                         _______ _______ _______ _____ _____    ______ ____
ROOT
ATOM      1  C   UNL     1       3.930   1.470  20.470  0.00  0.00    +0.000 C 
ATOM      2  N   UNL     1       3.313   2.779  20.468  0.00  0.00    +0.000 N 
ATOM      3  C   UNL     1       2.285   3.050  21.361  0.00  0.00    +0.000 A 
ATOM      4  O   UNL     1       1.846   2.245  22.183  0.00  0.00    +0.000 OA
ATOM      5  N   UNL     1       1.737   4.303  21.319  0.00  0.00    +0.000 N 
ATOM      6  C   UNL     1       2.149   5.363  20.551  0.00  0.00    +0.000 A 
ATOM      7  O   UNL     1       1.640   6.460  20.760  0.00  0.00    +0.000 OA
ATOM      8  C   UNL     1       3.165   5.028  19.601  0.00  0.00    +0.000 A 
ATOM      9  C   UNL     1       3.720   3.770  19.587  0.00  0.00    +0.000 A 
ATOM     10  N   UNL     1       4.690   3.641  18.642  0.00  0.00    +0.000 NA
ATOM     11  C   UNL     1       4.712   4.792  18.002  0.00  0.00    +0.000 A 
ATOM     12  N   UNL     1       5.529   5.158  16.971  0.00  0.00    +0.000 N 
ATOM     13  C   UNL     1       6.785   4.426  16.779  0.00  0.00    +0.000 C 
ATOM     14  C   UNL     1       7.344   5.080  15.520  0.00  0.00    +0.000 C 
ATOM     15  C   UNL     1       6.110   5.226  14.646  0.00  0.00    +0.000 C 
ATOM     16  C   UNL     1       4.949   5.380  15.634  0.00  0.00    +0.000 C 
ATOM     17  N   UNL     1       3.808   5.696  18.578  0.00  0.00    +0.000 N 
ATOM     18  H   UNL     1       1.023   4.499  22.003  0.00  0.00    +0.000 HD
ENDROOT
BRANCH  17  19
ATOM     19  C   UNL     1       3.669   7.068  18.111  0.00  0.00    +0.000 C 
BRANCH  19  20
ATOM     20  C   UNL     1       2.309   7.556  17.629  0.00  0.00    +0.000 C 
BRANCH  20  21
ATOM     21  C   UNL     1       2.083   9.061  17.721  0.00  0.00    +0.000 C 
BRANCH  21  22
ATOM     22  S   UNL     1       1.113   9.465  19.196  0.00  0.00    +0.000 S 
BRANCH  22  23
ATOM     23  C   UNL     1       0.036  10.678  18.594  0.00  0.00    +0.000 A 
ATOM     24  N   UNL     1      -1.196  10.465  18.190  0.00  0.00    +0.000 NA
ATOM     25  N   UNL     1      -1.763  11.702  18.045  0.00  0.00    +0.000 NA
ATOM     26  N   UNL     1      -0.911  12.661  18.376  0.00  0.00    +0.000 NA
ATOM     27  N   UNL     1       0.267  12.044  18.658  0.00  0.00    +0.000 N 
BRANCH  27  28
ATOM     28  C   UNL     1       1.421  12.784  19.023  0.00  0.00    +0.000 A 
ATOM     29  C   UNL     1       2.312  13.189  18.019  0.00  0.00    +0.000 A 
ATOM     30  C   UNL     1       3.378  14.035  18.335  0.00  0.00    +0.000 A 
ATOM     31  C   UNL     1       3.581  14.448  19.651  0.00  0.00    +0.000 A 
ATOM     32  C   UNL     1       2.744  13.986  20.662  0.00  0.00    +0.000 A 
ATOM     33  C   UNL     1       1.671  13.149  20.352  0.00  0.00    +0.000 A 
ENDBRANCH  27  28
ENDBRANCH  22  23
ENDBRANCH  21  22
ENDBRANCH  20  21
ENDBRANCH  19  20
ENDBRANCH  17  19
TORSDOF 6
ENDMDL
