MODEL 1
REMARK VINA RESULT:      -8.1      0.000      0.000
REMARK  Name = 
REMARK  7 active torsions:
REMARK  status: ('A' for Active; 'I' for Inactive)
REMARK    1  A    between atoms: C_1  and  C_2
REMARK    2  A    between atoms: C_5  and  S_6
REMARK    3  A    between atoms: S_6  and  C_7
REMARK    4  A    between atoms: C_7  and  C_8
REMARK    5  A    between atoms: N_10  and  C_11
REMARK    6  A    between atoms: C_15  and  S_16
REMARK    7  A    between atoms: S_16  and  N_19
REMARK                            x       y       z     vdW  Elec       q    Type
REMARK                         _______ _______ _______ _____ _____    ______ ____
ROOT
ATOM      1  C   UNL     1       6.294   6.329  16.821  0.00  0.00    +0.000 A 
ATOM      2  C   UNL     1       6.855   5.347  15.995  0.00  0.00    +0.000 A 
ATOM      3  C   UNL     1       6.249   4.104  15.848  0.00  0.00    +0.000 A 
ATOM      4  C   UNL     1       5.035   3.852  16.472  0.00  0.00    +0.000 A 
ATOM      5  C   UNL     1       4.442   4.845  17.257  0.00  0.00    +0.000 A 
ATOM      6  C   UNL     1       5.123   6.037  17.526  0.00  0.00    +0.000 A 
ENDROOT
BRANCH   1   9
ATOM      7  C   UNL     1       7.792   8.017  17.860  0.00  0.00    +0.000 C 
ATOM      8  O   UNL     1       8.338   7.257  18.677  0.00  0.00    +0.000 OA
ATOM      9  N   UNL     1       6.839   7.623  16.922  0.00  0.00    +0.000 N 
ATOM     10  H   UNL     1       6.644   8.279  16.175  0.00  0.00    +0.000 HD
BRANCH   7  11
ATOM     11  C   UNL     1       8.281   9.449  17.747  0.00  0.00    +0.000 C 
BRANCH  11  12
ATOM     12  S   UNL     1       9.227  10.045  19.173  0.00  0.00    +0.000 S 
BRANCH  12  17
ATOM     13  C   UNL     1       8.799  15.058  18.048  0.00  0.00    +0.000 C 
ATOM     14  C   UNL     1       9.551  13.781  18.124  0.00  0.00    +0.000 A 
ATOM     15  C   UNL     1      10.853  13.559  17.716  0.00  0.00    +0.000 A 
ATOM     16  S   UNL     1      11.286  11.925  17.992  0.00  0.00    +0.000 S 
ATOM     17  C   UNL     1       9.723  11.634  18.632  0.00  0.00    +0.000 A 
ATOM     18  N   UNL     1       8.916  12.669  18.659  0.00  0.00    +0.000 NA
ENDBRANCH  12  17
ENDBRANCH  11  12
ENDBRANCH   7  11
ENDBRANCH   1   9
BRANCH   5  19
ATOM     19  S   UNL     1       2.785   4.597  17.880  0.00  0.00    +0.000 S 
ATOM     20  O   UNL     1       2.184   5.912  17.973  0.00  0.00    +0.000 OA
ATOM     21  O   UNL     1       2.179   3.551  17.090  0.00  0.00    +0.000 OA
BRANCH  19  22
ATOM     22  N   UNL     1       2.983   4.000  19.457  0.00  0.00    +0.000 NA
ATOM     23  C   UNL     1       3.026   2.557  19.738  0.00  0.00    +0.000 C 
ATOM     24  C   UNL     1       1.751   2.299  20.522  0.00  0.00    +0.000 C 
ATOM     25  C   UNL     1       1.572   3.561  21.349  0.00  0.00    +0.000 C 
ATOM     26  C   UNL     1       2.309   4.667  20.585  0.00  0.00    +0.000 C 
ENDBRANCH  19  22
ENDBRANCH   5  19
TORSDOF 6
ENDMDL
MODEL 2
REMARK VINA RESULT:      -7.9      5.193      7.125
REMARK  Name = 
REMARK  7 active torsions:
REMARK  status: ('A' for Active; 'I' for Inactive)
REMARK    1  A    between atoms: C_1  and  C_2
REMARK    2  A    between atoms: C_5  and  S_6
REMARK    3  A    between atoms: S_6  and  C_7
REMARK    4  A    between atoms: C_7  and  C_8
REMARK    5  A    between atoms: N_10  and  C_11
REMARK    6  A    between atoms: C_15  and  S_16
REMARK    7  A    between atoms: S_16  and  N_19
REMARK                            x       y       z     vdW  Elec       q    Type
REMARK                         _______ _______ _______ _____ _____    ______ ____
ROOT
ATOM      1  C   UNL     1       3.650   6.791  17.782  0.00  0.00    +0.000 A 
ATOM      2  C   UNL     1       5.038   6.846  17.614  0.00  0.00    +0.000 A 
ATOM      3  C   UNL     1       5.811   5.690  17.651  0.00  0.00    +0.000 A 
ATOM      4  C   UNL     1       5.194   4.454  17.788  0.00  0.00    +0.000 A 
ATOM      5  C   UNL     1       3.803   4.386  17.904  0.00  0.00    +0.000 A 
ATOM      6  C   UNL     1       3.042   5.555  18.019  0.00  0.00    +0.000 A 
ENDROOT
BRANCH   1   9
ATOM      7  C   UNL     1       2.020   8.439  18.676  0.00  0.00    +0.000 C 
ATOM      8  O   UNL     1       1.965   7.991  19.833  0.00  0.00    +0.000 OA
ATOM      9  N   UNL     1       2.835   7.933  17.665  0.00  0.00    +0.000 N 
ATOM     10  H   UNL     1       2.955   8.520  16.848  0.00  0.00    +0.000 HD
BRANCH   7  11
ATOM     11  C   UNL     1       1.271   9.717  18.347  0.00  0.00    +0.000 C 
BRANCH  11  12
ATOM     12  S   UNL     1      -0.052  10.145  19.508  0.00  0.00    +0.000 S 
BRANCH  12  17
ATOM     13  C   UNL     1      -2.939   9.900  15.244  0.00  0.00    +0.000 C 
ATOM     14  C   UNL     1      -2.614  10.434  16.591  0.00  0.00    +0.000 A 
ATOM     15  C   UNL     1      -3.298  11.417  17.280  0.00  0.00    +0.000 A 
ATOM     16  S   UNL     1      -2.545  11.707  18.792  0.00  0.00    +0.000 S 
ATOM     17  C   UNL     1      -1.375  10.511  18.422  0.00  0.00    +0.000 A 
ATOM     18  N   UNL     1      -1.517   9.913  17.262  0.00  0.00    +0.000 NA
ENDBRANCH  12  17
ENDBRANCH  11  12
ENDBRANCH   7  11
ENDBRANCH   1   9
BRANCH   5  19
ATOM     19  S   UNL     1       2.997   2.791  17.863  0.00  0.00    +0.000 S 
ATOM     20  O   UNL     1       1.934   2.896  16.884  0.00  0.00    +0.000 OA
ATOM     21  O   UNL     1       4.030   1.789  17.740  0.00  0.00    +0.000 OA
BRANCH  19  22
ATOM     22  N   UNL     1       2.284   2.608  19.392  0.00  0.00    +0.000 NA
ATOM     23  C   UNL     1       0.887   2.991  19.645  0.00  0.00    +0.000 C 
ATOM     24  C   UNL     1       0.999   4.180  20.584  0.00  0.00    +0.000 C 
ATOM     25  C   UNL     1       2.206   3.850  21.444  0.00  0.00    +0.000 C 
ATOM     26  C   UNL     1       3.067   2.897  20.607  0.00  0.00    +0.000 C 
ENDBRANCH  19  22
ENDBRANCH   5  19
TORSDOF 6
ENDMDL
MODEL 3
REMARK VINA RESULT:      -7.7      1.213      1.727
REMARK  Name = 
REMARK  7 active torsions:
REMARK  status: ('A' for Active; 'I' for Inactive)
REMARK    1  A    between atoms: C_1  and  C_2
REMARK    2  A    between atoms: C_5  and  S_6
REMARK    3  A    between atoms: S_6  and  C_7
REMARK    4  A    between atoms: C_7  and  C_8
REMARK    5  A    between atoms: N_10  and  C_11
REMARK    6  A    between atoms: C_15  and  S_16
REMARK    7  A    between atoms: S_16  and  N_19
REMARK                            x       y       z     vdW  Elec       q    Type
REMARK                         _______ _______ _______ _____ _____    ______ ____
ROOT
ATOM      1  C   UNL     1       5.832   6.372  16.868  0.00  0.00    +0.000 A 
ATOM      2  C   UNL     1       6.232   5.412  15.930  0.00  0.00    +0.000 A 
ATOM      3  C   UNL     1       5.537   4.215  15.791  0.00  0.00    +0.000 A 
ATOM      4  C   UNL     1       4.390   3.993  16.540  0.00  0.00    +0.000 A 
ATOM      5  C   UNL     1       3.955   4.969  17.441  0.00  0.00    +0.000 A 
ATOM      6  C   UNL     1       4.734   6.103  17.691  0.00  0.00    +0.000 A 
ENDROOT
BRANCH   1   9
ATOM      7  C   UNL     1       7.552   7.905  17.797  0.00  0.00    +0.000 C 
ATOM      8  O   UNL     1       8.150   7.065  18.489  0.00  0.00    +0.000 OA
ATOM      9  N   UNL     1       6.464   7.626  16.972  0.00  0.00    +0.000 N 
ATOM     10  H   UNL     1       6.215   8.339  16.297  0.00  0.00    +0.000 HD
BRANCH   7  11
ATOM     11  C   UNL     1       8.110   9.313  17.706  0.00  0.00    +0.000 C 
BRANCH  11  12
ATOM     12  S   UNL     1       9.134   9.820  19.111  0.00  0.00    +0.000 S 
BRANCH  12  17
ATOM     13  C   UNL     1      12.010  13.258  16.565  0.00  0.00    +0.000 C 
ATOM     14  C   UNL     1      10.940  12.881  17.522  0.00  0.00    +0.000 A 
ATOM     15  C   UNL     1      10.161  13.739  18.276  0.00  0.00    +0.000 A 
ATOM     16  S   UNL     1       9.066  12.844  19.242  0.00  0.00    +0.000 S 
ATOM     17  C   UNL     1       9.701  11.392  18.591  0.00  0.00    +0.000 A 
ATOM     18  N   UNL     1      10.658  11.535  17.704  0.00  0.00    +0.000 NA
ENDBRANCH  12  17
ENDBRANCH  11  12
ENDBRANCH   7  11
ENDBRANCH   1   9
BRANCH   5  19
ATOM     19  S   UNL     1       2.368   4.776  18.243  0.00  0.00    +0.000 S 
ATOM     20  O   UNL     1       2.244   5.881  19.171  0.00  0.00    +0.000 OA
ATOM     21  O   UNL     1       1.385   4.555  17.208  0.00  0.00    +0.000 OA
BRANCH  19  22
ATOM     22  N   UNL     1       2.492   3.344  19.147  0.00  0.00    +0.000 NA
ATOM     23  C   UNL     1       3.440   3.215  20.264  0.00  0.00    +0.000 C 
ATOM     24  C   UNL     1       4.451   2.194  19.768  0.00  0.00    +0.000 C 
ATOM     25  C   UNL     1       3.619   1.236  18.934  0.00  0.00    +0.000 C 
ATOM     26  C   UNL     1       2.397   2.038  18.471  0.00  0.00    +0.000 C 
ENDBRANCH  19  22
ENDBRANCH   5  19
TORSDOF 6
ENDMDL
MODEL 4
REMARK VINA RESULT:      -7.6      1.325      1.603
REMARK  Name = 
REMARK  7 active torsions:
REMARK  status: ('A' for Active; 'I' for Inactive)
REMARK    1  A    between atoms: C_1  and  C_2
REMARK    2  A    between atoms: C_5  and  S_6
REMARK    3  A    between atoms: S_6  and  C_7
REMARK    4  A    between atoms: C_7  and  C_8
REMARK    5  A    between atoms: N_10  and  C_11
REMARK    6  A    between atoms: C_15  and  S_16
REMARK    7  A    between atoms: S_16  and  N_19
REMARK                            x       y       z     vdW  Elec       q    Type
REMARK                         _______ _______ _______ _____ _____    ______ ____
ROOT
ATOM      1  C   UNL     1       6.293   6.133  16.491  0.00  0.00    +0.000 A 
ATOM      2  C   UNL     1       6.334   5.587  15.202  0.00  0.00    +0.000 A 
ATOM      3  C   UNL     1       5.872   4.299  14.955  0.00  0.00    +0.000 A 
ATOM      4  C   UNL     1       5.298   3.565  15.983  0.00  0.00    +0.000 A 
ATOM      5  C   UNL     1       5.205   4.122  17.262  0.00  0.00    +0.000 A 
ATOM      6  C   UNL     1       5.805   5.354  17.544  0.00  0.00    +0.000 A 
ENDROOT
BRANCH   1   9
ATOM      7  C   UNL     1       7.600   7.850  17.721  0.00  0.00    +0.000 C 
ATOM      8  O   UNL     1       8.263   7.068  18.422  0.00  0.00    +0.000 OA
ATOM      9  N   UNL     1       6.674   7.462  16.754  0.00  0.00    +0.000 N 
ATOM     10  H   UNL     1       6.375   8.179  16.103  0.00  0.00    +0.000 HD
BRANCH   7  11
ATOM     11  C   UNL     1       7.902   9.335  17.792  0.00  0.00    +0.000 C 
BRANCH  11  12
ATOM     12  S   UNL     1       9.147   9.802  19.023  0.00  0.00    +0.000 S 
BRANCH  12  17
ATOM     13  C   UNL     1       8.499  14.840  18.140  0.00  0.00    +0.000 C 
ATOM     14  C   UNL     1       9.291  13.584  18.110  0.00  0.00    +0.000 A 
ATOM     15  C   UNL     1      10.567  13.420  17.605  0.00  0.00    +0.000 A 
ATOM     16  S   UNL     1      11.064  11.790  17.783  0.00  0.00    +0.000 S 
ATOM     17  C   UNL     1       9.559  11.426  18.515  0.00  0.00    +0.000 A 
ATOM     18  N   UNL     1       8.727  12.433  18.640  0.00  0.00    +0.000 NA
ENDBRANCH  12  17
ENDBRANCH  11  12
ENDBRANCH   7  11
ENDBRANCH   1   9
BRANCH   5  19
ATOM     19  S   UNL     1       4.275   3.265  18.526  0.00  0.00    +0.000 S 
ATOM     20  O   UNL     1       3.777   2.051  17.914  0.00  0.00    +0.000 OA
ATOM     21  O   UNL     1       5.099   3.221  19.712  0.00  0.00    +0.000 OA
BRANCH  19  22
ATOM     22  N   UNL     1       2.946   4.266  18.862  0.00  0.00    +0.000 NA
ATOM     23  C   UNL     1       3.005   5.310  19.895  0.00  0.00    +0.000 C 
ATOM     24  C   UNL     1       2.049   4.818  20.968  0.00  0.00    +0.000 C 
ATOM     25  C   UNL     1       0.946   4.130  20.183  0.00  0.00    +0.000 C 
ATOM     26  C   UNL     1       1.583   3.703  18.855  0.00  0.00    +0.000 C 
ENDBRANCH  19  22
ENDBRANCH   5  19
TORSDOF 6
ENDMDL
MODEL 5
REMARK VINA RESULT:      -7.5      1.159      1.519
REMARK  Name = 
REMARK  7 active torsions:
REMARK  status: ('A' for Active; 'I' for Inactive)
REMARK    1  A    between atoms: C_1  and  C_2
REMARK    2  A    between atoms: C_5  and  S_6
REMARK    3  A    between atoms: S_6  and  C_7
REMARK    4  A    between atoms: C_7  and  C_8
REMARK    5  A    between atoms: N_10  and  C_11
REMARK    6  A    between atoms: C_15  and  S_16
REMARK    7  A    between atoms: S_16  and  N_19
REMARK                            x       y       z     vdW  Elec       q    Type
REMARK                         _______ _______ _______ _____ _____    ______ ____
ROOT
ATOM      1  C   UNL     1       6.392   5.991  16.505  0.00  0.00    +0.000 A 
ATOM      2  C   UNL     1       6.906   5.291  15.408  0.00  0.00    +0.000 A 
ATOM      3  C   UNL     1       6.462   4.008  15.106  0.00  0.00    +0.000 A 
ATOM      4  C   UNL     1       5.445   3.436  15.858  0.00  0.00    +0.000 A 
ATOM      5  C   UNL     1       4.890   4.150  16.924  0.00  0.00    +0.000 A 
ATOM      6  C   UNL     1       5.439   5.374  17.321  0.00  0.00    +0.000 A 
ENDROOT
BRANCH   1   9
ATOM      7  C   UNL     1       7.644   7.710  17.790  0.00  0.00    +0.000 C 
ATOM      8  O   UNL     1       8.278   6.928  18.517  0.00  0.00    +0.000 OA
ATOM      9  N   UNL     1       6.760   7.321  16.785  0.00  0.00    +0.000 N 
ATOM     10  H   UNL     1       6.488   8.038  16.122  0.00  0.00    +0.000 HD
BRANCH   7  11
ATOM     11  C   UNL     1       7.942   9.196  17.873  0.00  0.00    +0.000 C 
BRANCH  11  12
ATOM     12  S   UNL     1       9.130   9.664  19.158  0.00  0.00    +0.000 S 
BRANCH  12  17
ATOM     13  C   UNL     1      11.589  13.304  16.460  0.00  0.00    +0.000 C 
ATOM     14  C   UNL     1      10.650  12.851  17.517  0.00  0.00    +0.000 A 
ATOM     15  C   UNL     1       9.941  13.648  18.395  0.00  0.00    +0.000 A 
ATOM     16  S   UNL     1       8.993  12.675  19.439  0.00  0.00    +0.000 S 
ATOM     17  C   UNL     1       9.588  11.275  18.650  0.00  0.00    +0.000 A 
ATOM     18  N   UNL     1      10.429  11.489  17.666  0.00  0.00    +0.000 NA
ENDBRANCH  12  17
ENDBRANCH  11  12
ENDBRANCH   7  11
ENDBRANCH   1   9
BRANCH   5  19
ATOM     19  S   UNL     1       3.443   3.504  17.752  0.00  0.00    +0.000 S 
ATOM     20  O   UNL     1       2.299   3.960  16.988  0.00  0.00    +0.000 OA
ATOM     21  O   UNL     1       3.672   2.098  17.988  0.00  0.00    +0.000 OA
BRANCH  19  22
ATOM     22  N   UNL     1       3.406   4.278  19.262  0.00  0.00    +0.000 NA
ATOM     23  C   UNL     1       3.139   3.538  20.504  0.00  0.00    +0.000 C 
ATOM     24  C   UNL     1       1.787   4.061  20.958  0.00  0.00    +0.000 C 
ATOM     25  C   UNL     1       1.808   5.523  20.549  0.00  0.00    +0.000 C 
ATOM     26  C   UNL     1       2.803   5.617  19.387  0.00  0.00    +0.000 C 
ENDBRANCH  19  22
ENDBRANCH   5  19
TORSDOF 6
ENDMDL
MODEL 6
REMARK VINA RESULT:      -7.5      0.838      1.034
REMARK  Name = 
REMARK  7 active torsions:
REMARK  status: ('A' for Active; 'I' for Inactive)
REMARK    1  A    between atoms: C_1  and  C_2
REMARK    2  A    between atoms: C_5  and  S_6
REMARK    3  A    between atoms: S_6  and  C_7
REMARK    4  A    between atoms: C_7  and  C_8
REMARK    5  A    between atoms: N_10  and  C_11
REMARK    6  A    between atoms: C_15  and  S_16
REMARK    7  A    between atoms: S_16  and  N_19
REMARK                            x       y       z     vdW  Elec       q    Type
REMARK                         _______ _______ _______ _____ _____    ______ ____
ROOT
ATOM      1  C   UNL     1       6.293   6.421  16.819  0.00  0.00    +0.000 A 
ATOM      2  C   UNL     1       6.865   5.501  15.932  0.00  0.00    +0.000 A 
ATOM      3  C   UNL     1       6.286   4.254  15.722  0.00  0.00    +0.000 A 
ATOM      4  C   UNL     1       5.087   3.938  16.346  0.00  0.00    +0.000 A 
ATOM      5  C   UNL     1       4.483   4.871  17.193  0.00  0.00    +0.000 A 
ATOM      6  C   UNL     1       5.139   6.062  17.521  0.00  0.00    +0.000 A 
ENDROOT
BRANCH   1   9
ATOM      7  C   UNL     1       7.779   8.079  17.920  0.00  0.00    +0.000 C 
ATOM      8  O   UNL     1       8.367   7.285  18.672  0.00  0.00    +0.000 OA
ATOM      9  N   UNL     1       6.809   7.720  16.986  0.00  0.00    +0.000 N 
ATOM     10  H   UNL     1       6.576   8.416  16.288  0.00  0.00    +0.000 HD
BRANCH   7  11
ATOM     11  C   UNL     1       8.230   9.528  17.884  0.00  0.00    +0.000 C 
BRANCH  11  12
ATOM     12  S   UNL     1       9.469   9.971  19.129  0.00  0.00    +0.000 S 
BRANCH  12  17
ATOM     13  C   UNL     1       8.362  14.850  17.886  0.00  0.00    +0.000 C 
ATOM     14  C   UNL     1       8.682  13.774  18.858  0.00  0.00    +0.000 A 
ATOM     15  C   UNL     1       8.836  13.910  20.224  0.00  0.00    +0.000 A 
ATOM     16  S   UNL     1       9.208  12.393  20.927  0.00  0.00    +0.000 S 
ATOM     17  C   UNL     1       9.135  11.672  19.375  0.00  0.00    +0.000 A 
ATOM     18  N   UNL     1       8.845  12.481  18.384  0.00  0.00    +0.000 NA
ENDBRANCH  12  17
ENDBRANCH  11  12
ENDBRANCH   7  11
ENDBRANCH   1   9
BRANCH   5  19
ATOM     19  S   UNL     1       2.840   4.548  17.822  0.00  0.00    +0.000 S 
ATOM     20  O   UNL     1       2.200   5.839  17.970  0.00  0.00    +0.000 OA
ATOM     21  O   UNL     1       2.258   3.515  16.998  0.00  0.00    +0.000 OA
BRANCH  19  22
ATOM     22  N   UNL     1       3.072   3.898  19.373  0.00  0.00    +0.000 NA
ATOM     23  C   UNL     1       2.890   2.465  19.646  0.00  0.00    +0.000 C 
ATOM     24  C   UNL     1       1.665   2.417  20.543  0.00  0.00    +0.000 C 
ATOM     25  C   UNL     1       1.783   3.676  21.385  0.00  0.00    +0.000 C 
ATOM     26  C   UNL     1       2.629   4.652  20.559  0.00  0.00    +0.000 C 
ENDBRANCH  19  22
ENDBRANCH   5  19
TORSDOF 6
ENDMDL
MODEL 7
REMARK VINA RESULT:      -7.5      5.023      8.353
REMARK  Name = 
REMARK  7 active torsions:
REMARK  status: ('A' for Active; 'I' for Inactive)
REMARK    1  A    between atoms: C_1  and  C_2
REMARK    2  A    between atoms: C_5  and  S_6
REMARK    3  A    between atoms: S_6  and  C_7
REMARK    4  A    between atoms: C_7  and  C_8
REMARK    5  A    between atoms: N_10  and  C_11
REMARK    6  A    between atoms: C_15  and  S_16
REMARK    7  A    between atoms: S_16  and  N_19
REMARK                            x       y       z     vdW  Elec       q    Type
REMARK                         _______ _______ _______ _____ _____    ______ ____
ROOT
ATOM      1  C   UNL     1       2.344   7.048  19.586  0.00  0.00    +0.000 A 
ATOM      2  C   UNL     1       2.745   7.295  18.269  0.00  0.00    +0.000 A 
ATOM      3  C   UNL     1       2.380   8.468  17.616  0.00  0.00    +0.000 A 
ATOM      4  C   UNL     1       1.664   9.441  18.300  0.00  0.00    +0.000 A 
ATOM      5  C   UNL     1       1.304   9.225  19.633  0.00  0.00    +0.000 A 
ATOM      6  C   UNL     1       1.539   7.987  20.240  0.00  0.00    +0.000 A 
ENDROOT
BRANCH   1   9
ATOM      7  C   UNL     1       2.131   4.672  20.279  0.00  0.00    +0.000 C 
ATOM      8  O   UNL     1       1.150   4.392  19.572  0.00  0.00    +0.000 OA
ATOM      9  N   UNL     1       2.769   5.911  20.299  0.00  0.00    +0.000 N 
ATOM     10  H   UNL     1       3.681   5.941  20.739  0.00  0.00    +0.000 HD
BRANCH   7  11
ATOM     11  C   UNL     1       2.800   3.569  21.078  0.00  0.00    +0.000 C 
BRANCH  11  12
ATOM     12  S   UNL     1       3.752   2.384  20.093  0.00  0.00    +0.000 S 
BRANCH  12  17
ATOM     13  C   UNL     1       7.164   5.928  18.551  0.00  0.00    +0.000 C 
ATOM     14  C   UNL     1       6.049   4.977  18.315  0.00  0.00    +0.000 A 
ATOM     15  C   UNL     1       5.387   4.754  17.122  0.00  0.00    +0.000 A 
ATOM     16  S   UNL     1       4.166   3.572  17.340  0.00  0.00    +0.000 S 
ATOM     17  C   UNL     1       4.605   3.442  18.990  0.00  0.00    +0.000 A 
ATOM     18  N   UNL     1       5.597   4.208  19.378  0.00  0.00    +0.000 NA
ENDBRANCH  12  17
ENDBRANCH  11  12
ENDBRANCH   7  11
ENDBRANCH   1   9
BRANCH   5  19
ATOM     19  S   UNL     1       0.575  10.561  20.572  0.00  0.00    +0.000 S 
ATOM     20  O   UNL     1      -0.858  10.455  20.386  0.00  0.00    +0.000 OA
ATOM     21  O   UNL     1       1.163  10.532  21.891  0.00  0.00    +0.000 OA
BRANCH  19  22
ATOM     22  N   UNL     1       1.098  11.984  19.808  0.00  0.00    +0.000 NA
ATOM     23  C   UNL     1       1.941  12.969  20.503  0.00  0.00    +0.000 C 
ATOM     24  C   UNL     1       1.038  14.181  20.653  0.00  0.00    +0.000 C 
ATOM     25  C   UNL     1       0.202  14.170  19.385  0.00  0.00    +0.000 C 
ATOM     26  C   UNL     1       0.186  12.713  18.909  0.00  0.00    +0.000 C 
ENDBRANCH  19  22
ENDBRANCH   5  19
TORSDOF 6
ENDMDL
MODEL 8
REMARK VINA RESULT:      -7.4      5.298      8.220
REMARK  Name = 
REMARK  7 active torsions:
REMARK  status: ('A' for Active; 'I' for Inactive)
REMARK    1  A    between atoms: C_1  and  C_2
REMARK    2  A    between atoms: C_5  and  S_6
REMARK    3  A    between atoms: S_6  and  C_7
REMARK    4  A    between atoms: C_7  and  C_8
REMARK    5  A    between atoms: N_10  and  C_11
REMARK    6  A    between atoms: C_15  and  S_16
REMARK    7  A    between atoms: S_16  and  N_19
REMARK                            x       y       z     vdW  Elec       q    Type
REMARK                         _______ _______ _______ _____ _____    ______ ____
ROOT
ATOM      1  C   UNL     1       2.256   7.289  19.619  0.00  0.00    +0.000 A 
ATOM      2  C   UNL     1       2.645   7.428  18.281  0.00  0.00    +0.000 A 
ATOM      3  C   UNL     1       2.349   8.583  17.566  0.00  0.00    +0.000 A 
ATOM      4  C   UNL     1       1.719   9.644  18.202  0.00  0.00    +0.000 A 
ATOM      5  C   UNL     1       1.374   9.534  19.551  0.00  0.00    +0.000 A 
ATOM      6  C   UNL     1       1.535   8.320  20.228  0.00  0.00    +0.000 A 
ENDROOT
BRANCH   1   9
ATOM      7  C   UNL     1       2.002   4.919  20.319  0.00  0.00    +0.000 C 
ATOM      8  O   UNL     1       1.109   4.614  19.511  0.00  0.00    +0.000 OA
ATOM      9  N   UNL     1       2.616   6.168  20.391  0.00  0.00    +0.000 N 
ATOM     10  H   UNL     1       3.473   6.219  20.929  0.00  0.00    +0.000 HD
BRANCH   7  11
ATOM     11  C   UNL     1       2.593   3.838  21.204  0.00  0.00    +0.000 C 
BRANCH  11  12
ATOM     12  S   UNL     1       3.435   2.502  20.316  0.00  0.00    +0.000 S 
BRANCH  12  17
ATOM     13  C   UNL     1       7.191   5.549  18.531  0.00  0.00    +0.000 C 
ATOM     14  C   UNL     1       5.973   4.717  18.364  0.00  0.00    +0.000 A 
ATOM     15  C   UNL     1       5.269   4.503  17.194  0.00  0.00    +0.000 A 
ATOM     16  S   UNL     1       3.928   3.479  17.493  0.00  0.00    +0.000 S 
ATOM     17  C   UNL     1       4.380   3.394  19.144  0.00  0.00    +0.000 A 
ATOM     18  N   UNL     1       5.458   4.065  19.475  0.00  0.00    +0.000 NA
ENDBRANCH  12  17
ENDBRANCH  11  12
ENDBRANCH   7  11
ENDBRANCH   1   9
BRANCH   5  19
ATOM     19  S   UNL     1       0.762  10.972  20.420  0.00  0.00    +0.000 S 
ATOM     20  O   UNL     1       0.635  10.584  21.810  0.00  0.00    +0.000 OA
ATOM     21  O   UNL     1       1.583  12.094  20.029  0.00  0.00    +0.000 OA
BRANCH  19  22
ATOM     22  N   UNL     1      -0.798  11.238  19.806  0.00  0.00    +0.000 NA
ATOM     23  C   UNL     1      -1.649  10.130  19.351  0.00  0.00    +0.000 C 
ATOM     24  C   UNL     1      -1.752  10.342  17.850  0.00  0.00    +0.000 C 
ATOM     25  C   UNL     1      -1.764  11.853  17.697  0.00  0.00    +0.000 C 
ATOM     26  C   UNL     1      -1.058  12.403  18.941  0.00  0.00    +0.000 C 
ENDBRANCH  19  22
ENDBRANCH   5  19
TORSDOF 6
ENDMDL
MODEL 9
REMARK VINA RESULT:      -7.4      4.484      5.108
REMARK  Name = 
REMARK  7 active torsions:
REMARK  status: ('A' for Active; 'I' for Inactive)
REMARK    1  A    between atoms: C_1  and  C_2
REMARK    2  A    between atoms: C_5  and  S_6
REMARK    3  A    between atoms: S_6  and  C_7
REMARK    4  A    between atoms: C_7  and  C_8
REMARK    5  A    between atoms: N_10  and  C_11
REMARK    6  A    between atoms: C_15  and  S_16
REMARK    7  A    between atoms: S_16  and  N_19
REMARK                            x       y       z     vdW  Elec       q    Type
REMARK                         _______ _______ _______ _____ _____    ______ ____
ROOT
ATOM      1  C   UNL     1       4.039   6.377  17.762  0.00  0.00    +0.000 A 
ATOM      2  C   UNL     1       5.436   6.298  17.748  0.00  0.00    +0.000 A 
ATOM      3  C   UNL     1       6.086   5.085  17.947  0.00  0.00    +0.000 A 
ATOM      4  C   UNL     1       5.344   3.922  18.093  0.00  0.00    +0.000 A 
ATOM      5  C   UNL     1       3.948   3.984  18.056  0.00  0.00    +0.000 A 
ATOM      6  C   UNL     1       3.294   5.220  18.007  0.00  0.00    +0.000 A 
ENDROOT
BRANCH   1   9
ATOM      7  C   UNL     1       2.436   8.188  18.330  0.00  0.00    +0.000 C 
ATOM      8  O   UNL     1       2.163   7.799  19.477  0.00  0.00    +0.000 OA
ATOM      9  N   UNL     1       3.353   7.574  17.479  0.00  0.00    +0.000 N 
ATOM     10  H   UNL     1       3.650   8.112  16.673  0.00  0.00    +0.000 HD
BRANCH   7  11
ATOM     11  C   UNL     1       1.860   9.506  17.844  0.00  0.00    +0.000 C 
BRANCH  11  12
ATOM     12  S   UNL     1       0.636  10.255  18.950  0.00  0.00    +0.000 S 
BRANCH  12  17
ATOM     13  C   UNL     1       3.728  14.317  18.227  0.00  0.00    +0.000 C 
ATOM     14  C   UNL     1       2.673  13.573  18.961  0.00  0.00    +0.000 A 
ATOM     15  C   UNL     1       2.029  13.972  20.117  0.00  0.00    +0.000 A 
ATOM     16  S   UNL     1       0.895  12.781  20.598  0.00  0.00    +0.000 S 
ATOM     17  C   UNL     1       1.339  11.831  19.244  0.00  0.00    +0.000 A 
ATOM     18  N   UNL     1       2.260  12.346  18.463  0.00  0.00    +0.000 NA
ENDBRANCH  12  17
ENDBRANCH  11  12
ENDBRANCH   7  11
ENDBRANCH   1   9
BRANCH   5  19
ATOM     19  S   UNL     1       3.003   2.467  18.027  0.00  0.00    +0.000 S 
ATOM     20  O   UNL     1       2.006   2.627  16.989  0.00  0.00    +0.000 OA
ATOM     21  O   UNL     1       3.945   1.372  17.996  0.00  0.00    +0.000 OA
BRANCH  19  22
ATOM     22  N   UNL     1       2.199   2.410  19.521  0.00  0.00    +0.000 NA
ATOM     23  C   UNL     1       0.832   2.927  19.683  0.00  0.00    +0.000 C 
ATOM     24  C   UNL     1       1.004   4.137  20.585  0.00  0.00    +0.000 C 
ATOM     25  C   UNL     1       2.131   3.736  21.520  0.00  0.00    +0.000 C 
ATOM     26  C   UNL     1       2.942   2.676  20.766  0.00  0.00    +0.000 C 
ENDBRANCH  19  22
ENDBRANCH   5  19
TORSDOF 6
ENDMDL
