MODEL 1
REMARK VINA RESULT:      -7.8      0.000      0.000
REMARK  Name = 
REMARK  8 active torsions:
REMARK  status: ('A' for Active; 'I' for Inactive)
REMARK    1  A    between atoms: C_1  and  C_2
REMARK    2  A    between atoms: C_2  and  O_3
REMARK    3  A    between atoms: O_3  and  C_4
REMARK    4  A    between atoms: C_9  and  N_10
REMARK    5  A    between atoms: C_11  and  C_13
REMARK    6  A    between atoms: C_15  and  S_16
REMARK    7  A    between atoms: S_16  and  N_19
REMARK    8  A    between atoms: N_25  and  C_26
REMARK                            x       y       z     vdW  Elec       q    Type
REMARK                         _______ _______ _______ _____ _____    ______ ____
ROOT
ATOM      1  N   UNL     1       3.390   6.254  19.515  0.00  0.00    +0.000 N 
ATOM      2  C   UNL     1       2.172   6.429  20.135  0.00  0.00    +0.000 C 
ATOM      3  O   UNL     1       1.549   5.500  20.639  0.00  0.00    +0.000 OA
ATOM      4  H   UNL     1       3.939   7.086  19.343  0.00  0.00    +0.000 HD
ENDROOT
BRANCH   1  10
ATOM      5  C   UNL     1       6.677   4.372  16.220  0.00  0.00    +0.000 C 
ATOM      6  O   UNL     1       7.885   4.530  16.352  0.00  0.00    +0.000 OA
ATOM      7  N   UNL     1       5.737   4.816  17.130  0.00  0.00    +0.000 N 
ATOM      8  C   UNL     1       6.169   5.624  18.259  0.00  0.00    +0.000 C 
ATOM      9  C   UNL     1       5.575   5.080  19.551  0.00  0.00    +0.000 C 
ATOM     10  C   UNL     1       4.047   4.951  19.457  0.00  0.00    +0.000 C 
ATOM     11  C   UNL     1       3.625   4.180  18.199  0.00  0.00    +0.000 C 
ATOM     12  C   UNL     1       4.298   4.704  16.935  0.00  0.00    +0.000 C 
BRANCH   5  13
ATOM     13  O   UNL     1       6.107   3.793  15.131  0.00  0.00    +0.000 OA
BRANCH  13  15
ATOM     14  C   UNL     1       5.876   3.503  12.777  0.00  0.00    +0.000 C 
ATOM     15  C   UNL     1       6.527   4.331  13.871  0.00  0.00    +0.000 C 
ENDBRANCH  13  15
ENDBRANCH   5  13
ENDBRANCH   1  10
BRANCH   2  16
ATOM     16  C   UNL     1       1.710   7.805  20.163  0.00  0.00    +0.000 A 
ATOM     17  C   UNL     1       1.187   8.540  21.221  0.00  0.00    +0.000 A 
ATOM     18  C   UNL     1       0.916   9.856  20.756  0.00  0.00    +0.000 A 
ATOM     19  C   UNL     1       1.311   9.913  19.438  0.00  0.00    +0.000 A 
ATOM     20  N   UNL     1       1.713   8.654  19.070  0.00  0.00    +0.000 N 
ATOM     21  C   UNL     1       1.969   8.249  17.702  0.00  0.00    +0.000 C 
BRANCH  18  22
ATOM     22  S   UNL     1       0.186  11.116  21.685  0.00  0.00    +0.000 S 
ATOM     23  O   UNL     1       0.035  10.543  22.997  0.00  0.00    +0.000 OA
ATOM     24  O   UNL     1       1.037  12.271  21.460  0.00  0.00    +0.000 OA
BRANCH  22  25
ATOM     25  N   UNL     1      -1.363  11.474  21.072  0.00  0.00    +0.000 NA
ATOM     26  C   UNL     1      -1.416  12.296  19.840  0.00  0.00    +0.000 C 
ATOM     27  C   UNL     1      -1.633  13.713  20.331  0.00  0.00    +0.000 C 
ATOM     28  C   UNL     1      -2.552  13.537  21.525  0.00  0.00    +0.000 C 
ATOM     29  C   UNL     1      -2.246  12.146  22.075  0.00  0.00    +0.000 C 
ENDBRANCH  22  25
ENDBRANCH  18  22
ENDBRANCH   2  16
TORSDOF 6
ENDMDL
MODEL 2
REMARK VINA RESULT:      -7.5      3.366      9.938
REMARK  Name = 
REMARK  8 active torsions:
REMARK  status: ('A' for Active; 'I' for Inactive)
REMARK    1  A    between atoms: C_1  and  C_2
REMARK    2  A    between atoms: C_2  and  O_3
REMARK    3  A    between atoms: O_3  and  C_4
REMARK    4  A    between atoms: C_9  and  N_10
REMARK    5  A    between atoms: C_11  and  C_13
REMARK    6  A    between atoms: C_15  and  S_16
REMARK    7  A    between atoms: S_16  and  N_19
REMARK    8  A    between atoms: N_25  and  C_26
REMARK                            x       y       z     vdW  Elec       q    Type
REMARK                         _______ _______ _______ _____ _____    ______ ____
ROOT
ATOM      1  N   UNL     1      -0.363  10.631  18.304  0.00  0.00    +0.000 N 
ATOM      2  C   UNL     1       0.993  10.565  18.545  0.00  0.00    +0.000 C 
ATOM      3  O   UNL     1       1.726  11.545  18.457  0.00  0.00    +0.000 OA
ATOM      4  H   UNL     1      -0.922   9.853  18.626  0.00  0.00    +0.000 HD
ENDROOT
BRANCH   1  10
ATOM      5  C   UNL     1      -4.866  12.418  19.619  0.00  0.00    +0.000 C 
ATOM      6  O   UNL     1      -5.027  13.068  20.645  0.00  0.00    +0.000 OA
ATOM      7  N   UNL     1      -3.638  11.958  19.182  0.00  0.00    +0.000 N 
ATOM      8  C   UNL     1      -2.470  12.138  20.030  0.00  0.00    +0.000 C 
ATOM      9  C   UNL     1      -1.322  12.726  19.222  0.00  0.00    +0.000 C 
ATOM     10  C   UNL     1      -1.028  11.887  17.970  0.00  0.00    +0.000 C 
ATOM     11  C   UNL     1      -2.302  11.631  17.153  0.00  0.00    +0.000 C 
ATOM     12  C   UNL     1      -3.454  11.115  18.009  0.00  0.00    +0.000 C 
BRANCH   5  13
ATOM     13  O   UNL     1      -5.883  12.017  18.813  0.00  0.00    +0.000 OA
BRANCH  13  15
ATOM     14  C   UNL     1      -7.123  10.270  19.859  0.00  0.00    +0.000 C 
ATOM     15  C   UNL     1      -7.117  11.743  19.487  0.00  0.00    +0.000 C 
ENDBRANCH  13  15
ENDBRANCH   5  13
ENDBRANCH   1  10
BRANCH   2  16
ATOM     16  C   UNL     1       1.465   9.251  18.939  0.00  0.00    +0.000 A 
ATOM     17  C   UNL     1       2.149   8.297  18.193  0.00  0.00    +0.000 A 
ATOM     18  C   UNL     1       2.423   7.186  19.036  0.00  0.00    +0.000 A 
ATOM     19  C   UNL     1       1.935   7.493  20.288  0.00  0.00    +0.000 A 
ATOM     20  N   UNL     1       1.293   8.702  20.198  0.00  0.00    +0.000 N 
ATOM     21  C   UNL     1       0.443   9.251  21.236  0.00  0.00    +0.000 C 
BRANCH  18  22
ATOM     22  S   UNL     1       3.187   5.718  18.544  0.00  0.00    +0.000 S 
ATOM     23  O   UNL     1       3.900   6.079  17.346  0.00  0.00    +0.000 OA
ATOM     24  O   UNL     1       3.888   5.259  19.729  0.00  0.00    +0.000 OA
BRANCH  22  25
ATOM     25  N   UNL     1       2.013   4.552  18.140  0.00  0.00    +0.000 NA
ATOM     26  C   UNL     1       1.330   3.878  19.270  0.00  0.00    +0.000 C 
ATOM     27  C   UNL     1       2.090   2.582  19.462  0.00  0.00    +0.000 C 
ATOM     28  C   UNL     1       2.450   2.170  18.047  0.00  0.00    +0.000 C 
ATOM     29  C   UNL     1       2.545   3.470  17.254  0.00  0.00    +0.000 C 
ENDBRANCH  22  25
ENDBRANCH  18  22
ENDBRANCH   2  16
TORSDOF 6
ENDMDL
MODEL 3
REMARK VINA RESULT:      -7.3      3.526      9.943
REMARK  Name = 
REMARK  8 active torsions:
REMARK  status: ('A' for Active; 'I' for Inactive)
REMARK    1  A    between atoms: C_1  and  C_2
REMARK    2  A    between atoms: C_2  and  O_3
REMARK    3  A    between atoms: O_3  and  C_4
REMARK    4  A    between atoms: C_9  and  N_10
REMARK    5  A    between atoms: C_11  and  C_13
REMARK    6  A    between atoms: C_15  and  S_16
REMARK    7  A    between atoms: S_16  and  N_19
REMARK    8  A    between atoms: N_25  and  C_26
REMARK                            x       y       z     vdW  Elec       q    Type
REMARK                         _______ _______ _______ _____ _____    ______ ____
ROOT
ATOM      1  N   UNL     1      -0.341  10.464  18.151  0.00  0.00    +0.000 N 
ATOM      2  C   UNL     1       0.988  10.452  18.515  0.00  0.00    +0.000 C 
ATOM      3  O   UNL     1       1.692  11.455  18.474  0.00  0.00    +0.000 OA
ATOM      4  H   UNL     1      -0.900   9.671  18.437  0.00  0.00    +0.000 HD
ENDROOT
BRANCH   1  10
ATOM      5  C   UNL     1      -4.982  12.141  19.077  0.00  0.00    +0.000 C 
ATOM      6  O   UNL     1      -5.240  12.810  20.070  0.00  0.00    +0.000 OA
ATOM      7  N   UNL     1      -3.712  11.708  18.746  0.00  0.00    +0.000 N 
ATOM      8  C   UNL     1      -2.617  11.947  19.673  0.00  0.00    +0.000 C 
ATOM      9  C   UNL     1      -1.429  12.550  18.938  0.00  0.00    +0.000 C 
ATOM     10  C   UNL     1      -1.017  11.689  17.734  0.00  0.00    +0.000 C 
ATOM     11  C   UNL     1      -2.218  11.373  16.832  0.00  0.00    +0.000 C 
ATOM     12  C   UNL     1      -3.415  10.842  17.613  0.00  0.00    +0.000 C 
BRANCH   5  13
ATOM     13  O   UNL     1      -5.923  11.687  18.209  0.00  0.00    +0.000 OA
BRANCH  13  15
ATOM     14  C   UNL     1      -7.040  13.409  16.996  0.00  0.00    +0.000 C 
ATOM     15  C   UNL     1      -7.133  12.453  18.173  0.00  0.00    +0.000 C 
ENDBRANCH  13  15
ENDBRANCH   5  13
ENDBRANCH   1  10
BRANCH   2  16
ATOM     16  C   UNL     1       1.467   9.161  18.976  0.00  0.00    +0.000 A 
ATOM     17  C   UNL     1       2.199   8.195  18.293  0.00  0.00    +0.000 A 
ATOM     18  C   UNL     1       2.458   7.121  19.187  0.00  0.00    +0.000 A 
ATOM     19  C   UNL     1       1.914   7.462  20.405  0.00  0.00    +0.000 A 
ATOM     20  N   UNL     1       1.254   8.655  20.246  0.00  0.00    +0.000 N 
ATOM     21  C   UNL     1       0.352   9.224  21.228  0.00  0.00    +0.000 C 
BRANCH  18  22
ATOM     22  S   UNL     1       3.269   5.651  18.779  0.00  0.00    +0.000 S 
ATOM     23  O   UNL     1       3.496   5.758  17.361  0.00  0.00    +0.000 OA
ATOM     24  O   UNL     1       4.375   5.576  19.716  0.00  0.00    +0.000 OA
BRANCH  22  25
ATOM     25  N   UNL     1       2.245   4.319  19.062  0.00  0.00    +0.000 NA
ATOM     26  C   UNL     1       2.787   3.236  19.917  0.00  0.00    +0.000 C 
ATOM     27  C   UNL     1       3.326   2.209  18.943  0.00  0.00    +0.000 C 
ATOM     28  C   UNL     1       2.335   2.254  17.796  0.00  0.00    +0.000 C 
ATOM     29  C   UNL     1       1.769   3.671  17.800  0.00  0.00    +0.000 C 
ENDBRANCH  22  25
ENDBRANCH  18  22
ENDBRANCH   2  16
TORSDOF 6
ENDMDL
MODEL 4
REMARK VINA RESULT:      -7.2      1.149      1.520
REMARK  Name = 
REMARK  8 active torsions:
REMARK  status: ('A' for Active; 'I' for Inactive)
REMARK    1  A    between atoms: C_1  and  C_2
REMARK    2  A    between atoms: C_2  and  O_3
REMARK    3  A    between atoms: O_3  and  C_4
REMARK    4  A    between atoms: C_9  and  N_10
REMARK    5  A    between atoms: C_11  and  C_13
REMARK    6  A    between atoms: C_15  and  S_16
REMARK    7  A    between atoms: S_16  and  N_19
REMARK    8  A    between atoms: N_25  and  C_26
REMARK                            x       y       z     vdW  Elec       q    Type
REMARK                         _______ _______ _______ _____ _____    ______ ____
ROOT
ATOM      1  N   UNL     1       3.375   6.281  19.324  0.00  0.00    +0.000 N 
ATOM      2  C   UNL     1       2.256   6.477  20.103  0.00  0.00    +0.000 C 
ATOM      3  O   UNL     1       1.797   5.602  20.830  0.00  0.00    +0.000 OA
ATOM      4  H   UNL     1       3.820   7.107  18.947  0.00  0.00    +0.000 HD
ENDROOT
BRANCH   1  10
ATOM      5  C   UNL     1       6.659   4.350  16.053  0.00  0.00    +0.000 C 
ATOM      6  O   UNL     1       7.856   4.601  16.117  0.00  0.00    +0.000 OA
ATOM      7  N   UNL     1       5.725   4.806  16.964  0.00  0.00    +0.000 N 
ATOM      8  C   UNL     1       6.141   5.736  18.002  0.00  0.00    +0.000 C 
ATOM      9  C   UNL     1       5.639   5.267  19.359  0.00  0.00    +0.000 C 
ATOM     10  C   UNL     1       4.122   5.027  19.345  0.00  0.00    +0.000 C 
ATOM     11  C   UNL     1       3.707   4.122  18.176  0.00  0.00    +0.000 C 
ATOM     12  C   UNL     1       4.291   4.580  16.844  0.00  0.00    +0.000 C 
BRANCH   5  13
ATOM     13  O   UNL     1       6.089   3.642  15.043  0.00  0.00    +0.000 OA
BRANCH  13  15
ATOM     14  C   UNL     1       5.464   3.495  12.748  0.00  0.00    +0.000 C 
ATOM     15  C   UNL     1       6.492   4.037  13.726  0.00  0.00    +0.000 C 
ENDBRANCH  13  15
ENDBRANCH   5  13
ENDBRANCH   1  10
BRANCH   2  16
ATOM     16  C   UNL     1       1.692   7.811  20.010  0.00  0.00    +0.000 A 
ATOM     17  C   UNL     1       0.936   8.519  20.940  0.00  0.00    +0.000 A 
ATOM     18  C   UNL     1       0.650   9.801  20.396  0.00  0.00    +0.000 A 
ATOM     19  C   UNL     1       1.264   9.869  19.165  0.00  0.00    +0.000 A 
ATOM     20  N   UNL     1       1.820   8.641  18.910  0.00  0.00    +0.000 N 
ATOM     21  C   UNL     1       2.342   8.236  17.619  0.00  0.00    +0.000 C 
BRANCH  18  22
ATOM     22  S   UNL     1      -0.326  11.012  21.146  0.00  0.00    +0.000 S 
ATOM     23  O   UNL     1      -1.313  11.334  20.149  0.00  0.00    +0.000 OA
ATOM     24  O   UNL     1      -0.703  10.434  22.423  0.00  0.00    +0.000 OA
BRANCH  22  25
ATOM     25  N   UNL     1       0.604  12.407  21.453  0.00  0.00    +0.000 NA
ATOM     26  C   UNL     1      -0.082  13.523  22.146  0.00  0.00    +0.000 C 
ATOM     27  C   UNL     1      -0.528  14.451  21.035  0.00  0.00    +0.000 C 
ATOM     28  C   UNL     1       0.605  14.369  20.030  0.00  0.00    +0.000 C 
ATOM     29  C   UNL     1       1.216  12.983  20.216  0.00  0.00    +0.000 C 
ENDBRANCH  22  25
ENDBRANCH  18  22
ENDBRANCH   2  16
TORSDOF 6
ENDMDL
MODEL 5
REMARK VINA RESULT:      -7.2      3.135      9.990
REMARK  Name = 
REMARK  8 active torsions:
REMARK  status: ('A' for Active; 'I' for Inactive)
REMARK    1  A    between atoms: C_1  and  C_2
REMARK    2  A    between atoms: C_2  and  O_3
REMARK    3  A    between atoms: O_3  and  C_4
REMARK    4  A    between atoms: C_9  and  N_10
REMARK    5  A    between atoms: C_11  and  C_13
REMARK    6  A    between atoms: C_15  and  S_16
REMARK    7  A    between atoms: S_16  and  N_19
REMARK    8  A    between atoms: N_25  and  C_26
REMARK                            x       y       z     vdW  Elec       q    Type
REMARK                         _______ _______ _______ _____ _____    ______ ____
ROOT
ATOM      1  N   UNL     1      -0.163  10.579  18.194  0.00  0.00    +0.000 N 
ATOM      2  C   UNL     1       1.196  10.497  18.402  0.00  0.00    +0.000 C 
ATOM      3  O   UNL     1       1.934  11.475  18.329  0.00  0.00    +0.000 OA
ATOM      4  H   UNL     1      -0.721   9.794  18.503  0.00  0.00    +0.000 HD
ENDROOT
BRANCH   1  10
ATOM      5  C   UNL     1      -4.473  12.486  19.925  0.00  0.00    +0.000 C 
ATOM      6  O   UNL     1      -4.518  13.144  20.956  0.00  0.00    +0.000 OA
ATOM      7  N   UNL     1      -3.305  11.992  19.375  0.00  0.00    +0.000 N 
ATOM      8  C   UNL     1      -2.057  12.148  20.104  0.00  0.00    +0.000 C 
ATOM      9  C   UNL     1      -0.978  12.703  19.184  0.00  0.00    +0.000 C 
ATOM     10  C   UNL     1      -0.828  11.849  17.916  0.00  0.00    +0.000 C 
ATOM     11  C   UNL     1      -2.181  11.621  17.228  0.00  0.00    +0.000 C 
ATOM     12  C   UNL     1      -3.257  11.139  18.196  0.00  0.00    +0.000 C 
BRANCH   5  13
ATOM     13  O   UNL     1      -5.573  12.105  19.224  0.00  0.00    +0.000 OA
BRANCH  13  15
ATOM     14  C   UNL     1      -7.130  10.458  19.963  0.00  0.00    +0.000 C 
ATOM     15  C   UNL     1      -6.760  11.931  20.008  0.00  0.00    +0.000 C 
ENDBRANCH  13  15
ENDBRANCH   5  13
ENDBRANCH   1  10
BRANCH   2  16
ATOM     16  C   UNL     1       1.668   9.168  18.743  0.00  0.00    +0.000 A 
ATOM     17  C   UNL     1       2.382   8.258  17.969  0.00  0.00    +0.000 A 
ATOM     18  C   UNL     1       2.640   7.107  18.763  0.00  0.00    +0.000 A 
ATOM     19  C   UNL     1       2.114   7.346  20.013  0.00  0.00    +0.000 A 
ATOM     20  N   UNL     1       1.464   8.554  19.966  0.00  0.00    +0.000 N 
ATOM     21  C   UNL     1       0.580   9.044  21.006  0.00  0.00    +0.000 C 
BRANCH  18  22
ATOM     22  S   UNL     1       3.432   5.672  18.219  0.00  0.00    +0.000 S 
ATOM     23  O   UNL     1       4.233   5.265  19.345  0.00  0.00    +0.000 OA
ATOM     24  O   UNL     1       2.358   4.835  17.715  0.00  0.00    +0.000 OA
BRANCH  22  25
ATOM     25  N   UNL     1       4.474   6.033  16.920  0.00  0.00    +0.000 NA
ATOM     26  C   UNL     1       4.954   4.885  16.115  0.00  0.00    +0.000 C 
ATOM     27  C   UNL     1       6.312   4.549  16.695  0.00  0.00    +0.000 C 
ATOM     28  C   UNL     1       6.891   5.905  17.051  0.00  0.00    +0.000 C 
ATOM     29  C   UNL     1       5.688   6.798  17.342  0.00  0.00    +0.000 C 
ENDBRANCH  22  25
ENDBRANCH  18  22
ENDBRANCH   2  16
TORSDOF 6
ENDMDL
MODEL 6
REMARK VINA RESULT:      -7.2      3.425      9.964
REMARK  Name = 
REMARK  8 active torsions:
REMARK  status: ('A' for Active; 'I' for Inactive)
REMARK    1  A    between atoms: C_1  and  C_2
REMARK    2  A    between atoms: C_2  and  O_3
REMARK    3  A    between atoms: O_3  and  C_4
REMARK    4  A    between atoms: C_9  and  N_10
REMARK    5  A    between atoms: C_11  and  C_13
REMARK    6  A    between atoms: C_15  and  S_16
REMARK    7  A    between atoms: S_16  and  N_19
REMARK    8  A    between atoms: N_25  and  C_26
REMARK                            x       y       z     vdW  Elec       q    Type
REMARK                         _______ _______ _______ _____ _____    ______ ____
ROOT
ATOM      1  N   UNL     1      -0.507  10.436  18.049  0.00  0.00    +0.000 N 
ATOM      2  C   UNL     1       0.809  10.498  18.453  0.00  0.00    +0.000 C 
ATOM      3  O   UNL     1       1.455  11.540  18.436  0.00  0.00    +0.000 OA
ATOM      4  H   UNL     1      -1.028   9.611  18.315  0.00  0.00    +0.000 HD
ENDROOT
BRANCH   1  10
ATOM      5  C   UNL     1      -5.128  12.043  19.174  0.00  0.00    +0.000 C 
ATOM      6  O   UNL     1      -5.345  12.754  20.148  0.00  0.00    +0.000 OA
ATOM      7  N   UNL     1      -3.869  11.626  18.787  0.00  0.00    +0.000 N 
ATOM      8  C   UNL     1      -2.728  11.936  19.634  0.00  0.00    +0.000 C 
ATOM      9  C   UNL     1      -1.603  12.531  18.801  0.00  0.00    +0.000 C 
ATOM     10  C   UNL     1      -1.239  11.622  17.616  0.00  0.00    +0.000 C 
ATOM     11  C   UNL     1      -2.482  11.234  16.804  0.00  0.00    +0.000 C 
ATOM     12  C   UNL     1      -3.617  10.713  17.681  0.00  0.00    +0.000 C 
BRANCH   5  13
ATOM     13  O   UNL     1      -6.107  11.525  18.386  0.00  0.00    +0.000 OA
BRANCH  13  15
ATOM     14  C   UNL     1      -6.758  13.318  16.958  0.00  0.00    +0.000 C 
ATOM     15  C   UNL     1      -7.191  12.417  18.101  0.00  0.00    +0.000 C 
ENDBRANCH  13  15
ENDBRANCH   5  13
ENDBRANCH   1  10
BRANCH   2  16
ATOM     16  C   UNL     1       1.348   9.234  18.923  0.00  0.00    +0.000 A 
ATOM     17  C   UNL     1       2.073   8.270  18.231  0.00  0.00    +0.000 A 
ATOM     18  C   UNL     1       2.406   7.229  19.139  0.00  0.00    +0.000 A 
ATOM     19  C   UNL     1       1.914   7.589  20.373  0.00  0.00    +0.000 A 
ATOM     20  N   UNL     1       1.212   8.758  20.215  0.00  0.00    +0.000 N 
ATOM     21  C   UNL     1       0.344   9.329  21.226  0.00  0.00    +0.000 C 
BRANCH  18  22
ATOM     22  S   UNL     1       3.239   5.772  18.731  0.00  0.00    +0.000 S 
ATOM     23  O   UNL     1       3.402   5.096  19.992  0.00  0.00    +0.000 OA
ATOM     24  O   UNL     1       2.449   5.191  17.661  0.00  0.00    +0.000 OA
BRANCH  22  25
ATOM     25  N   UNL     1       4.784   6.133  18.111  0.00  0.00    +0.000 NA
ATOM     26  C   UNL     1       4.869   6.403  16.656  0.00  0.00    +0.000 C 
ATOM     27  C   UNL     1       5.282   5.081  16.042  0.00  0.00    +0.000 C 
ATOM     28  C   UNL     1       6.237   4.498  17.067  0.00  0.00    +0.000 C 
ATOM     29  C   UNL     1       5.796   5.073  18.410  0.00  0.00    +0.000 C 
ENDBRANCH  22  25
ENDBRANCH  18  22
ENDBRANCH   2  16
TORSDOF 6
ENDMDL
MODEL 7
REMARK VINA RESULT:      -7.1      1.316      1.600
REMARK  Name = 
REMARK  8 active torsions:
REMARK  status: ('A' for Active; 'I' for Inactive)
REMARK    1  A    between atoms: C_1  and  C_2
REMARK    2  A    between atoms: C_2  and  O_3
REMARK    3  A    between atoms: O_3  and  C_4
REMARK    4  A    between atoms: C_9  and  N_10
REMARK    5  A    between atoms: C_11  and  C_13
REMARK    6  A    between atoms: C_15  and  S_16
REMARK    7  A    between atoms: S_16  and  N_19
REMARK    8  A    between atoms: N_25  and  C_26
REMARK                            x       y       z     vdW  Elec       q    Type
REMARK                         _______ _______ _______ _____ _____    ______ ____
ROOT
ATOM      1  N   UNL     1       2.929   6.445  18.965  0.00  0.00    +0.000 N 
ATOM      2  C   UNL     1       2.099   6.961  19.936  0.00  0.00    +0.000 C 
ATOM      3  O   UNL     1       1.794   6.333  20.944  0.00  0.00    +0.000 OA
ATOM      4  H   UNL     1       3.317   7.102  18.300  0.00  0.00    +0.000 HD
ENDROOT
BRANCH   1  10
ATOM      5  C   UNL     1       6.727   4.326  16.457  0.00  0.00    +0.000 C 
ATOM      6  O   UNL     1       7.891   4.462  16.814  0.00  0.00    +0.000 OA
ATOM      7  N   UNL     1       5.644   4.837  17.147  0.00  0.00    +0.000 N 
ATOM      8  C   UNL     1       5.876   5.689  18.301  0.00  0.00    +0.000 C 
ATOM      9  C   UNL     1       5.027   5.224  19.476  0.00  0.00    +0.000 C 
ATOM     10  C   UNL     1       3.542   5.127  19.093  0.00  0.00    +0.000 C 
ATOM     11  C   UNL     1       3.345   4.304  17.812  0.00  0.00    +0.000 C 
ATOM     12  C   UNL     1       4.266   4.749  16.681  0.00  0.00    +0.000 C 
BRANCH   5  13
ATOM     13  O   UNL     1       6.358   3.708  15.305  0.00  0.00    +0.000 OA
BRANCH  13  15
ATOM     14  C   UNL     1       6.087   3.647  12.937  0.00  0.00    +0.000 C 
ATOM     15  C   UNL     1       6.640   4.442  14.107  0.00  0.00    +0.000 C 
ENDBRANCH  13  15
ENDBRANCH   5  13
ENDBRANCH   1  10
BRANCH   2  16
ATOM     16  C   UNL     1       1.646   8.315  19.675  0.00  0.00    +0.000 A 
ATOM     17  C   UNL     1       0.825   9.136  20.442  0.00  0.00    +0.000 A 
ATOM     18  C   UNL     1       0.703  10.387  19.777  0.00  0.00    +0.000 A 
ATOM     19  C   UNL     1       1.477  10.323  18.640  0.00  0.00    +0.000 A 
ATOM     20  N   UNL     1       1.975   9.048  18.548  0.00  0.00    +0.000 N 
ATOM     21  C   UNL     1       2.634   8.514  17.372  0.00  0.00    +0.000 C 
BRANCH  18  22
ATOM     22  S   UNL     1      -0.277  11.708  20.302  0.00  0.00    +0.000 S 
ATOM     23  O   UNL     1       0.307  12.856  19.656  0.00  0.00    +0.000 OA
ATOM     24  O   UNL     1      -1.636  11.290  20.010  0.00  0.00    +0.000 OA
BRANCH  22  25
ATOM     25  N   UNL     1      -0.136  11.910  21.988  0.00  0.00    +0.000 NA
ATOM     26  C   UNL     1      -0.962  11.017  22.834  0.00  0.00    +0.000 C 
ATOM     27  C   UNL     1      -2.198  11.830  23.161  0.00  0.00    +0.000 C 
ATOM     28  C   UNL     1      -1.662  13.239  23.321  0.00  0.00    +0.000 C 
ATOM     29  C   UNL     1      -0.422  13.309  22.434  0.00  0.00    +0.000 C 
ENDBRANCH  22  25
ENDBRANCH  18  22
ENDBRANCH   2  16
TORSDOF 6
ENDMDL
MODEL 8
REMARK VINA RESULT:      -7.1      1.362      1.569
REMARK  Name = 
REMARK  8 active torsions:
REMARK  status: ('A' for Active; 'I' for Inactive)
REMARK    1  A    between atoms: C_1  and  C_2
REMARK    2  A    between atoms: C_2  and  O_3
REMARK    3  A    between atoms: O_3  and  C_4
REMARK    4  A    between atoms: C_9  and  N_10
REMARK    5  A    between atoms: C_11  and  C_13
REMARK    6  A    between atoms: C_15  and  S_16
REMARK    7  A    between atoms: S_16  and  N_19
REMARK    8  A    between atoms: N_25  and  C_26
REMARK                            x       y       z     vdW  Elec       q    Type
REMARK                         _______ _______ _______ _____ _____    ______ ____
ROOT
ATOM      1  N   UNL     1       4.179   5.934  18.802  0.00  0.00    +0.000 N 
ATOM      2  C   UNL     1       3.083   5.745  19.615  0.00  0.00    +0.000 C 
ATOM      3  O   UNL     1       2.795   4.652  20.091  0.00  0.00    +0.000 OA
ATOM      4  H   UNL     1       4.477   6.888  18.652  0.00  0.00    +0.000 HD
ENDROOT
BRANCH   1  10
ATOM      5  C   UNL     1       6.615   4.819  14.556  0.00  0.00    +0.000 C 
ATOM      6  O   UNL     1       7.714   5.295  14.299  0.00  0.00    +0.000 OA
ATOM      7  N   UNL     1       5.932   5.046  15.736  0.00  0.00    +0.000 N 
ATOM      8  C   UNL     1       6.472   5.994  16.697  0.00  0.00    +0.000 C 
ATOM      9  C   UNL     1       6.489   5.378  18.089  0.00  0.00    +0.000 C 
ATOM     10  C   UNL     1       5.103   4.849  18.486  0.00  0.00    +0.000 C 
ATOM     11  C   UNL     1       4.520   3.931  17.401  0.00  0.00    +0.000 C 
ATOM     12  C   UNL     1       4.590   4.550  16.009  0.00  0.00    +0.000 C 
BRANCH   5  13
ATOM     13  O   UNL     1       5.901   4.057  13.687  0.00  0.00    +0.000 OA
BRANCH  13  15
ATOM     14  C   UNL     1       5.742   2.690  11.740  0.00  0.00    +0.000 C 
ATOM     15  C   UNL     1       6.589   3.713  12.478  0.00  0.00    +0.000 C 
ENDBRANCH  13  15
ENDBRANCH   5  13
ENDBRANCH   1  10
BRANCH   2  16
ATOM     16  C   UNL     1       2.323   6.953  19.881  0.00  0.00    +0.000 A 
ATOM     17  C   UNL     1       1.628   7.326  21.027  0.00  0.00    +0.000 A 
ATOM     18  C   UNL     1       1.078   8.619  20.811  0.00  0.00    +0.000 A 
ATOM     19  C   UNL     1       1.475   9.028  19.557  0.00  0.00    +0.000 A 
ATOM     20  N   UNL     1       2.156   7.988  18.977  0.00  0.00    +0.000 N 
ATOM     21  C   UNL     1       2.523   7.936  17.576  0.00  0.00    +0.000 C 
BRANCH  18  22
ATOM     22  S   UNL     1       0.066   9.475  21.919  0.00  0.00    +0.000 S 
ATOM     23  O   UNL     1      -0.958   8.524  22.265  0.00  0.00    +0.000 OA
ATOM     24  O   UNL     1       0.981   9.995  22.918  0.00  0.00    +0.000 OA
BRANCH  22  25
ATOM     25  N   UNL     1      -0.670  10.798  21.137  0.00  0.00    +0.000 NA
ATOM     26  C   UNL     1       0.226  11.707  20.384  0.00  0.00    +0.000 C 
ATOM     27  C   UNL     1       0.517  12.843  21.342  0.00  0.00    +0.000 C 
ATOM     28  C   UNL     1      -0.794  13.027  22.082  0.00  0.00    +0.000 C 
ATOM     29  C   UNL     1      -1.466  11.656  22.069  0.00  0.00    +0.000 C 
ENDBRANCH  22  25
ENDBRANCH  18  22
ENDBRANCH   2  16
TORSDOF 6
ENDMDL
MODEL 9
REMARK VINA RESULT:      -7.1      3.224      9.970
REMARK  Name = 
REMARK  8 active torsions:
REMARK  status: ('A' for Active; 'I' for Inactive)
REMARK    1  A    between atoms: C_1  and  C_2
REMARK    2  A    between atoms: C_2  and  O_3
REMARK    3  A    between atoms: O_3  and  C_4
REMARK    4  A    between atoms: C_9  and  N_10
REMARK    5  A    between atoms: C_11  and  C_13
REMARK    6  A    between atoms: C_15  and  S_16
REMARK    7  A    between atoms: S_16  and  N_19
REMARK    8  A    between atoms: N_25  and  C_26
REMARK                            x       y       z     vdW  Elec       q    Type
REMARK                         _______ _______ _______ _____ _____    ______ ____
ROOT
ATOM      1  N   UNL     1      -0.555  10.658  18.669  0.00  0.00    +0.000 N 
ATOM      2  C   UNL     1       0.795  10.577  18.934  0.00  0.00    +0.000 C 
ATOM      3  O   UNL     1       1.566  11.507  18.722  0.00  0.00    +0.000 OA
ATOM      4  H   UNL     1      -1.146   9.953  19.087  0.00  0.00    +0.000 HD
ENDROOT
BRANCH   1  10
ATOM      5  C   UNL     1      -5.086  12.655  19.492  0.00  0.00    +0.000 C 
ATOM      6  O   UNL     1      -5.295  13.418  20.428  0.00  0.00    +0.000 OA
ATOM      7  N   UNL     1      -3.846  12.129  19.187  0.00  0.00    +0.000 N 
ATOM      8  C   UNL     1      -2.728  12.383  20.081  0.00  0.00    +0.000 C 
ATOM      9  C   UNL     1      -1.519  12.858  19.288  0.00  0.00    +0.000 C 
ATOM     10  C   UNL     1      -1.169  11.879  18.157  0.00  0.00    +0.000 C 
ATOM     11  C   UNL     1      -2.397  11.555  17.294  0.00  0.00    +0.000 C 
ATOM     12  C   UNL     1      -3.611  11.157  18.128  0.00  0.00    +0.000 C 
BRANCH   5  13
ATOM     13  O   UNL     1      -6.062  12.183  18.673  0.00  0.00    +0.000 OA
BRANCH  13  15
ATOM     14  C   UNL     1      -7.115  10.446  19.920  0.00  0.00    +0.000 C 
ATOM     15  C   UNL     1      -7.287  11.834  19.329  0.00  0.00    +0.000 C 
ENDBRANCH  13  15
ENDBRANCH   5  13
ENDBRANCH   1  10
BRANCH   2  16
ATOM     16  C   UNL     1       1.213   9.312  19.511  0.00  0.00    +0.000 A 
ATOM     17  C   UNL     1       1.795   8.209  18.895  0.00  0.00    +0.000 A 
ATOM     18  C   UNL     1       2.055   7.230  19.892  0.00  0.00    +0.000 A 
ATOM     19  C   UNL     1       1.663   7.762  21.100  0.00  0.00    +0.000 A 
ATOM     20  N   UNL     1       1.087   8.982  20.849  0.00  0.00    +0.000 N 
ATOM     21  C   UNL     1       0.334   9.744  21.827  0.00  0.00    +0.000 C 
BRANCH  18  22
ATOM     22  S   UNL     1       2.702   5.655  19.605  0.00  0.00    +0.000 S 
ATOM     23  O   UNL     1       4.104   5.792  19.903  0.00  0.00    +0.000 OA
ATOM     24  O   UNL     1       1.851   4.767  20.375  0.00  0.00    +0.000 OA
BRANCH  22  25
ATOM     25  N   UNL     1       2.540   5.245  17.959  0.00  0.00    +0.000 NA
ATOM     26  C   UNL     1       1.825   3.983  17.656  0.00  0.00    +0.000 C 
ATOM     27  C   UNL     1       2.920   2.953  17.476  0.00  0.00    +0.000 C 
ATOM     28  C   UNL     1       4.028   3.730  16.791  0.00  0.00    +0.000 C 
ATOM     29  C   UNL     1       3.852   5.177  17.243  0.00  0.00    +0.000 C 
ENDBRANCH  22  25
ENDBRANCH  18  22
ENDBRANCH   2  16
TORSDOF 6
ENDMDL
