MODEL 1
REMARK VINA RESULT:      -7.5      0.000      0.000
REMARK  Name = 
REMARK  13 active torsions:
REMARK  status: ('A' for Active; 'I' for Inactive)
REMARK    1  A    between atoms: C_1  and  C_2
REMARK    2  A    between atoms: C_2  and  N_3
REMARK    3  A    between atoms: C_2  and  C_25
REMARK    4  A    between atoms: N_3  and  C_4
REMARK    5  A    between atoms: C_4  and  C_5
REMARK    6  A    between atoms: C_4  and  C_8
REMARK    7  A    between atoms: C_5  and  O_7
REMARK    8  A    between atoms: C_8  and  C_9
REMARK    9  A    between atoms: C_8  and  N_16
REMARK   10  A    between atoms: C_9  and  C_10
REMARK   11  A    between atoms: C_17  and  C_19
REMARK   12  A    between atoms: CA_31  and  C_32
REMARK   13  A    between atoms: C_32  and  OXT_34
REMARK                            x       y       z     vdW  Elec       q    Type
REMARK                         _______ _______ _______ _____ _____    ______ ____
ROOT
ATOM      1  C   UNK A   1       1.049   8.585  20.208  0.00  0.00    +0.000 C 
ENDROOT
BRANCH   1   2
ATOM      2  N   UNK A   1       2.390   7.926  20.062  0.00  0.00    +0.000 NA
ATOM      3  H   UNK A   1       2.650   7.429  20.910  0.00  0.00    +0.000 HD
BRANCH   2   5
ATOM      4  C   UNK A   1       3.218   7.636  17.672  0.00  0.00    +0.000 C 
ATOM      5  C   UNK A   1       2.519   7.000  18.884  0.00  0.00    +0.000 C 
BRANCH   5   6
ATOM      6  C   UNK A   1       3.288   5.709  19.344  0.00  0.00    +0.000 C 
ATOM      7  O   UNK A   1       4.502   5.690  19.596  0.00  0.00    +0.000 OA
ATOM      8  N   PRO A   2       2.570   4.542  19.542  0.00  0.00    +0.000 N 
ATOM      9  CD  PRO A   2       1.186   4.270  19.199  0.00  0.00    +0.000 C 
ATOM     10  CG  PRO A   2       0.713   3.465  20.392  0.00  0.00    +0.000 C 
ATOM     11  CB  PRO A   2       1.912   2.583  20.725  0.00  0.00    +0.000 C 
ATOM     12  CA  PRO A   2       3.141   3.377  20.242  0.00  0.00    +0.000 C 
BRANCH  12  13
ATOM     13  C   PRO A   2       4.051   2.515  19.338  0.00  0.00    +0.000 C 
ATOM     14  O   PRO A   2       3.666   1.625  18.608  0.00  0.00    +0.000 OA
BRANCH  13  15
ATOM     15  OXT PRO A   2       5.372   2.797  19.488  0.00  0.00    +0.000 OA
ATOM     16  HXT PRO A   2       5.558   3.292  20.322  0.00  0.00    +0.000 HD
ENDBRANCH  13  15
ENDBRANCH  12  13
ENDBRANCH   5   6
ENDBRANCH   2   5
ENDBRANCH   1   2
BRANCH   1  17
ATOM     17  C   UNK A   1       0.518   8.507  21.672  0.00  0.00    +0.000 C 
ATOM     18  O   UNK A   1       1.168   8.872  22.646  0.00  0.00    +0.000 OA
BRANCH  17  19
ATOM     19  O   UNK A   1      -0.750   8.070  21.851  0.00  0.00    +0.000 OA
ATOM     20  H   UNK A   1      -1.016   7.923  22.774  0.00  0.00    +0.000 HD
ENDBRANCH  17  19
ENDBRANCH   1  17
BRANCH   1  21
ATOM     21  C   UNK A   1       0.970  10.049  19.628  0.00  0.00    +0.000 C 
BRANCH  21  22
ATOM     22  N   UNK A   1       0.062  10.880  20.456  0.00  0.00    +0.000 N 
ATOM     23  C   UNK A   1       0.541  12.008  21.113  0.00  0.00    +0.000 C 
ATOM     24  O   UNK A   1       1.695  12.408  21.016  0.00  0.00    +0.000 OA
ATOM     25  H   UNK A   1      -0.738  10.424  20.890  0.00  0.00    +0.000 HD
BRANCH  23  26
ATOM     26  C   UNK A   1      -0.394  12.706  22.018  0.00  0.00    +0.000 A 
ATOM     27  C   UNK A   1      -0.104  14.031  22.369  0.00  0.00    +0.000 A 
ATOM     28  C   UNK A   1      -0.932  14.717  23.255  0.00  0.00    +0.000 A 
ATOM     29  C   UNK A   1      -2.062  14.088  23.773  0.00  0.00    +0.000 A 
ATOM     30  C   UNK A   1      -2.380  12.783  23.389  0.00  0.00    +0.000 A 
ATOM     31  C   UNK A   1      -1.550  12.088  22.507  0.00  0.00    +0.000 A 
ENDBRANCH  23  26
ENDBRANCH  21  22
BRANCH  21  32
ATOM     32  C   UNK A   1       0.576  10.108  18.137  0.00  0.00    +0.000 C 
BRANCH  32  33
ATOM     33  C   UNK A   1      -0.891  10.432  17.896  0.00  0.00    +0.000 A 
ATOM     34  C   UNK A   1      -1.770   9.469  17.384  0.00  0.00    +0.000 A 
ATOM     35  C   UNK A   1      -3.138   9.744  17.280  0.00  0.00    +0.000 A 
ATOM     36  C   UNK A   1      -3.635  10.991  17.658  0.00  0.00    +0.000 A 
ATOM     37  C   UNK A   1      -2.763  11.975  18.117  0.00  0.00    +0.000 A 
ATOM     38  C   UNK A   1      -1.400  11.695  18.237  0.00  0.00    +0.000 A 
ENDBRANCH  32  33
ENDBRANCH  21  32
ENDBRANCH   1  21
TORSDOF 12
ENDMDL
MODEL 2
REMARK VINA RESULT:      -7.5      5.017      8.054
REMARK  Name = 
REMARK  13 active torsions:
REMARK  status: ('A' for Active; 'I' for Inactive)
REMARK    1  A    between atoms: C_1  and  C_2
REMARK    2  A    between atoms: C_2  and  N_3
REMARK    3  A    between atoms: C_2  and  C_25
REMARK    4  A    between atoms: N_3  and  C_4
REMARK    5  A    between atoms: C_4  and  C_5
REMARK    6  A    between atoms: C_4  and  C_8
REMARK    7  A    between atoms: C_5  and  O_7
REMARK    8  A    between atoms: C_8  and  C_9
REMARK    9  A    between atoms: C_8  and  N_16
REMARK   10  A    between atoms: C_9  and  C_10
REMARK   11  A    between atoms: C_17  and  C_19
REMARK   12  A    between atoms: CA_31  and  C_32
REMARK   13  A    between atoms: C_32  and  OXT_34
REMARK                            x       y       z     vdW  Elec       q    Type
REMARK                         _______ _______ _______ _____ _____    ______ ____
ROOT
ATOM      1  C   UNK A   1       5.529   6.093  18.369  0.00  0.00    +0.000 C 
ENDROOT
BRANCH   1   2
ATOM      2  N   UNK A   1       4.080   5.750  18.182  0.00  0.00    +0.000 NA
ATOM      3  H   UNK A   1       3.909   4.763  18.359  0.00  0.00    +0.000 HD
BRANCH   2   5
ATOM      4  C   UNK A   1       2.136   7.395  18.145  0.00  0.00    +0.000 C 
ATOM      5  C   UNK A   1       3.120   6.574  18.995  0.00  0.00    +0.000 C 
BRANCH   5   6
ATOM      6  C   UNK A   1       2.339   5.619  19.968  0.00  0.00    +0.000 C 
ATOM      7  O   UNK A   1       1.838   5.994  21.038  0.00  0.00    +0.000 OA
ATOM      8  N   PRO A   2       2.140   4.302  19.588  0.00  0.00    +0.000 N 
ATOM      9  CD  PRO A   2       2.726   3.593  18.466  0.00  0.00    +0.000 C 
ATOM     10  CG  PRO A   2       1.561   2.760  17.971  0.00  0.00    +0.000 C 
ATOM     11  CB  PRO A   2       0.868   2.317  19.255  0.00  0.00    +0.000 C 
ATOM     12  CA  PRO A   2       1.184   3.419  20.283  0.00  0.00    +0.000 C 
BRANCH  12  13
ATOM     13  C   PRO A   2       1.754   2.826  21.591  0.00  0.00    +0.000 C 
ATOM     14  O   PRO A   2       2.933   2.662  21.828  0.00  0.00    +0.000 OA
BRANCH  13  15
ATOM     15  OXT PRO A   2       0.787   2.418  22.456  0.00  0.00    +0.000 OA
ATOM     16  HXT PRO A   2      -0.102   2.777  22.222  0.00  0.00    +0.000 HD
ENDBRANCH  13  15
ENDBRANCH  12  13
ENDBRANCH   5   6
ENDBRANCH   2   5
ENDBRANCH   1   2
BRANCH   1  17
ATOM     17  C   UNK A   1       6.294   4.983  19.151  0.00  0.00    +0.000 C 
ATOM     18  O   UNK A   1       7.023   5.214  20.111  0.00  0.00    +0.000 OA
BRANCH  17  19
ATOM     19  O   UNK A   1       6.083   3.700  18.777  0.00  0.00    +0.000 OA
ATOM     20  H   UNK A   1       6.560   3.029  19.294  0.00  0.00    +0.000 HD
ENDBRANCH  17  19
ENDBRANCH   1  17
BRANCH   1  21
ATOM     21  C   UNK A   1       6.281   6.510  17.047  0.00  0.00    +0.000 C 
BRANCH  21  22
ATOM     22  N   UNK A   1       6.859   7.869  17.195  0.00  0.00    +0.000 N 
ATOM     23  C   UNK A   1       7.966   8.080  18.010  0.00  0.00    +0.000 C 
ATOM     24  O   UNK A   1       8.551   7.181  18.603  0.00  0.00    +0.000 OA
ATOM     25  H   UNK A   1       6.238   8.666  17.082  0.00  0.00    +0.000 HD
BRANCH  23  26
ATOM     26  C   UNK A   1       8.401   9.478  18.204  0.00  0.00    +0.000 A 
ATOM     27  C   UNK A   1       9.319   9.745  19.229  0.00  0.00    +0.000 A 
ATOM     28  C   UNK A   1       9.725  11.054  19.479  0.00  0.00    +0.000 A 
ATOM     29  C   UNK A   1       9.233  12.094  18.692  0.00  0.00    +0.000 A 
ATOM     30  C   UNK A   1       8.355  11.825  17.639  0.00  0.00    +0.000 A 
ATOM     31  C   UNK A   1       7.939  10.515  17.388  0.00  0.00    +0.000 A 
ENDBRANCH  23  26
ENDBRANCH  21  22
BRANCH  21  32
ATOM     32  C   UNK A   1       5.413   6.407  15.776  0.00  0.00    +0.000 C 
BRANCH  32  33
ATOM     33  C   UNK A   1       5.954   5.439  14.734  0.00  0.00    +0.000 A 
ATOM     34  C   UNK A   1       5.175   4.374  14.263  0.00  0.00    +0.000 A 
ATOM     35  C   UNK A   1       5.640   3.564  13.222  0.00  0.00    +0.000 A 
ATOM     36  C   UNK A   1       6.897   3.792  12.662  0.00  0.00    +0.000 A 
ATOM     37  C   UNK A   1       7.702   4.814  13.158  0.00  0.00    +0.000 A 
ATOM     38  C   UNK A   1       7.232   5.632  14.187  0.00  0.00    +0.000 A 
ENDBRANCH  32  33
ENDBRANCH  21  32
ENDBRANCH   1  21
TORSDOF 12
ENDMDL
MODEL 3
REMARK VINA RESULT:      -7.4      2.609      8.900
REMARK  Name = 
REMARK  13 active torsions:
REMARK  status: ('A' for Active; 'I' for Inactive)
REMARK    1  A    between atoms: C_1  and  C_2
REMARK    2  A    between atoms: C_2  and  N_3
REMARK    3  A    between atoms: C_2  and  C_25
REMARK    4  A    between atoms: N_3  and  C_4
REMARK    5  A    between atoms: C_4  and  C_5
REMARK    6  A    between atoms: C_4  and  C_8
REMARK    7  A    between atoms: C_5  and  O_7
REMARK    8  A    between atoms: C_8  and  C_9
REMARK    9  A    between atoms: C_8  and  N_16
REMARK   10  A    between atoms: C_9  and  C_10
REMARK   11  A    between atoms: C_17  and  C_19
REMARK   12  A    between atoms: CA_31  and  C_32
REMARK   13  A    between atoms: C_32  and  OXT_34
REMARK                            x       y       z     vdW  Elec       q    Type
REMARK                         _______ _______ _______ _____ _____    ______ ____
ROOT
ATOM      1  C   UNK A   1       1.905   8.411  20.188  0.00  0.00    +0.000 C 
ENDROOT
BRANCH   1   2
ATOM      2  N   UNK A   1       1.302   8.906  18.905  0.00  0.00    +0.000 NA
ATOM      3  H   UNK A   1       0.594   8.262  18.559  0.00  0.00    +0.000 HD
BRANCH   2   5
ATOM      4  C   UNK A   1       1.606  11.361  18.302  0.00  0.00    +0.000 C 
ATOM      5  C   UNK A   1       0.722  10.293  18.967  0.00  0.00    +0.000 C 
BRANCH   5   6
ATOM      6  C   UNK A   1      -0.703  10.271  18.306  0.00  0.00    +0.000 C 
ATOM      7  O   UNK A   1      -1.076   9.390  17.517  0.00  0.00    +0.000 OA
ATOM      8  N   PRO A   2      -1.618  11.246  18.665  0.00  0.00    +0.000 N 
ATOM      9  CD  PRO A   2      -1.391  12.443  19.453  0.00  0.00    +0.000 C 
ATOM     10  CG  PRO A   2      -2.645  12.509  20.301  0.00  0.00    +0.000 C 
ATOM     11  CB  PRO A   2      -3.747  12.067  19.344  0.00  0.00    +0.000 C 
ATOM     12  CA  PRO A   2      -3.050  11.142  18.329  0.00  0.00    +0.000 C 
BRANCH  12  13
ATOM     13  C   PRO A   2      -3.360  11.562  16.874  0.00  0.00    +0.000 C 
ATOM     14  O   PRO A   2      -4.473  11.656  16.398  0.00  0.00    +0.000 OA
BRANCH  13  15
ATOM     15  OXT PRO A   2      -2.243  11.752  16.125  0.00  0.00    +0.000 OA
ATOM     16  HXT PRO A   2      -1.816  12.625  16.299  0.00  0.00    +0.000 HD
ENDBRANCH  13  15
ENDBRANCH  12  13
ENDBRANCH   5   6
ENDBRANCH   2   5
ENDBRANCH   1   2
BRANCH   1  17
ATOM     17  C   UNK A   1       1.055   8.820  21.428  0.00  0.00    +0.000 C 
ATOM     18  O   UNK A   1      -0.167   8.715  21.473  0.00  0.00    +0.000 OA
BRANCH  17  19
ATOM     19  O   UNK A   1       1.720   9.252  22.524  0.00  0.00    +0.000 OA
ATOM     20  H   UNK A   1       1.617  10.196  22.731  0.00  0.00    +0.000 HD
ENDBRANCH  17  19
ENDBRANCH   1  17
BRANCH   1  21
ATOM     21  C   UNK A   1       2.262   6.875  20.195  0.00  0.00    +0.000 C 
BRANCH  21  22
ATOM     22  N   UNK A   1       2.808   6.470  18.877  0.00  0.00    +0.000 N 
ATOM     23  C   UNK A   1       4.022   5.797  18.793  0.00  0.00    +0.000 C 
ATOM     24  O   UNK A   1       4.678   5.460  19.771  0.00  0.00    +0.000 OA
ATOM     25  H   UNK A   1       2.557   7.030  18.065  0.00  0.00    +0.000 HD
BRANCH  23  26
ATOM     26  C   UNK A   1       4.557   5.544  17.440  0.00  0.00    +0.000 A 
ATOM     27  C   UNK A   1       4.730   4.212  17.040  0.00  0.00    +0.000 A 
ATOM     28  C   UNK A   1       5.273   3.922  15.790  0.00  0.00    +0.000 A 
ATOM     29  C   UNK A   1       5.621   4.962  14.929  0.00  0.00    +0.000 A 
ATOM     30  C   UNK A   1       5.406   6.290  15.306  0.00  0.00    +0.000 A 
ATOM     31  C   UNK A   1       4.869   6.586  16.561  0.00  0.00    +0.000 A 
ENDBRANCH  23  26
ENDBRANCH  21  22
BRANCH  21  32
ATOM     32  C   UNK A   1       1.090   5.965  20.619  0.00  0.00    +0.000 C 
BRANCH  32  33
ATOM     33  C   UNK A   1       1.391   4.477  20.507  0.00  0.00    +0.000 A 
ATOM     34  C   UNK A   1       0.974   3.737  19.393  0.00  0.00    +0.000 A 
ATOM     35  C   UNK A   1       1.359   2.400  19.247  0.00  0.00    +0.000 A 
ATOM     36  C   UNK A   1       2.138   1.783  20.225  0.00  0.00    +0.000 A 
ATOM     37  C   UNK A   1       2.514   2.493  21.362  0.00  0.00    +0.000 A 
ATOM     38  C   UNK A   1       2.143   3.832  21.501  0.00  0.00    +0.000 A 
ENDBRANCH  32  33
ENDBRANCH  21  32
ENDBRANCH   1  21
TORSDOF 12
ENDMDL
MODEL 4
REMARK VINA RESULT:      -7.4      2.019      2.781
REMARK  Name = 
REMARK  13 active torsions:
REMARK  status: ('A' for Active; 'I' for Inactive)
REMARK    1  A    between atoms: C_1  and  C_2
REMARK    2  A    between atoms: C_2  and  N_3
REMARK    3  A    between atoms: C_2  and  C_25
REMARK    4  A    between atoms: N_3  and  C_4
REMARK    5  A    between atoms: C_4  and  C_5
REMARK    6  A    between atoms: C_4  and  C_8
REMARK    7  A    between atoms: C_5  and  O_7
REMARK    8  A    between atoms: C_8  and  C_9
REMARK    9  A    between atoms: C_8  and  N_16
REMARK   10  A    between atoms: C_9  and  C_10
REMARK   11  A    between atoms: C_17  and  C_19
REMARK   12  A    between atoms: CA_31  and  C_32
REMARK   13  A    between atoms: C_32  and  OXT_34
REMARK                            x       y       z     vdW  Elec       q    Type
REMARK                         _______ _______ _______ _____ _____    ______ ____
ROOT
ATOM      1  C   UNK A   1       0.589   8.832  20.433  0.00  0.00    +0.000 C 
ENDROOT
BRANCH   1   2
ATOM      2  N   UNK A   1       1.940   8.230  20.177  0.00  0.00    +0.000 NA
ATOM      3  H   UNK A   1       2.261   7.690  20.978  0.00  0.00    +0.000 HD
BRANCH   2   5
ATOM      4  C   UNK A   1       2.444   8.171  17.682  0.00  0.00    +0.000 C 
ATOM      5  C   UNK A   1       2.036   7.383  18.937  0.00  0.00    +0.000 C 
BRANCH   5   6
ATOM      6  C   UNK A   1       3.051   6.215  19.205  0.00  0.00    +0.000 C 
ATOM      7  O   UNK A   1       4.281   6.368  19.220  0.00  0.00    +0.000 OA
ATOM      8  N   PRO A   2       2.554   4.957  19.505  0.00  0.00    +0.000 N 
ATOM      9  CD  PRO A   2       1.182   4.492  19.425  0.00  0.00    +0.000 C 
ATOM     10  CG  PRO A   2       1.065   3.627  20.663  0.00  0.00    +0.000 C 
ATOM     11  CB  PRO A   2       2.417   2.924  20.736  0.00  0.00    +0.000 C 
ATOM     12  CA  PRO A   2       3.406   3.884  20.050  0.00  0.00    +0.000 C 
BRANCH  12  13
ATOM     13  C   PRO A   2       4.235   3.162  18.964  0.00  0.00    +0.000 C 
ATOM     14  O   PRO A   2       3.820   2.275  18.246  0.00  0.00    +0.000 OA
BRANCH  13  15
ATOM     15  OXT PRO A   2       5.533   3.563  18.930  0.00  0.00    +0.000 OA
ATOM     16  HXT PRO A   2       6.067   3.053  18.275  0.00  0.00    +0.000 HD
ENDBRANCH  13  15
ENDBRANCH  12  13
ENDBRANCH   5   6
ENDBRANCH   2   5
ENDBRANCH   1   2
BRANCH   1  17
ATOM     17  C   UNK A   1       0.321   9.035  21.955  0.00  0.00    +0.000 C 
ATOM     18  O   UNK A   1       1.018   9.744  22.674  0.00  0.00    +0.000 OA
BRANCH  17  19
ATOM     19  O   UNK A   1      -0.777   8.442  22.478  0.00  0.00    +0.000 OA
ATOM     20  H   UNK A   1      -1.496   9.043  22.735  0.00  0.00    +0.000 HD
ENDBRANCH  17  19
ENDBRANCH   1  17
BRANCH   1  21
ATOM     21  C   UNK A   1       0.283  10.135  19.599  0.00  0.00    +0.000 C 
BRANCH  21  22
ATOM     22  N   UNK A   1       1.278  11.190  19.914  0.00  0.00    +0.000 N 
ATOM     23  C   UNK A   1       1.347  12.346  19.144  0.00  0.00    +0.000 C 
ATOM     24  O   UNK A   1       0.585  12.587  18.216  0.00  0.00    +0.000 OA
ATOM     25  H   UNK A   1       2.145  10.908  20.364  0.00  0.00    +0.000 HD
BRANCH  23  26
ATOM     26  C   UNK A   1       2.446  13.286  19.442  0.00  0.00    +0.000 A 
ATOM     27  C   UNK A   1       3.159  13.827  18.363  0.00  0.00    +0.000 A 
ATOM     28  C   UNK A   1       4.233  14.684  18.595  0.00  0.00    +0.000 A 
ATOM     29  C   UNK A   1       4.581  15.020  19.902  0.00  0.00    +0.000 A 
ATOM     30  C   UNK A   1       3.842  14.520  20.978  0.00  0.00    +0.000 A 
ATOM     31  C   UNK A   1       2.769  13.655  20.751  0.00  0.00    +0.000 A 
ENDBRANCH  23  26
ENDBRANCH  21  22
BRANCH  21  32
ATOM     32  C   UNK A   1      -1.159  10.658  19.768  0.00  0.00    +0.000 C 
BRANCH  32  33
ATOM     33  C   UNK A   1      -1.959  10.693  18.474  0.00  0.00    +0.000 A 
ATOM     34  C   UNK A   1      -1.592   9.905  17.375  0.00  0.00    +0.000 A 
ATOM     35  C   UNK A   1      -2.403   9.858  16.236  0.00  0.00    +0.000 A 
ATOM     36  C   UNK A   1      -3.570  10.617  16.173  0.00  0.00    +0.000 A 
ATOM     37  C   UNK A   1      -3.918  11.445  17.237  0.00  0.00    +0.000 A 
ATOM     38  C   UNK A   1      -3.117  11.481  18.380  0.00  0.00    +0.000 A 
ENDBRANCH  32  33
ENDBRANCH  21  32
ENDBRANCH   1  21
TORSDOF 12
ENDMDL
MODEL 5
REMARK VINA RESULT:      -7.3      3.674      9.768
REMARK  Name = 
REMARK  13 active torsions:
REMARK  status: ('A' for Active; 'I' for Inactive)
REMARK    1  A    between atoms: C_1  and  C_2
REMARK    2  A    between atoms: C_2  and  N_3
REMARK    3  A    between atoms: C_2  and  C_25
REMARK    4  A    between atoms: N_3  and  C_4
REMARK    5  A    between atoms: C_4  and  C_5
REMARK    6  A    between atoms: C_4  and  C_8
REMARK    7  A    between atoms: C_5  and  O_7
REMARK    8  A    between atoms: C_8  and  C_9
REMARK    9  A    between atoms: C_8  and  N_16
REMARK   10  A    between atoms: C_9  and  C_10
REMARK   11  A    between atoms: C_17  and  C_19
REMARK   12  A    between atoms: CA_31  and  C_32
REMARK   13  A    between atoms: C_32  and  OXT_34
REMARK                            x       y       z     vdW  Elec       q    Type
REMARK                         _______ _______ _______ _____ _____    ______ ____
ROOT
ATOM      1  C   UNK A   1       3.838   6.203  17.464  0.00  0.00    +0.000 C 
ENDROOT
BRANCH   1   2
ATOM      2  N   UNK A   1       3.563   6.555  18.897  0.00  0.00    +0.000 NA
ATOM      3  H   UNK A   1       4.214   7.260  19.234  0.00  0.00    +0.000 HD
BRANCH   2   5
ATOM      4  C   UNK A   1       1.808   7.015  20.683  0.00  0.00    +0.000 C 
ATOM      5  C   UNK A   1       2.156   6.999  19.185  0.00  0.00    +0.000 C 
BRANCH   5   6
ATOM      6  C   UNK A   1       1.942   8.424  18.558  0.00  0.00    +0.000 C 
ATOM      7  O   UNK A   1       2.281   8.720  17.403  0.00  0.00    +0.000 OA
ATOM      8  N   PRO A   2       1.284   9.387  19.305  0.00  0.00    +0.000 N 
ATOM      9  CD  PRO A   2       0.909   9.336  20.706  0.00  0.00    +0.000 C 
ATOM     10  CG  PRO A   2      -0.460   9.984  20.694  0.00  0.00    +0.000 C 
ATOM     11  CB  PRO A   2      -0.311  11.115  19.681  0.00  0.00    +0.000 C 
ATOM     12  CA  PRO A   2       0.784  10.639  18.708  0.00  0.00    +0.000 C 
BRANCH  12  13
ATOM     13  C   PRO A   2       1.887  11.707  18.532  0.00  0.00    +0.000 C 
ATOM     14  O   PRO A   2       2.141  12.585  19.332  0.00  0.00    +0.000 OA
BRANCH  13  15
ATOM     15  OXT PRO A   2       2.522  11.625  17.333  0.00  0.00    +0.000 OA
ATOM     16  HXT PRO A   2       3.141  12.379  17.183  0.00  0.00    +0.000 HD
ENDBRANCH  13  15
ENDBRANCH  12  13
ENDBRANCH   5   6
ENDBRANCH   2   5
ENDBRANCH   1   2
BRANCH   1  17
ATOM     17  C   UNK A   1       5.045   7.003  16.888  0.00  0.00    +0.000 C 
ATOM     18  O   UNK A   1       6.026   7.317  17.555  0.00  0.00    +0.000 OA
BRANCH  17  19
ATOM     19  O   UNK A   1       5.021   7.303  15.568  0.00  0.00    +0.000 OA
ATOM     20  H   UNK A   1       4.137   7.414  15.181  0.00  0.00    +0.000 HD
ENDBRANCH  17  19
ENDBRANCH   1  17
BRANCH   1  21
ATOM     21  C   UNK A   1       3.963   4.657  17.179  0.00  0.00    +0.000 C 
BRANCH  21  22
ATOM     22  N   UNK A   1       4.494   4.429  15.813  0.00  0.00    +0.000 N 
ATOM     23  C   UNK A   1       5.850   4.196  15.612  0.00  0.00    +0.000 C 
ATOM     24  O   UNK A   1       6.665   4.116  16.524  0.00  0.00    +0.000 OA
ATOM     25  H   UNK A   1       4.001   4.857  15.032  0.00  0.00    +0.000 HD
BRANCH  23  26
ATOM     26  C   UNK A   1       6.317   4.107  14.214  0.00  0.00    +0.000 A 
ATOM     27  C   UNK A   1       7.363   4.950  13.815  0.00  0.00    +0.000 A 
ATOM     28  C   UNK A   1       7.809   4.934  12.495  0.00  0.00    +0.000 A 
ATOM     29  C   UNK A   1       7.226   4.060  11.579  0.00  0.00    +0.000 A 
ATOM     30  C   UNK A   1       6.216   3.185  11.985  0.00  0.00    +0.000 A 
ATOM     31  C   UNK A   1       5.760   3.202  13.305  0.00  0.00    +0.000 A 
ENDBRANCH  23  26
ENDBRANCH  21  22
BRANCH  21  32
ATOM     32  C   UNK A   1       2.655   3.872  17.409  0.00  0.00    +0.000 C 
BRANCH  32  33
ATOM     33  C   UNK A   1       2.459   3.402  18.843  0.00  0.00    +0.000 A 
ATOM     34  C   UNK A   1       3.540   2.949  19.609  0.00  0.00    +0.000 A 
ATOM     35  C   UNK A   1       3.366   2.632  20.961  0.00  0.00    +0.000 A 
ATOM     36  C   UNK A   1       2.107   2.737  21.550  0.00  0.00    +0.000 A 
ATOM     37  C   UNK A   1       1.014   3.135  20.785  0.00  0.00    +0.000 A 
ATOM     38  C   UNK A   1       1.190   3.466  19.440  0.00  0.00    +0.000 A 
ENDBRANCH  32  33
ENDBRANCH  21  32
ENDBRANCH   1  21
TORSDOF 12
ENDMDL
MODEL 6
REMARK VINA RESULT:      -7.3      2.465      9.177
REMARK  Name = 
REMARK  13 active torsions:
REMARK  status: ('A' for Active; 'I' for Inactive)
REMARK    1  A    between atoms: C_1  and  C_2
REMARK    2  A    between atoms: C_2  and  N_3
REMARK    3  A    between atoms: C_2  and  C_25
REMARK    4  A    between atoms: N_3  and  C_4
REMARK    5  A    between atoms: C_4  and  C_5
REMARK    6  A    between atoms: C_4  and  C_8
REMARK    7  A    between atoms: C_5  and  O_7
REMARK    8  A    between atoms: C_8  and  C_9
REMARK    9  A    between atoms: C_8  and  N_16
REMARK   10  A    between atoms: C_9  and  C_10
REMARK   11  A    between atoms: C_17  and  C_19
REMARK   12  A    between atoms: CA_31  and  C_32
REMARK   13  A    between atoms: C_32  and  OXT_34
REMARK                            x       y       z     vdW  Elec       q    Type
REMARK                         _______ _______ _______ _____ _____    ______ ____
ROOT
ATOM      1  C   UNK A   1       1.603   8.158  19.361  0.00  0.00    +0.000 C 
ENDROOT
BRANCH   1   2
ATOM      2  N   UNK A   1       1.302   9.064  20.520  0.00  0.00    +0.000 NA
ATOM      3  H   UNK A   1       1.729   9.979  20.391  0.00  0.00    +0.000 HD
BRANCH   2   5
ATOM      4  C   UNK A   1      -0.449   9.473  22.322  0.00  0.00    +0.000 C 
ATOM      5  C   UNK A   1      -0.159   9.236  20.831  0.00  0.00    +0.000 C 
BRANCH   5   6
ATOM      6  C   UNK A   1      -0.718  10.425  19.969  0.00  0.00    +0.000 C 
ATOM      7  O   UNK A   1      -1.398  10.266  18.945  0.00  0.00    +0.000 OA
ATOM      8  N   PRO A   2      -0.499  11.722  20.403  0.00  0.00    +0.000 N 
ATOM      9  CD  PRO A   2       0.362  12.175  21.480  0.00  0.00    +0.000 C 
ATOM     10  CG  PRO A   2      -0.468  13.272  22.113  0.00  0.00    +0.000 C 
ATOM     11  CB  PRO A   2      -1.117  13.963  20.918  0.00  0.00    +0.000 C 
ATOM     12  CA  PRO A   2      -1.220  12.875  19.833  0.00  0.00    +0.000 C 
BRANCH  12  13
ATOM     13  C   PRO A   2      -0.624  13.356  18.491  0.00  0.00    +0.000 C 
ATOM     14  O   PRO A   2       0.215  14.225  18.373  0.00  0.00    +0.000 OA
BRANCH  13  15
ATOM     15  OXT PRO A   2      -1.191  12.756  17.411  0.00  0.00    +0.000 OA
ATOM     16  HXT PRO A   2      -1.421  13.401  16.700  0.00  0.00    +0.000 HD
ENDBRANCH  13  15
ENDBRANCH  12  13
ENDBRANCH   5   6
ENDBRANCH   2   5
ENDBRANCH   1   2
BRANCH   1  17
ATOM     17  C   UNK A   1       2.193   8.938  18.148  0.00  0.00    +0.000 C 
ATOM     18  O   UNK A   1       2.539   8.397  17.102  0.00  0.00    +0.000 OA
BRANCH  17  19
ATOM     19  O   UNK A   1       2.262  10.286  18.248  0.00  0.00    +0.000 OA
ATOM     20  H   UNK A   1       1.650  10.690  18.886  0.00  0.00    +0.000 HD
ENDBRANCH  17  19
ENDBRANCH   1  17
BRANCH   1  21
ATOM     21  C   UNK A   1       2.467   6.890  19.727  0.00  0.00    +0.000 C 
BRANCH  21  22
ATOM     22  N   UNK A   1       3.022   6.277  18.495  0.00  0.00    +0.000 N 
ATOM     23  C   UNK A   1       4.324   5.788  18.475  0.00  0.00    +0.000 C 
ATOM     24  O   UNK A   1       5.060   5.785  19.454  0.00  0.00    +0.000 OA
ATOM     25  H   UNK A   1       2.656   6.592  17.599  0.00  0.00    +0.000 HD
BRANCH  23  26
ATOM     26  C   UNK A   1       4.842   5.311  17.177  0.00  0.00    +0.000 A 
ATOM     27  C   UNK A   1       5.136   6.267  16.195  0.00  0.00    +0.000 A 
ATOM     28  C   UNK A   1       5.586   5.864  14.939  0.00  0.00    +0.000 A 
ATOM     29  C   UNK A   1       5.764   4.508  14.671  0.00  0.00    +0.000 A 
ATOM     30  C   UNK A   1       5.517   3.556  15.663  0.00  0.00    +0.000 A 
ATOM     31  C   UNK A   1       5.060   3.954  16.921  0.00  0.00    +0.000 A 
ENDBRANCH  23  26
ENDBRANCH  21  22
BRANCH  21  32
ATOM     32  C   UNK A   1       1.716   5.847  20.581  0.00  0.00    +0.000 C 
BRANCH  32  33
ATOM     33  C   UNK A   1       1.862   4.418  20.081  0.00  0.00    +0.000 A 
ATOM     34  C   UNK A   1       1.150   3.966  18.962  0.00  0.00    +0.000 A 
ATOM     35  C   UNK A   1       1.383   2.688  18.444  0.00  0.00    +0.000 A 
ATOM     36  C   UNK A   1       2.306   1.840  19.054  0.00  0.00    +0.000 A 
ATOM     37  C   UNK A   1       2.980   2.257  20.198  0.00  0.00    +0.000 A 
ATOM     38  C   UNK A   1       2.760   3.539  20.707  0.00  0.00    +0.000 A 
ENDBRANCH  32  33
ENDBRANCH  21  32
ENDBRANCH   1  21
TORSDOF 12
ENDMDL
MODEL 7
REMARK VINA RESULT:      -7.2      3.398      9.513
REMARK  Name = 
REMARK  13 active torsions:
REMARK  status: ('A' for Active; 'I' for Inactive)
REMARK    1  A    between atoms: C_1  and  C_2
REMARK    2  A    between atoms: C_2  and  N_3
REMARK    3  A    between atoms: C_2  and  C_25
REMARK    4  A    between atoms: N_3  and  C_4
REMARK    5  A    between atoms: C_4  and  C_5
REMARK    6  A    between atoms: C_4  and  C_8
REMARK    7  A    between atoms: C_5  and  O_7
REMARK    8  A    between atoms: C_8  and  C_9
REMARK    9  A    between atoms: C_8  and  N_16
REMARK   10  A    between atoms: C_9  and  C_10
REMARK   11  A    between atoms: C_17  and  C_19
REMARK   12  A    between atoms: CA_31  and  C_32
REMARK   13  A    between atoms: C_32  and  OXT_34
REMARK                            x       y       z     vdW  Elec       q    Type
REMARK                         _______ _______ _______ _____ _____    ______ ____
ROOT
ATOM      1  C   UNK A   1       4.873   5.388  18.363  0.00  0.00    +0.000 C 
ENDROOT
BRANCH   1   2
ATOM      2  N   UNK A   1       3.833   5.768  19.377  0.00  0.00    +0.000 NA
ATOM      3  H   UNK A   1       4.258   5.994  20.273  0.00  0.00    +0.000 HD
BRANCH   2   5
ATOM      4  C   UNK A   1       1.936   6.502  17.845  0.00  0.00    +0.000 C 
ATOM      5  C   UNK A   1       2.919   6.888  18.963  0.00  0.00    +0.000 C 
BRANCH   5   6
ATOM      6  C   UNK A   1       2.137   7.391  20.229  0.00  0.00    +0.000 C 
ATOM      7  O   UNK A   1       2.140   6.794  21.316  0.00  0.00    +0.000 OA
ATOM      8  N   PRO A   2       1.460   8.597  20.157  0.00  0.00    +0.000 N 
ATOM      9  CD  PRO A   2       1.197   9.411  18.985  0.00  0.00    +0.000 C 
ATOM     10  CG  PRO A   2       1.400  10.814  19.518  0.00  0.00    +0.000 C 
ATOM     11  CB  PRO A   2       0.798  10.754  20.919  0.00  0.00    +0.000 C 
ATOM     12  CA  PRO A   2       0.950   9.285  21.358  0.00  0.00    +0.000 C 
BRANCH  12  13
ATOM     13  C   PRO A   2      -0.390   8.705  21.863  0.00  0.00    +0.000 C 
ATOM     14  O   PRO A   2      -1.055   7.875  21.278  0.00  0.00    +0.000 OA
BRANCH  13  15
ATOM     15  OXT PRO A   2      -0.814   9.275  23.022  0.00  0.00    +0.000 OA
ATOM     16  HXT PRO A   2      -1.646   9.793  22.903  0.00  0.00    +0.000 HD
ENDBRANCH  13  15
ENDBRANCH  12  13
ENDBRANCH   5   6
ENDBRANCH   2   5
ENDBRANCH   1   2
BRANCH   1  17
ATOM     17  C   UNK A   1       6.312   5.749  18.841  0.00  0.00    +0.000 C 
ATOM     18  O   UNK A   1       6.821   5.286  19.857  0.00  0.00    +0.000 OA
BRANCH  17  19
ATOM     19  O   UNK A   1       7.044   6.568  18.051  0.00  0.00    +0.000 OA
ATOM     20  H   UNK A   1       6.661   6.760  17.179  0.00  0.00    +0.000 HD
ENDBRANCH  17  19
ENDBRANCH   1  17
BRANCH   1  21
ATOM     21  C   UNK A   1       4.777   3.901  17.848  0.00  0.00    +0.000 C 
BRANCH  21  22
ATOM     22  N   UNK A   1       5.491   3.759  16.556  0.00  0.00    +0.000 N 
ATOM     23  C   UNK A   1       5.449   4.779  15.611  0.00  0.00    +0.000 C 
ATOM     24  O   UNK A   1       4.879   5.848  15.794  0.00  0.00    +0.000 OA
ATOM     25  H   UNK A   1       5.626   2.821  16.186  0.00  0.00    +0.000 HD
BRANCH  23  26
ATOM     26  C   UNK A   1       6.078   4.508  14.303  0.00  0.00    +0.000 A 
ATOM     27  C   UNK A   1       7.251   5.204  13.981  0.00  0.00    +0.000 A 
ATOM     28  C   UNK A   1       7.857   5.016  12.740  0.00  0.00    +0.000 A 
ATOM     29  C   UNK A   1       7.305   4.116  11.830  0.00  0.00    +0.000 A 
ATOM     30  C   UNK A   1       6.163   3.386  12.167  0.00  0.00    +0.000 A 
ATOM     31  C   UNK A   1       5.547   3.576  13.406  0.00  0.00    +0.000 A 
ENDBRANCH  23  26
ENDBRANCH  21  22
BRANCH  21  32
ATOM     32  C   UNK A   1       3.332   3.367  17.750  0.00  0.00    +0.000 C 
BRANCH  32  33
ATOM     33  C   UNK A   1       2.691   3.067  19.096  0.00  0.00    +0.000 A 
ATOM     34  C   UNK A   1       3.451   2.577  20.166  0.00  0.00    +0.000 A 
ATOM     35  C   UNK A   1       2.873   2.417  21.430  0.00  0.00    +0.000 A 
ATOM     36  C   UNK A   1       1.526   2.717  21.630  0.00  0.00    +0.000 A 
ATOM     37  C   UNK A   1       0.747   3.154  20.561  0.00  0.00    +0.000 A 
ATOM     38  C   UNK A   1       1.327   3.328  19.303  0.00  0.00    +0.000 A 
ENDBRANCH  32  33
ENDBRANCH  21  32
ENDBRANCH   1  21
TORSDOF 12
ENDMDL
MODEL 8
REMARK VINA RESULT:      -7.2      1.962      4.118
REMARK  Name = 
REMARK  13 active torsions:
REMARK  status: ('A' for Active; 'I' for Inactive)
REMARK    1  A    between atoms: C_1  and  C_2
REMARK    2  A    between atoms: C_2  and  N_3
REMARK    3  A    between atoms: C_2  and  C_25
REMARK    4  A    between atoms: N_3  and  C_4
REMARK    5  A    between atoms: C_4  and  C_5
REMARK    6  A    between atoms: C_4  and  C_8
REMARK    7  A    between atoms: C_5  and  O_7
REMARK    8  A    between atoms: C_8  and  C_9
REMARK    9  A    between atoms: C_8  and  N_16
REMARK   10  A    between atoms: C_9  and  C_10
REMARK   11  A    between atoms: C_17  and  C_19
REMARK   12  A    between atoms: CA_31  and  C_32
REMARK   13  A    between atoms: C_32  and  OXT_34
REMARK                            x       y       z     vdW  Elec       q    Type
REMARK                         _______ _______ _______ _____ _____    ______ ____
ROOT
ATOM      1  C   UNK A   1       0.691   8.939  20.705  0.00  0.00    +0.000 C 
ENDROOT
BRANCH   1   2
ATOM      2  N   UNK A   1       1.985   8.254  20.372  0.00  0.00    +0.000 NA
ATOM      3  H   UNK A   1       2.351   7.749  21.176  0.00  0.00    +0.000 HD
BRANCH   2   5
ATOM      4  C   UNK A   1       2.171   8.035  17.843  0.00  0.00    +0.000 C 
ATOM      5  C   UNK A   1       1.930   7.329  19.187  0.00  0.00    +0.000 C 
BRANCH   5   6
ATOM      6  C   UNK A   1       2.980   6.180  19.400  0.00  0.00    +0.000 C 
ATOM      7  O   UNK A   1       4.206   6.367  19.403  0.00  0.00    +0.000 OA
ATOM      8  N   PRO A   2       2.521   4.900  19.660  0.00  0.00    +0.000 N 
ATOM      9  CD  PRO A   2       1.161   4.400  19.582  0.00  0.00    +0.000 C 
ATOM     10  CG  PRO A   2       1.085   3.489  20.790  0.00  0.00    +0.000 C 
ATOM     11  CB  PRO A   2       2.456   2.821  20.819  0.00  0.00    +0.000 C 
ATOM     12  CA  PRO A   2       3.410   3.832  20.155  0.00  0.00    +0.000 C 
BRANCH  12  13
ATOM     13  C   PRO A   2       4.242   3.171  19.033  0.00  0.00    +0.000 C 
ATOM     14  O   PRO A   2       3.828   2.330  18.262  0.00  0.00    +0.000 OA
BRANCH  13  15
ATOM     15  OXT PRO A   2       5.541   3.569  19.029  0.00  0.00    +0.000 OA
ATOM     16  HXT PRO A   2       5.930   3.573  18.121  0.00  0.00    +0.000 HD
ENDBRANCH  13  15
ENDBRANCH  12  13
ENDBRANCH   5   6
ENDBRANCH   2   5
ENDBRANCH   1   2
BRANCH   1  17
ATOM     17  C   UNK A   1       0.405   8.932  22.237  0.00  0.00    +0.000 C 
ATOM     18  O   UNK A   1       1.167   9.417  23.068  0.00  0.00    +0.000 OA
BRANCH  17  19
ATOM     19  O   UNK A   1      -0.777   8.416  22.647  0.00  0.00    +0.000 OA
ATOM     20  H   UNK A   1      -1.182   8.855  23.414  0.00  0.00    +0.000 HD
ENDBRANCH  17  19
ENDBRANCH   1  17
BRANCH   1  21
ATOM     21  C   UNK A   1       0.530  10.378  20.080  0.00  0.00    +0.000 C 
BRANCH  21  22
ATOM     22  N   UNK A   1      -0.360  10.324  18.894  0.00  0.00    +0.000 N 
ATOM     23  C   UNK A   1      -1.557  11.031  18.878  0.00  0.00    +0.000 C 
ATOM     24  O   UNK A   1      -1.923  11.763  19.790  0.00  0.00    +0.000 OA
ATOM     25  H   UNK A   1      -0.336   9.485  18.318  0.00  0.00    +0.000 HD
BRANCH  23  26
ATOM     26  C   UNK A   1      -2.444  10.823  17.716  0.00  0.00    +0.000 A 
ATOM     27  C   UNK A   1      -2.015   9.947  16.710  0.00  0.00    +0.000 A 
ATOM     28  C   UNK A   1      -2.797   9.752  15.573  0.00  0.00    +0.000 A 
ATOM     29  C   UNK A   1      -4.018  10.414  15.452  0.00  0.00    +0.000 A 
ATOM     30  C   UNK A   1      -4.470  11.251  16.475  0.00  0.00    +0.000 A 
ATOM     31  C   UNK A   1      -3.687  11.455  17.613  0.00  0.00    +0.000 A 
ENDBRANCH  23  26
ENDBRANCH  21  22
BRANCH  21  32
ATOM     32  C   UNK A   1       1.870  11.065  19.742  0.00  0.00    +0.000 C 
BRANCH  32  33
ATOM     33  C   UNK A   1       1.807  12.585  19.761  0.00  0.00    +0.000 A 
ATOM     34  C   UNK A   1       1.325  13.302  18.658  0.00  0.00    +0.000 A 
ATOM     35  C   UNK A   1       1.162  14.690  18.733  0.00  0.00    +0.000 A 
ATOM     36  C   UNK A   1       1.507  15.376  19.897  0.00  0.00    +0.000 A 
ATOM     37  C   UNK A   1       2.038  14.680  20.980  0.00  0.00    +0.000 A 
ATOM     38  C   UNK A   1       2.185  13.294  20.912  0.00  0.00    +0.000 A 
ENDBRANCH  32  33
ENDBRANCH  21  32
ENDBRANCH   1  21
TORSDOF 12
ENDMDL
MODEL 9
REMARK VINA RESULT:      -7.2      5.147      9.139
REMARK  Name = 
REMARK  13 active torsions:
REMARK  status: ('A' for Active; 'I' for Inactive)
REMARK    1  A    between atoms: C_1  and  C_2
REMARK    2  A    between atoms: C_2  and  N_3
REMARK    3  A    between atoms: C_2  and  C_25
REMARK    4  A    between atoms: N_3  and  C_4
REMARK    5  A    between atoms: C_4  and  C_5
REMARK    6  A    between atoms: C_4  and  C_8
REMARK    7  A    between atoms: C_5  and  O_7
REMARK    8  A    between atoms: C_8  and  C_9
REMARK    9  A    between atoms: C_8  and  N_16
REMARK   10  A    between atoms: C_9  and  C_10
REMARK   11  A    between atoms: C_17  and  C_19
REMARK   12  A    between atoms: CA_31  and  C_32
REMARK   13  A    between atoms: C_32  and  OXT_34
REMARK                            x       y       z     vdW  Elec       q    Type
REMARK                         _______ _______ _______ _____ _____    ______ ____
ROOT
ATOM      1  C   UNK A   1       5.919   6.355  18.595  0.00  0.00    +0.000 C 
ENDROOT
BRANCH   1   2
ATOM      2  N   UNK A   1       4.545   6.074  18.059  0.00  0.00    +0.000 NA
ATOM      3  H   UNK A   1       4.360   5.074  18.028  0.00  0.00    +0.000 HD
BRANCH   2   5
ATOM      4  C   UNK A   1       2.440   7.491  17.854  0.00  0.00    +0.000 C 
ATOM      5  C   UNK A   1       3.424   6.765  18.786  0.00  0.00    +0.000 C 
BRANCH   5   6
ATOM      6  C   UNK A   1       2.667   5.703  19.662  0.00  0.00    +0.000 C 
ATOM      7  O   UNK A   1       2.115   5.975  20.739  0.00  0.00    +0.000 OA
ATOM      8  N   PRO A   2       2.549   4.409  19.185  0.00  0.00    +0.000 N 
ATOM      9  CD  PRO A   2       3.204   3.812  18.036  0.00  0.00    +0.000 C 
ATOM     10  CG  PRO A   2       2.100   2.959  17.445  0.00  0.00    +0.000 C 
ATOM     11  CB  PRO A   2       1.394   2.391  18.672  0.00  0.00    +0.000 C 
ATOM     12  CA  PRO A   2       1.622   3.431  19.784  0.00  0.00    +0.000 C 
BRANCH  12  13
ATOM     13  C   PRO A   2       2.183   2.775  21.066  0.00  0.00    +0.000 C 
ATOM     14  O   PRO A   2       1.571   2.644  22.107  0.00  0.00    +0.000 OA
BRANCH  13  15
ATOM     15  OXT PRO A   2       3.488   2.413  20.952  0.00  0.00    +0.000 OA
ATOM     16  HXT PRO A   2       3.817   2.481  20.024  0.00  0.00    +0.000 HD
ENDBRANCH  13  15
ENDBRANCH  12  13
ENDBRANCH   5   6
ENDBRANCH   2   5
ENDBRANCH   1   2
BRANCH   1  17
ATOM     17  C   UNK A   1       6.573   5.086  19.218  0.00  0.00    +0.000 C 
ATOM     18  O   UNK A   1       7.099   5.073  20.327  0.00  0.00    +0.000 OA
BRANCH  17  19
ATOM     19  O   UNK A   1       6.493   3.934  18.512  0.00  0.00    +0.000 OA
ATOM     20  H   UNK A   1       7.344   3.540  18.255  0.00  0.00    +0.000 HD
ENDBRANCH  17  19
ENDBRANCH   1  17
BRANCH   1  21
ATOM     21  C   UNK A   1       6.884   7.080  17.580  0.00  0.00    +0.000 C 
BRANCH  21  22
ATOM     22  N   UNK A   1       7.082   6.241  16.373  0.00  0.00    +0.000 N 
ATOM     23  C   UNK A   1       6.114   6.201  15.375  0.00  0.00    +0.000 C 
ATOM     24  O   UNK A   1       5.089   6.872  15.400  0.00  0.00    +0.000 OA
ATOM     25  H   UNK A   1       7.657   5.406  16.462  0.00  0.00    +0.000 HD
BRANCH  23  26
ATOM     26  C   UNK A   1       6.327   5.245  14.270  0.00  0.00    +0.000 A 
ATOM     27  C   UNK A   1       7.469   5.404  13.474  0.00  0.00    +0.000 A 
ATOM     28  C   UNK A   1       7.691   4.554  12.392  0.00  0.00    +0.000 A 
ATOM     29  C   UNK A   1       6.785   3.530  12.120  0.00  0.00    +0.000 A 
ATOM     30  C   UNK A   1       5.671   3.339  12.941  0.00  0.00    +0.000 A 
ATOM     31  C   UNK A   1       5.440   4.193  14.022  0.00  0.00    +0.000 A 
ENDBRANCH  23  26
ENDBRANCH  21  22
BRANCH  21  32
ATOM     32  C   UNK A   1       8.235   7.501  18.196  0.00  0.00    +0.000 C 
BRANCH  32  33
ATOM     33  C   UNK A   1       8.461   9.005  18.221  0.00  0.00    +0.000 A 
ATOM     34  C   UNK A   1       7.765   9.857  17.354  0.00  0.00    +0.000 A 
ATOM     35  C   UNK A   1       7.894  11.245  17.469  0.00  0.00    +0.000 A 
ATOM     36  C   UNK A   1       8.742  11.794  18.430  0.00  0.00    +0.000 A 
ATOM     37  C   UNK A   1       9.481  10.957  19.262  0.00  0.00    +0.000 A 
ATOM     38  C   UNK A   1       9.339   9.572  19.159  0.00  0.00    +0.000 A 
ENDBRANCH  32  33
ENDBRANCH  21  32
ENDBRANCH   1  21
TORSDOF 12
ENDMDL
