MODEL 1
REMARK VINA RESULT:      -6.9      0.000      0.000
REMARK  Name = 
REMARK  6 active torsions:
REMARK  status: ('A' for Active; 'I' for Inactive)
REMARK    1  A    between atoms: C_2  and  C_14
REMARK    2  A    between atoms: N_3  and  C_4
REMARK    3  A    between atoms: C_4  and  C_5
REMARK    4  A    between atoms: C_5  and  C_6
REMARK    5  A    between atoms: C_6  and  N_7
REMARK    6  A    between atoms: N_7  and  C_8
REMARK                            x       y       z     vdW  Elec       q    Type
REMARK                         _______ _______ _______ _____ _____    ______ ____
ROOT
ATOM      1  C   UNL     1       3.018   3.502  19.142  0.00  0.00    +0.000 C 
ENDROOT
BRANCH   1   4
ATOM      2  O   UNL     1       5.767   3.796  19.366  0.00  0.00    +0.000 OA
ATOM      3  C   UNL     1       5.261   4.109  18.288  0.00  0.00    +0.000 C 
ATOM      4  N   UNL     1       3.896   3.995  18.102  0.00  0.00    +0.000 N 
ATOM      5  H   UNL     1       3.496   4.204  17.197  0.00  0.00    +0.000 HD
BRANCH   3   6
ATOM      6  C   UNL     1       6.023   4.608  17.161  0.00  0.00    +0.000 A 
ATOM      7  S   UNL     1       5.725   3.932  15.598  0.00  0.00    +0.000 S 
ATOM      8  C   UNL     1       6.908   4.967  14.930  0.00  0.00    +0.000 A 
ATOM      9  N   UNL     1       7.509   5.773  15.772  0.00  0.00    +0.000 NA
ATOM     10  C   UNL     1       7.013   5.570  17.048  0.00  0.00    +0.000 A 
ATOM     11 CL   UNL     1       7.670   6.522  18.321  0.00  0.00    +0.000 Cl
ENDBRANCH   3   6
ENDBRANCH   1   4
BRANCH   1  12
ATOM     12  C   UNL     1       1.748   4.337  19.255  0.00  0.00    +0.000 C 
BRANCH  12  13
ATOM     13  C   UNL     1       1.780   5.172  20.534  0.00  0.00    +0.000 C 
BRANCH  13  14
ATOM     14  N   UNL     1       2.646   6.331  20.345  0.00  0.00    +0.000 N 
ATOM     15  H   UNL     1       3.156   6.590  21.187  0.00  0.00    +0.000 HD
BRANCH  14  16
ATOM     16  C   UNL     1       2.123   7.455  19.692  0.00  0.00    +0.000 A 
ATOM     17  C   UNL     1       1.353   8.367  20.427  0.00  0.00    +0.000 A 
ATOM     18  C   UNL     1       0.872   9.545  19.852  0.00  0.00    +0.000 A 
ATOM     19  C   UNL     1       1.183   9.852  18.531  0.00  0.00    +0.000 A 
ATOM     20  C   UNL     1       1.967   8.975  17.789  0.00  0.00    +0.000 A 
ATOM     21  C   UNL     1       2.438   7.791  18.368  0.00  0.00    +0.000 A 
ENDBRANCH  14  16
ENDBRANCH  13  14
ENDBRANCH  12  13
ENDBRANCH   1  12
TORSDOF 6
ENDMDL
MODEL 2
REMARK VINA RESULT:      -6.9      1.668      2.511
REMARK  Name = 
REMARK  6 active torsions:
REMARK  status: ('A' for Active; 'I' for Inactive)
REMARK    1  A    between atoms: C_2  and  C_14
REMARK    2  A    between atoms: N_3  and  C_4
REMARK    3  A    between atoms: C_4  and  C_5
REMARK    4  A    between atoms: C_5  and  C_6
REMARK    5  A    between atoms: C_6  and  N_7
REMARK    6  A    between atoms: N_7  and  C_8
REMARK                            x       y       z     vdW  Elec       q    Type
REMARK                         _______ _______ _______ _____ _____    ______ ____
ROOT
ATOM      1  C   UNL     1       4.091   2.324  19.184  0.00  0.00    +0.000 C 
ENDROOT
BRANCH   1   4
ATOM      2  O   UNL     1       5.332   4.799  19.351  0.00  0.00    +0.000 OA
ATOM      3  C   UNL     1       5.425   4.203  18.278  0.00  0.00    +0.000 C 
ATOM      4  N   UNL     1       4.830   2.966  18.116  0.00  0.00    +0.000 N 
ATOM      5  H   UNL     1       4.956   2.460  17.250  0.00  0.00    +0.000 HD
BRANCH   3   6
ATOM      6  C   UNL     1       6.141   4.726  17.131  0.00  0.00    +0.000 A 
ATOM      7  S   UNL     1       5.850   4.016  15.582  0.00  0.00    +0.000 S 
ATOM      8  C   UNL     1       6.966   5.101  14.881  0.00  0.00    +0.000 A 
ATOM      9  N   UNL     1       7.540   5.946  15.702  0.00  0.00    +0.000 NA
ATOM     10  C   UNL     1       7.079   5.735  16.989  0.00  0.00    +0.000 A 
ATOM     11 CL   UNL     1       7.709   6.735  18.238  0.00  0.00    +0.000 Cl
ENDBRANCH   3   6
ENDBRANCH   1   4
BRANCH   1  12
ATOM     12  C   UNL     1       2.856   1.599  18.663  0.00  0.00    +0.000 C 
BRANCH  12  13
ATOM     13  C   UNL     1       1.633   1.981  19.496  0.00  0.00    +0.000 C 
BRANCH  13  14
ATOM     14  N   UNL     1       0.967   3.132  18.897  0.00  0.00    +0.000 N 
ATOM     15  H   UNL     1       0.723   2.988  17.920  0.00  0.00    +0.000 HD
BRANCH  14  16
ATOM     16  C   UNL     1       1.515   4.404  19.109  0.00  0.00    +0.000 A 
ATOM     17  C   UNL     1       1.936   5.153  18.002  0.00  0.00    +0.000 A 
ATOM     18  C   UNL     1       2.416   6.457  18.142  0.00  0.00    +0.000 A 
ATOM     19  C   UNL     1       2.453   7.053  19.399  0.00  0.00    +0.000 A 
ATOM     20  C   UNL     1       2.016   6.338  20.510  0.00  0.00    +0.000 A 
ATOM     21  C   UNL     1       1.545   5.029  20.363  0.00  0.00    +0.000 A 
ENDBRANCH  14  16
ENDBRANCH  13  14
ENDBRANCH  12  13
ENDBRANCH   1  12
TORSDOF 6
ENDMDL
MODEL 3
REMARK VINA RESULT:      -6.7      3.412      6.605
REMARK  Name = 
REMARK  6 active torsions:
REMARK  status: ('A' for Active; 'I' for Inactive)
REMARK    1  A    between atoms: C_2  and  C_14
REMARK    2  A    between atoms: N_3  and  C_4
REMARK    3  A    between atoms: C_4  and  C_5
REMARK    4  A    between atoms: C_5  and  C_6
REMARK    5  A    between atoms: C_6  and  N_7
REMARK    6  A    between atoms: N_7  and  C_8
REMARK                            x       y       z     vdW  Elec       q    Type
REMARK                         _______ _______ _______ _____ _____    ______ ____
ROOT
ATOM      1  C   UNL     1       7.337   4.662  18.475  0.00  0.00    +0.000 C 
ENDROOT
BRANCH   1   4
ATOM      2  O   UNL     1       5.007   5.317  19.831  0.00  0.00    +0.000 OA
ATOM      3  C   UNL     1       4.912   4.475  18.939  0.00  0.00    +0.000 C 
ATOM      4  N   UNL     1       6.030   4.093  18.221  0.00  0.00    +0.000 N 
ATOM      5  H   UNL     1       5.934   3.440  17.455  0.00  0.00    +0.000 HD
BRANCH   3   6
ATOM      6  C   UNL     1       3.665   3.831  18.575  0.00  0.00    +0.000 A 
ATOM      7  S   UNL     1       3.584   2.105  18.618  0.00  0.00    +0.000 S 
ATOM      8  C   UNL     1       1.956   2.174  18.108  0.00  0.00    +0.000 A 
ATOM      9  N   UNL     1       1.467   3.373  17.906  0.00  0.00    +0.000 NA
ATOM     10  C   UNL     1       2.438   4.325  18.165  0.00  0.00    +0.000 A 
ATOM     11 CL   UNL     1       2.014   5.978  17.956  0.00  0.00    +0.000 Cl
ENDBRANCH   3   6
ENDBRANCH   1   4
BRANCH   1  12
ATOM     12  C   UNL     1       7.509   6.015  17.795  0.00  0.00    +0.000 C 
BRANCH  12  13
ATOM     13  C   UNL     1       6.720   6.050  16.487  0.00  0.00    +0.000 C 
BRANCH  13  14
ATOM     14  N   UNL     1       7.574   5.622  15.384  0.00  0.00    +0.000 N 
ATOM     15  H   UNL     1       8.215   6.348  15.070  0.00  0.00    +0.000 HD
BRANCH  14  16
ATOM     16  C   UNL     1       6.983   4.954  14.304  0.00  0.00    +0.000 A 
ATOM     17  C   UNL     1       7.673   4.893  13.086  0.00  0.00    +0.000 A 
ATOM     18  C   UNL     1       7.173   4.174  11.998  0.00  0.00    +0.000 A 
ATOM     19  C   UNL     1       5.979   3.471  12.120  0.00  0.00    +0.000 A 
ATOM     20  C   UNL     1       5.288   3.495  13.327  0.00  0.00    +0.000 A 
ATOM     21  C   UNL     1       5.790   4.225  14.410  0.00  0.00    +0.000 A 
ENDBRANCH  14  16
ENDBRANCH  13  14
ENDBRANCH  12  13
ENDBRANCH   1  12
TORSDOF 6
ENDMDL
MODEL 4
REMARK VINA RESULT:      -6.7      2.154      2.648
REMARK  Name = 
REMARK  6 active torsions:
REMARK  status: ('A' for Active; 'I' for Inactive)
REMARK    1  A    between atoms: C_2  and  C_14
REMARK    2  A    between atoms: N_3  and  C_4
REMARK    3  A    between atoms: C_4  and  C_5
REMARK    4  A    between atoms: C_5  and  C_6
REMARK    5  A    between atoms: C_6  and  N_7
REMARK    6  A    between atoms: N_7  and  C_8
REMARK                            x       y       z     vdW  Elec       q    Type
REMARK                         _______ _______ _______ _____ _____    ______ ____
ROOT
ATOM      1  C   UNL     1       4.180   2.201  19.900  0.00  0.00    +0.000 C 
ENDROOT
BRANCH   1   4
ATOM      2  O   UNL     1       4.258   3.108  17.280  0.00  0.00    +0.000 OA
ATOM      3  C   UNL     1       5.033   3.639  18.075  0.00  0.00    +0.000 C 
ATOM      4  N   UNL     1       5.056   3.238  19.397  0.00  0.00    +0.000 N 
ATOM      5  H   UNL     1       5.659   3.714  20.055  0.00  0.00    +0.000 HD
BRANCH   3   6
ATOM      6  C   UNL     1       5.959   4.693  17.708  0.00  0.00    +0.000 A 
ATOM      7  S   UNL     1       6.656   5.655  18.965  0.00  0.00    +0.000 S 
ATOM      8  C   UNL     1       7.520   6.548  17.794  0.00  0.00    +0.000 A 
ATOM      9  N   UNL     1       7.333   6.194  16.546  0.00  0.00    +0.000 NA
ATOM     10  C   UNL     1       6.439   5.139  16.488  0.00  0.00    +0.000 A 
ATOM     11 CL   UNL     1       6.039   4.515  14.937  0.00  0.00    +0.000 Cl
ENDBRANCH   3   6
ENDBRANCH   1   4
BRANCH   1  12
ATOM     12  C   UNL     1       3.161   2.750  20.892  0.00  0.00    +0.000 C 
BRANCH  12  13
ATOM     13  C   UNL     1       1.743   2.471  20.399  0.00  0.00    +0.000 C 
BRANCH  13  14
ATOM     14  N   UNL     1       0.941   3.686  20.489  0.00  0.00    +0.000 N 
ATOM     15  H   UNL     1      -0.048   3.526  20.309  0.00  0.00    +0.000 HD
BRANCH  14  16
ATOM     16  C   UNL     1       1.402   4.838  19.839  0.00  0.00    +0.000 A 
ATOM     17  C   UNL     1       1.677   5.981  20.603  0.00  0.00    +0.000 A 
ATOM     18  C   UNL     1       2.215   7.133  20.025  0.00  0.00    +0.000 A 
ATOM     19  C   UNL     1       2.520   7.153  18.667  0.00  0.00    +0.000 A 
ATOM     20  C   UNL     1       2.280   6.022  17.894  0.00  0.00    +0.000 A 
ATOM     21  C   UNL     1       1.732   4.874  18.478  0.00  0.00    +0.000 A 
ENDBRANCH  14  16
ENDBRANCH  13  14
ENDBRANCH  12  13
ENDBRANCH   1  12
TORSDOF 6
ENDMDL
MODEL 5
REMARK VINA RESULT:      -6.6      1.780      1.940
REMARK  Name = 
REMARK  6 active torsions:
REMARK  status: ('A' for Active; 'I' for Inactive)
REMARK    1  A    between atoms: C_2  and  C_14
REMARK    2  A    between atoms: N_3  and  C_4
REMARK    3  A    between atoms: C_4  and  C_5
REMARK    4  A    between atoms: C_5  and  C_6
REMARK    5  A    between atoms: C_6  and  N_7
REMARK    6  A    between atoms: N_7  and  C_8
REMARK                            x       y       z     vdW  Elec       q    Type
REMARK                         _______ _______ _______ _____ _____    ______ ____
ROOT
ATOM      1  C   UNL     1       2.876   2.710  19.802  0.00  0.00    +0.000 C 
ENDROOT
BRANCH   1   4
ATOM      2  O   UNL     1       3.475   3.427  17.191  0.00  0.00    +0.000 OA
ATOM      3  C   UNL     1       4.302   3.725  18.052  0.00  0.00    +0.000 C 
ATOM      4  N   UNL     1       4.077   3.397  19.375  0.00  0.00    +0.000 N 
ATOM      5  H   UNL     1       4.736   3.691  20.083  0.00  0.00    +0.000 HD
BRANCH   3   6
ATOM      6  C   UNL     1       5.542   4.419  17.765  0.00  0.00    +0.000 A 
ATOM      7  S   UNL     1       6.270   5.361  19.018  0.00  0.00    +0.000 S 
ATOM      8  C   UNL     1       7.539   5.783  17.957  0.00  0.00    +0.000 A 
ATOM      9  N   UNL     1       7.467   5.285  16.747  0.00  0.00    +0.000 NA
ATOM     10  C   UNL     1       6.326   4.510  16.627  0.00  0.00    +0.000 A 
ATOM     11 CL   UNL     1       6.025   3.760  15.110  0.00  0.00    +0.000 Cl
ENDBRANCH   3   6
ENDBRANCH   1   4
BRANCH   1  12
ATOM     12  C   UNL     1       2.279   3.336  21.058  0.00  0.00    +0.000 C 
BRANCH  12  13
ATOM     13  C   UNL     1       1.524   4.614  20.699  0.00  0.00    +0.000 C 
BRANCH  13  14
ATOM     14  N   UNL     1       2.437   5.751  20.727  0.00  0.00    +0.000 N 
ATOM     15  H   UNL     1       2.693   6.036  21.670  0.00  0.00    +0.000 HD
BRANCH  14  16
ATOM     16  C   UNL     1       2.149   6.857  19.916  0.00  0.00    +0.000 A 
ATOM     17  C   UNL     1       1.501   7.962  20.483  0.00  0.00    +0.000 A 
ATOM     18  C   UNL     1       1.259   9.124  19.747  0.00  0.00    +0.000 A 
ATOM     19  C   UNL     1       1.694   9.215  18.428  0.00  0.00    +0.000 A 
ATOM     20  C   UNL     1       2.363   8.140  17.851  0.00  0.00    +0.000 A 
ATOM     21  C   UNL     1       2.593   6.975  18.592  0.00  0.00    +0.000 A 
ENDBRANCH  14  16
ENDBRANCH  13  14
ENDBRANCH  12  13
ENDBRANCH   1  12
TORSDOF 6
ENDMDL
MODEL 6
REMARK VINA RESULT:      -6.6      3.531      6.770
REMARK  Name = 
REMARK  6 active torsions:
REMARK  status: ('A' for Active; 'I' for Inactive)
REMARK    1  A    between atoms: C_2  and  C_14
REMARK    2  A    between atoms: N_3  and  C_4
REMARK    3  A    between atoms: C_4  and  C_5
REMARK    4  A    between atoms: C_5  and  C_6
REMARK    5  A    between atoms: C_6  and  N_7
REMARK    6  A    between atoms: N_7  and  C_8
REMARK                            x       y       z     vdW  Elec       q    Type
REMARK                         _______ _______ _______ _____ _____    ______ ____
ROOT
ATOM      1  C   UNL     1       6.765   5.305  19.318  0.00  0.00    +0.000 C 
ENDROOT
BRANCH   1   4
ATOM      2  O   UNL     1       4.103   6.077  19.426  0.00  0.00    +0.000 OA
ATOM      3  C   UNL     1       4.327   4.882  19.236  0.00  0.00    +0.000 C 
ATOM      4  N   UNL     1       5.628   4.420  19.174  0.00  0.00    +0.000 N 
ATOM      5  H   UNL     1       5.804   3.446  18.965  0.00  0.00    +0.000 HD
BRANCH   3   6
ATOM      6  C   UNL     1       3.285   3.889  19.066  0.00  0.00    +0.000 A 
ATOM      7  S   UNL     1       3.596   2.531  18.043  0.00  0.00    +0.000 S 
ATOM      8  C   UNL     1       2.031   1.933  18.369  0.00  0.00    +0.000 A 
ATOM      9  N   UNL     1       1.294   2.658  19.174  0.00  0.00    +0.000 NA
ATOM     10  C   UNL     1       2.000   3.780  19.572  0.00  0.00    +0.000 A 
ATOM     11 CL   UNL     1       1.217   4.883  20.633  0.00  0.00    +0.000 Cl
ENDBRANCH   3   6
ENDBRANCH   1   4
BRANCH   1  12
ATOM     12  C   UNL     1       7.744   5.167  18.158  0.00  0.00    +0.000 C 
BRANCH  12  13
ATOM     13  C   UNL     1       7.032   4.590  16.936  0.00  0.00    +0.000 C 
BRANCH  13  14
ATOM     14  N   UNL     1       7.280   5.437  15.775  0.00  0.00    +0.000 N 
ATOM     15  H   UNL     1       6.940   6.389  15.895  0.00  0.00    +0.000 HD
BRANCH  14  16
ATOM     16  C   UNL     1       6.968   4.935  14.505  0.00  0.00    +0.000 A 
ATOM     17  C   UNL     1       7.771   5.301  13.416  0.00  0.00    +0.000 A 
ATOM     18  C   UNL     1       7.559   4.771  12.141  0.00  0.00    +0.000 A 
ATOM     19  C   UNL     1       6.552   3.833  11.937  0.00  0.00    +0.000 A 
ATOM     20  C   UNL     1       5.758   3.434  13.008  0.00  0.00    +0.000 A 
ATOM     21  C   UNL     1       5.970   3.976  14.280  0.00  0.00    +0.000 A 
ENDBRANCH  14  16
ENDBRANCH  13  14
ENDBRANCH  12  13
ENDBRANCH   1  12
TORSDOF 6
ENDMDL
MODEL 7
REMARK VINA RESULT:      -6.5      3.498      6.749
REMARK  Name = 
REMARK  6 active torsions:
REMARK  status: ('A' for Active; 'I' for Inactive)
REMARK    1  A    between atoms: C_2  and  C_14
REMARK    2  A    between atoms: N_3  and  C_4
REMARK    3  A    between atoms: C_4  and  C_5
REMARK    4  A    between atoms: C_5  and  C_6
REMARK    5  A    between atoms: C_6  and  N_7
REMARK    6  A    between atoms: N_7  and  C_8
REMARK                            x       y       z     vdW  Elec       q    Type
REMARK                         _______ _______ _______ _____ _____    ______ ____
ROOT
ATOM      1  C   UNL     1       6.518   4.903  19.168  0.00  0.00    +0.000 C 
ENDROOT
BRANCH   1   4
ATOM      2  O   UNL     1       5.250   2.613  20.085  0.00  0.00    +0.000 OA
ATOM      3  C   UNL     1       4.548   3.442  19.505  0.00  0.00    +0.000 C 
ATOM      4  N   UNL     1       5.109   4.606  19.015  0.00  0.00    +0.000 N 
ATOM      5  H   UNL     1       4.517   5.305  18.587  0.00  0.00    +0.000 HD
BRANCH   3   6
ATOM      6  C   UNL     1       3.124   3.276  19.291  0.00  0.00    +0.000 A 
ATOM      7  S   UNL     1       2.591   2.037  18.209  0.00  0.00    +0.000 S 
ATOM      8  C   UNL     1       0.970   2.483  18.507  0.00  0.00    +0.000 A 
ATOM      9  N   UNL     1       0.790   3.477  19.342  0.00  0.00    +0.000 NA
ATOM     10  C   UNL     1       2.016   3.939  19.790  0.00  0.00    +0.000 A 
ATOM     11 CL   UNL     1       2.018   5.255  20.896  0.00  0.00    +0.000 Cl
ENDBRANCH   3   6
ENDBRANCH   1   4
BRANCH   1  12
ATOM     12  C   UNL     1       7.269   4.787  17.846  0.00  0.00    +0.000 C 
BRANCH  12  13
ATOM     13  C   UNL     1       6.452   5.418  16.720  0.00  0.00    +0.000 C 
BRANCH  13  14
ATOM     14  N   UNL     1       7.273   5.531  15.519  0.00  0.00    +0.000 N 
ATOM     15  H   UNL     1       7.592   6.481  15.342  0.00  0.00    +0.000 HD
BRANCH  14  16
ATOM     16  C   UNL     1       6.826   4.910  14.346  0.00  0.00    +0.000 A 
ATOM     17  C   UNL     1       7.628   4.976  13.198  0.00  0.00    +0.000 A 
ATOM     18  C   UNL     1       7.275   4.310  12.022  0.00  0.00    +0.000 A 
ATOM     19  C   UNL     1       6.121   3.533  11.982  0.00  0.00    +0.000 A 
ATOM     20  C   UNL     1       5.323   3.432  13.117  0.00  0.00    +0.000 A 
ATOM     21  C   UNL     1       5.677   4.109  14.289  0.00  0.00    +0.000 A 
ENDBRANCH  14  16
ENDBRANCH  13  14
ENDBRANCH  12  13
ENDBRANCH   1  12
TORSDOF 6
ENDMDL
MODEL 8
REMARK VINA RESULT:      -6.5      3.672      6.889
REMARK  Name = 
REMARK  6 active torsions:
REMARK  status: ('A' for Active; 'I' for Inactive)
REMARK    1  A    between atoms: C_2  and  C_14
REMARK    2  A    between atoms: N_3  and  C_4
REMARK    3  A    between atoms: C_4  and  C_5
REMARK    4  A    between atoms: C_5  and  C_6
REMARK    5  A    between atoms: C_6  and  N_7
REMARK    6  A    between atoms: N_7  and  C_8
REMARK                            x       y       z     vdW  Elec       q    Type
REMARK                         _______ _______ _______ _____ _____    ______ ____
ROOT
ATOM      1  C   UNL     1       6.660   5.344  19.161  0.00  0.00    +0.000 C 
ENDROOT
BRANCH   1   4
ATOM      2  O   UNL     1       4.000   6.075  18.876  0.00  0.00    +0.000 OA
ATOM      3  C   UNL     1       4.222   4.942  19.301  0.00  0.00    +0.000 C 
ATOM      4  N   UNL     1       5.522   4.507  19.475  0.00  0.00    +0.000 N 
ATOM      5  H   UNL     1       5.696   3.557  19.775  0.00  0.00    +0.000 HD
BRANCH   3   6
ATOM      6  C   UNL     1       3.177   3.998  19.647  0.00  0.00    +0.000 A 
ATOM      7  S   UNL     1       2.090   4.402  20.929  0.00  0.00    +0.000 S 
ATOM      8  C   UNL     1       1.277   2.919  20.701  0.00  0.00    +0.000 A 
ATOM      9  N   UNL     1       1.746   2.146  19.752  0.00  0.00    +0.000 NA
ATOM     10  C   UNL     1       2.834   2.752  19.149  0.00  0.00    +0.000 A 
ATOM     11 CL   UNL     1       3.617   1.905  17.874  0.00  0.00    +0.000 Cl
ENDBRANCH   3   6
ENDBRANCH   1   4
BRANCH   1  12
ATOM     12  C   UNL     1       7.384   4.872  17.905  0.00  0.00    +0.000 C 
BRANCH  12  13
ATOM     13  C   UNL     1       6.739   5.487  16.664  0.00  0.00    +0.000 C 
BRANCH  13  14
ATOM     14  N   UNL     1       6.096   4.444  15.873  0.00  0.00    +0.000 N 
ATOM     15  H   UNL     1       6.160   3.522  16.300  0.00  0.00    +0.000 HD
BRANCH  14  16
ATOM     16  C   UNL     1       6.358   4.394  14.498  0.00  0.00    +0.000 A 
ATOM     17  C   UNL     1       7.414   5.158  13.981  0.00  0.00    +0.000 A 
ATOM     18  C   UNL     1       7.775   5.089  12.634  0.00  0.00    +0.000 A 
ATOM     19  C   UNL     1       7.102   4.222  11.778  0.00  0.00    +0.000 A 
ATOM     20  C   UNL     1       6.068   3.434  12.273  0.00  0.00    +0.000 A 
ATOM     21  C   UNL     1       5.706   3.515  13.622  0.00  0.00    +0.000 A 
ENDBRANCH  14  16
ENDBRANCH  13  14
ENDBRANCH  12  13
ENDBRANCH   1  12
TORSDOF 6
ENDMDL
MODEL 9
REMARK VINA RESULT:      -6.5      2.239      2.786
REMARK  Name = 
REMARK  6 active torsions:
REMARK  status: ('A' for Active; 'I' for Inactive)
REMARK    1  A    between atoms: C_2  and  C_14
REMARK    2  A    between atoms: N_3  and  C_4
REMARK    3  A    between atoms: C_4  and  C_5
REMARK    4  A    between atoms: C_5  and  C_6
REMARK    5  A    between atoms: C_6  and  N_7
REMARK    6  A    between atoms: N_7  and  C_8
REMARK                            x       y       z     vdW  Elec       q    Type
REMARK                         _______ _______ _______ _____ _____    ______ ____
ROOT
ATOM      1  C   UNL     1       4.498   2.448  19.342  0.00  0.00    +0.000 C 
ENDROOT
BRANCH   1   4
ATOM      2  O   UNL     1       4.978   3.585  16.858  0.00  0.00    +0.000 OA
ATOM      3  C   UNL     1       5.452   4.165  17.834  0.00  0.00    +0.000 C 
ATOM      4  N   UNL     1       5.260   3.657  19.105  0.00  0.00    +0.000 N 
ATOM      5  H   UNL     1       5.608   4.167  19.906  0.00  0.00    +0.000 HD
BRANCH   3   6
ATOM      6  C   UNL     1       6.227   5.386  17.742  0.00  0.00    +0.000 A 
ATOM      7  S   UNL     1       7.523   5.629  18.859  0.00  0.00    +0.000 S 
ATOM      8  C   UNL     1       7.863   7.135  18.132  0.00  0.00    +0.000 A 
ATOM      9  N   UNL     1       7.092   7.476  17.128  0.00  0.00    +0.000 NA
ATOM     10  C   UNL     1       6.152   6.485  16.902  0.00  0.00    +0.000 A 
ATOM     11 CL   UNL     1       5.025   6.728  15.627  0.00  0.00    +0.000 Cl
ENDBRANCH   3   6
ENDBRANCH   1   4
BRANCH   1  12
ATOM     12  C   UNL     1       3.383   2.670  20.357  0.00  0.00    +0.000 C 
BRANCH  12  13
ATOM     13  C   UNL     1       2.036   2.274  19.753  0.00  0.00    +0.000 C 
BRANCH  13  14
ATOM     14  N   UNL     1       1.662   3.228  18.715  0.00  0.00    +0.000 N 
ATOM     15  H   UNL     1       2.035   2.988  17.799  0.00  0.00    +0.000 HD
BRANCH  14  16
ATOM     16  C   UNL     1       1.799   4.595  18.985  0.00  0.00    +0.000 A 
ATOM     17  C   UNL     1       1.573   5.053  20.290  0.00  0.00    +0.000 A 
ATOM     18  C   UNL     1       1.772   6.391  20.640  0.00  0.00    +0.000 A 
ATOM     19  C   UNL     1       2.235   7.296  19.690  0.00  0.00    +0.000 A 
ATOM     20  C   UNL     1       2.492   6.860  18.395  0.00  0.00    +0.000 A 
ATOM     21  C   UNL     1       2.282   5.520  18.049  0.00  0.00    +0.000 A 
ENDBRANCH  14  16
ENDBRANCH  13  14
ENDBRANCH  12  13
ENDBRANCH   1  12
TORSDOF 6
ENDMDL
