MODEL 1
REMARK VINA RESULT:      -7.7      0.000      0.000
REMARK  Name = 
REMARK  4 active torsions:
REMARK  status: ('A' for Active; 'I' for Inactive)
REMARK    1  A    between atoms: C_1  and  C_2
REMARK    2  A    between atoms: C_7  and  N_8
REMARK    3  A    between atoms: C_16  and  N_17
REMARK    4  A    between atoms: C_18  and  C_20
REMARK                            x       y       z     vdW  Elec       q    Type
REMARK                         _______ _______ _______ _____ _____    ______ ____
ROOT
ATOM      1  N   UNL     1       2.704   7.179  18.542  0.00  0.00    +0.000 N 
ATOM      2  N   UNL     1       2.779   7.907  17.396  0.00  0.00    +0.000 NA
ATOM      3  C   UNL     1       2.033   8.987  17.611  0.00  0.00    +0.000 A 
ATOM      4  C   UNL     1       1.493   9.019  18.904  0.00  0.00    +0.000 A 
ATOM      5  C   UNL     1       1.902   7.834  19.475  0.00  0.00    +0.000 A 
ATOM      6  C   UNL     1       1.615   7.400  20.860  0.00  0.00    +0.000 C 
ATOM      7  C   UNL     1       0.862   8.449  21.686  0.00  0.00    +0.000 C 
ATOM      8  C   UNL     1       0.205   9.654  20.986  0.00  0.00    +0.000 C 
ATOM      9  C   UNL     1       0.641  10.041  19.557  0.00  0.00    +0.000 C 
ENDROOT
BRANCH   1  16
ATOM     10  C   UNL     1       1.417   4.588  17.724  0.00  0.00    +0.000 C 
ATOM     11  C   UNL     1       2.809   4.707  18.285  0.00  0.00    +0.000 A 
ATOM     12  C   UNL     1       3.576   3.527  18.376  0.00  0.00    +0.000 A 
ATOM     13  C   UNL     1       4.887   3.545  18.845  0.00  0.00    +0.000 A 
ATOM     14  C   UNL     1       5.449   4.742  19.269  0.00  0.00    +0.000 A 
ATOM     15  C   UNL     1       4.705   5.923  19.195  0.00  0.00    +0.000 A 
ATOM     16  C   UNL     1       3.401   5.933  18.671  0.00  0.00    +0.000 A 
ENDBRANCH   1  16
BRANCH   9  17
ATOM     17  N   UNL     1       1.322  11.321  19.534  0.00  0.00    +0.000 N 
ATOM     18  C   UNL     1       0.741  12.424  18.933  0.00  0.00    +0.000 C 
ATOM     19  O   UNL     1      -0.346  12.366  18.361  0.00  0.00    +0.000 OA
ATOM     20  H   UNL     1       2.177  11.468  20.062  0.00  0.00    +0.000 HD
BRANCH  18  21
ATOM     21  C   UNL     1       1.508  13.672  19.016  0.00  0.00    +0.000 A 
ATOM     22  N   UNL     1       2.846  13.679  19.204  0.00  0.00    +0.000 NA
ATOM     23  O   UNL     1       3.227  15.018  19.222  0.00  0.00    +0.000 OA
ATOM     24  C   UNL     1       2.130  15.784  19.050  0.00  0.00    +0.000 A 
ATOM     25  C   UNL     1       1.014  15.000  18.917  0.00  0.00    +0.000 A 
ATOM     26  C   UNL     1      -0.344  15.575  18.738  0.00  0.00    +0.000 C 
ATOM     27  C   UNL     1      -0.268  17.079  18.380  0.00  0.00    +0.000 C 
ATOM     28  C   UNL     1       0.807  17.842  19.194  0.00  0.00    +0.000 C 
ATOM     29  C   UNL     1       2.220  17.257  18.992  0.00  0.00    +0.000 C 
ENDBRANCH  18  21
ENDBRANCH   9  17
TORSDOF 3
ENDMDL
MODEL 2
REMARK VINA RESULT:      -7.5      1.625      1.728
REMARK  Name = 
REMARK  4 active torsions:
REMARK  status: ('A' for Active; 'I' for Inactive)
REMARK    1  A    between atoms: C_1  and  C_2
REMARK    2  A    between atoms: C_7  and  N_8
REMARK    3  A    between atoms: C_16  and  N_17
REMARK    4  A    between atoms: C_18  and  C_20
REMARK                            x       y       z     vdW  Elec       q    Type
REMARK                         _______ _______ _______ _____ _____    ______ ____
ROOT
ATOM      1  N   UNL     1       2.757   7.438  18.124  0.00  0.00    +0.000 N 
ATOM      2  N   UNL     1       2.682   8.426  17.194  0.00  0.00    +0.000 NA
ATOM      3  C   UNL     1       1.885   9.352  17.722  0.00  0.00    +0.000 A 
ATOM      4  C   UNL     1       1.459   9.020  19.016  0.00  0.00    +0.000 A 
ATOM      5  C   UNL     1       1.997   7.773  19.244  0.00  0.00    +0.000 A 
ATOM      6  C   UNL     1       1.863   6.992  20.493  0.00  0.00    +0.000 C 
ATOM      7  C   UNL     1       1.114   7.738  21.603  0.00  0.00    +0.000 C 
ATOM      8  C   UNL     1       0.317   9.013  21.272  0.00  0.00    +0.000 C 
ATOM      9  C   UNL     1       0.599   9.773  19.959  0.00  0.00    +0.000 C 
ENDROOT
BRANCH   1  16
ATOM     10  C   UNL     1       1.469   4.749  17.745  0.00  0.00    +0.000 C 
ATOM     11  C   UNL     1       2.954   4.994  17.706  0.00  0.00    +0.000 A 
ATOM     12  C   UNL     1       3.786   3.895  17.414  0.00  0.00    +0.000 A 
ATOM     13  C   UNL     1       5.169   4.033  17.316  0.00  0.00    +0.000 A 
ATOM     14  C   UNL     1       5.753   5.272  17.548  0.00  0.00    +0.000 A 
ATOM     15  C   UNL     1       4.948   6.374  17.846  0.00  0.00    +0.000 A 
ATOM     16  C   UNL     1       3.548   6.265  17.891  0.00  0.00    +0.000 A 
ENDBRANCH   1  16
BRANCH   9  17
ATOM     17  N   UNL     1       1.185  11.076  20.209  0.00  0.00    +0.000 N 
ATOM     18  C   UNL     1       0.386  12.188  20.407  0.00  0.00    +0.000 C 
ATOM     19  O   UNL     1      -0.841  12.138  20.341  0.00  0.00    +0.000 OA
ATOM     20  H   UNL     1       2.183  11.178  20.368  0.00  0.00    +0.000 HD
BRANCH  18  21
ATOM     21  C   UNL     1       1.097  13.439  20.698  0.00  0.00    +0.000 A 
ATOM     22  N   UNL     1       1.097  13.993  21.929  0.00  0.00    +0.000 NA
ATOM     23  O   UNL     1       1.870  15.148  21.834  0.00  0.00    +0.000 OA
ATOM     24  C   UNL     1       2.314  15.269  20.566  0.00  0.00    +0.000 A 
ATOM     25  C   UNL     1       1.862  14.229  19.798  0.00  0.00    +0.000 A 
ATOM     26  C   UNL     1       2.176  14.114  18.351  0.00  0.00    +0.000 C 
ATOM     27  C   UNL     1       3.317  15.082  17.952  0.00  0.00    +0.000 C 
ATOM     28  C   UNL     1       3.192  16.473  18.620  0.00  0.00    +0.000 C 
ATOM     29  C   UNL     1       3.192  16.385  20.161  0.00  0.00    +0.000 C 
ENDBRANCH  18  21
ENDBRANCH   9  17
TORSDOF 3
ENDMDL
MODEL 3
REMARK VINA RESULT:      -7.4      5.114      6.689
REMARK  Name = 
REMARK  4 active torsions:
REMARK  status: ('A' for Active; 'I' for Inactive)
REMARK    1  A    between atoms: C_1  and  C_2
REMARK    2  A    between atoms: C_7  and  N_8
REMARK    3  A    between atoms: C_16  and  N_17
REMARK    4  A    between atoms: C_18  and  C_20
REMARK                            x       y       z     vdW  Elec       q    Type
REMARK                         _______ _______ _______ _____ _____    ______ ____
ROOT
ATOM      1  N   UNL     1       0.151  10.285  19.256  0.00  0.00    +0.000 N 
ATOM      2  N   UNL     1       0.271  11.198  20.256  0.00  0.00    +0.000 NA
ATOM      3  C   UNL     1      -0.802  11.978  20.157  0.00  0.00    +0.000 A 
ATOM      4  C   UNL     1      -1.668  11.574  19.131  0.00  0.00    +0.000 A 
ATOM      5  C   UNL     1      -1.023  10.509  18.540  0.00  0.00    +0.000 A 
ATOM      6  C   UNL     1      -1.545   9.703  17.414  0.00  0.00    +0.000 C 
ATOM      7  C   UNL     1      -2.961  10.101  16.982  0.00  0.00    +0.000 C 
ATOM      8  C   UNL     1      -3.574  11.426  17.475  0.00  0.00    +0.000 C 
ATOM      9  C   UNL     1      -2.970  12.137  18.704  0.00  0.00    +0.000 C 
ENDROOT
BRANCH   1  16
ATOM     10  C   UNL     1       0.622   8.162  21.332  0.00  0.00    +0.000 C 
ATOM     11  C   UNL     1       1.372   8.260  20.030  0.00  0.00    +0.000 A 
ATOM     12  C   UNL     1       2.316   7.253  19.746  0.00  0.00    +0.000 A 
ATOM     13  C   UNL     1       3.028   7.239  18.549  0.00  0.00    +0.000 A 
ATOM     14  C   UNL     1       2.838   8.256  17.624  0.00  0.00    +0.000 A 
ATOM     15  C   UNL     1       1.913   9.270  17.888  0.00  0.00    +0.000 A 
ATOM     16  C   UNL     1       1.143   9.268  19.064  0.00  0.00    +0.000 A 
ENDBRANCH   1  16
BRANCH   9  17
ATOM     17  N   UNL     1      -3.887  12.134  19.828  0.00  0.00    +0.000 N 
ATOM     18  C   UNL     1      -5.221  12.460  19.657  0.00  0.00    +0.000 C 
ATOM     19  O   UNL     1      -5.681  12.803  18.570  0.00  0.00    +0.000 OA
ATOM     20  H   UNL     1      -3.602  11.775  20.734  0.00  0.00    +0.000 HD
BRANCH  18  21
ATOM     21  C   UNL     1      -6.056  12.374  20.861  0.00  0.00    +0.000 A 
ATOM     22  N   UNL     1      -6.793  11.279  21.146  0.00  0.00    +0.000 NA
ATOM     23  O   UNL     1      -7.437  11.548  22.350  0.00  0.00    +0.000 OA
ATOM     24  C   UNL     1      -7.085  12.783  22.765  0.00  0.00    +0.000 A 
ATOM     25  C   UNL     1      -6.220  13.359  21.872  0.00  0.00    +0.000 A 
ATOM     26  C   UNL     1      -5.683  14.732  22.059  0.00  0.00    +0.000 C 
ATOM     27  C   UNL     1      -5.940  15.237  23.500  0.00  0.00    +0.000 C 
ATOM     28  C   UNL     1      -7.346  14.865  24.031  0.00  0.00    +0.000 C 
ATOM     29  C   UNL     1      -7.586  13.340  24.037  0.00  0.00    +0.000 C 
ENDBRANCH  18  21
ENDBRANCH   9  17
TORSDOF 3
ENDMDL
MODEL 4
REMARK VINA RESULT:      -7.4      3.639      8.954
REMARK  Name = 
REMARK  4 active torsions:
REMARK  status: ('A' for Active; 'I' for Inactive)
REMARK    1  A    between atoms: C_1  and  C_2
REMARK    2  A    between atoms: C_7  and  N_8
REMARK    3  A    between atoms: C_16  and  N_17
REMARK    4  A    between atoms: C_18  and  C_20
REMARK                            x       y       z     vdW  Elec       q    Type
REMARK                         _______ _______ _______ _____ _____    ______ ____
ROOT
ATOM      1  N   UNL     1      -1.145  10.629  19.041  0.00  0.00    +0.000 N 
ATOM      2  N   UNL     1      -0.518  10.423  17.853  0.00  0.00    +0.000 NA
ATOM      3  C   UNL     1       0.601   9.767  18.150  0.00  0.00    +0.000 A 
ATOM      4  C   UNL     1       0.713   9.487  19.519  0.00  0.00    +0.000 A 
ATOM      5  C   UNL     1      -0.396  10.080  20.081  0.00  0.00    +0.000 A 
ATOM      6  C   UNL     1      -0.759  10.043  21.515  0.00  0.00    +0.000 C 
ATOM      7  C   UNL     1       0.188   9.188  22.363  0.00  0.00    +0.000 C 
ATOM      8  C   UNL     1       1.542   8.732  21.786  0.00  0.00    +0.000 C 
ATOM      9  C   UNL     1       1.771   8.760  20.260  0.00  0.00    +0.000 C 
ENDROOT
BRANCH   1  16
ATOM     10  C   UNL     1      -3.435   9.834  17.264  0.00  0.00    +0.000 C 
ATOM     11  C   UNL     1      -3.490  10.947  18.275  0.00  0.00    +0.000 A 
ATOM     12  C   UNL     1      -4.718  11.621  18.435  0.00  0.00    +0.000 A 
ATOM     13  C   UNL     1      -4.876  12.637  19.374  0.00  0.00    +0.000 A 
ATOM     14  C   UNL     1      -3.793  13.029  20.150  0.00  0.00    +0.000 A 
ATOM     15  C   UNL     1      -2.564  12.382  20.004  0.00  0.00    +0.000 A 
ATOM     16  C   UNL     1      -2.402  11.315  19.103  0.00  0.00    +0.000 A 
ENDBRANCH   1  16
BRANCH   9  17
ATOM     17  N   UNL     1       1.909   7.424  19.714  0.00  0.00    +0.000 N 
ATOM     18  C   UNL     1       2.787   7.168  18.675  0.00  0.00    +0.000 C 
ATOM     19  O   UNL     1       3.454   8.054  18.144  0.00  0.00    +0.000 OA
ATOM     20  H   UNL     1       1.462   6.628  20.160  0.00  0.00    +0.000 HD
BRANCH  18  21
ATOM     21  C   UNL     1       2.871   5.768  18.244  0.00  0.00    +0.000 A 
ATOM     22  N   UNL     1       3.675   5.377  17.231  0.00  0.00    +0.000 NA
ATOM     23  O   UNL     1       3.503   4.001  17.110  0.00  0.00    +0.000 OA
ATOM     24  C   UNL     1       2.611   3.591  18.036  0.00  0.00    +0.000 A 
ATOM     25  C   UNL     1       2.171   4.654  18.780  0.00  0.00    +0.000 A 
ATOM     26  C   UNL     1       1.163   4.504  19.861  0.00  0.00    +0.000 C 
ATOM     27  C   UNL     1       0.971   3.015  20.239  0.00  0.00    +0.000 C 
ATOM     28  C   UNL     1       0.949   2.076  19.008  0.00  0.00    +0.000 C 
ATOM     29  C   UNL     1       2.245   2.167  18.176  0.00  0.00    +0.000 C 
ENDBRANCH  18  21
ENDBRANCH   9  17
TORSDOF 3
ENDMDL
MODEL 5
REMARK VINA RESULT:      -7.3      1.174      1.174
REMARK  Name = 
REMARK  4 active torsions:
REMARK  status: ('A' for Active; 'I' for Inactive)
REMARK    1  A    between atoms: C_1  and  C_2
REMARK    2  A    between atoms: C_7  and  N_8
REMARK    3  A    between atoms: C_16  and  N_17
REMARK    4  A    between atoms: C_18  and  C_20
REMARK                            x       y       z     vdW  Elec       q    Type
REMARK                         _______ _______ _______ _____ _____    ______ ____
ROOT
ATOM      1  N   UNL     1       2.752   7.473  18.148  0.00  0.00    +0.000 N 
ATOM      2  N   UNL     1       2.655   8.439  17.197  0.00  0.00    +0.000 NA
ATOM      3  C   UNL     1       1.840   9.359  17.707  0.00  0.00    +0.000 A 
ATOM      4  C   UNL     1       1.423   9.047  19.008  0.00  0.00    +0.000 A 
ATOM      5  C   UNL     1       1.987   7.816  19.262  0.00  0.00    +0.000 A 
ATOM      6  C   UNL     1       1.871   7.059  20.528  0.00  0.00    +0.000 C 
ATOM      7  C   UNL     1       1.109   7.814  21.623  0.00  0.00    +0.000 C 
ATOM      8  C   UNL     1       0.285   9.065  21.267  0.00  0.00    +0.000 C 
ATOM      9  C   UNL     1       0.550   9.802  19.937  0.00  0.00    +0.000 C 
ENDROOT
BRANCH   1  16
ATOM     10  C   UNL     1       1.515   4.760  17.760  0.00  0.00    +0.000 C 
ATOM     11  C   UNL     1       2.996   5.029  17.749  0.00  0.00    +0.000 A 
ATOM     12  C   UNL     1       3.853   3.942  17.482  0.00  0.00    +0.000 A 
ATOM     13  C   UNL     1       5.235   4.103  17.411  0.00  0.00    +0.000 A 
ATOM     14  C   UNL     1       5.794   5.352  17.646  0.00  0.00    +0.000 A 
ATOM     15  C   UNL     1       4.965   6.443  17.922  0.00  0.00    +0.000 A 
ATOM     16  C   UNL     1       3.566   6.311  17.938  0.00  0.00    +0.000 A 
ENDBRANCH   1  16
BRANCH   9  17
ATOM     17  N   UNL     1       1.109  11.122  20.158  0.00  0.00    +0.000 N 
ATOM     18  C   UNL     1       0.289  12.229  20.284  0.00  0.00    +0.000 C 
ATOM     19  O   UNL     1      -0.933  12.159  20.175  0.00  0.00    +0.000 OA
ATOM     20  H   UNL     1       2.100  11.244  20.349  0.00  0.00    +0.000 HD
BRANCH  18  21
ATOM     21  C   UNL     1       0.974  13.500  20.551  0.00  0.00    +0.000 A 
ATOM     22  N   UNL     1       1.987  13.594  21.439  0.00  0.00    +0.000 NA
ATOM     23  O   UNL     1       2.391  14.926  21.425  0.00  0.00    +0.000 OA
ATOM     24  C   UNL     1       1.626  15.603  20.544  0.00  0.00    +0.000 A 
ATOM     25  C   UNL     1       0.711  14.765  19.962  0.00  0.00    +0.000 A 
ATOM     26  C   UNL     1      -0.283  15.242  18.966  0.00  0.00    +0.000 C 
ATOM     27  C   UNL     1       0.085  16.654  18.447  0.00  0.00    +0.000 C 
ATOM     28  C   UNL     1       0.591  17.597  19.566  0.00  0.00    +0.000 C 
ATOM     29  C   UNL     1       1.839  17.041  20.283  0.00  0.00    +0.000 C 
ENDBRANCH  18  21
ENDBRANCH   9  17
TORSDOF 3
ENDMDL
MODEL 6
REMARK VINA RESULT:      -7.3      3.053      4.486
REMARK  Name = 
REMARK  4 active torsions:
REMARK  status: ('A' for Active; 'I' for Inactive)
REMARK    1  A    between atoms: C_1  and  C_2
REMARK    2  A    between atoms: C_7  and  N_8
REMARK    3  A    between atoms: C_16  and  N_17
REMARK    4  A    between atoms: C_18  and  C_20
REMARK                            x       y       z     vdW  Elec       q    Type
REMARK                         _______ _______ _______ _____ _____    ______ ____
ROOT
ATOM      1  N   UNL     1       2.014   5.969  19.895  0.00  0.00    +0.000 N 
ATOM      2  N   UNL     1       1.429   6.214  21.097  0.00  0.00    +0.000 NA
ATOM      3  C   UNL     1       1.231   7.530  21.134  0.00  0.00    +0.000 A 
ATOM      4  C   UNL     1       1.633   8.168  19.952  0.00  0.00    +0.000 A 
ATOM      5  C   UNL     1       2.167   7.157  19.182  0.00  0.00    +0.000 A 
ATOM      6  C   UNL     1       2.709   7.310  17.815  0.00  0.00    +0.000 C 
ATOM      7  C   UNL     1       2.553   8.727  17.250  0.00  0.00    +0.000 C 
ATOM      8  C   UNL     1       2.181   9.893  18.186  0.00  0.00    +0.000 C 
ATOM      9  C   UNL     1       1.563   9.597  19.568  0.00  0.00    +0.000 C 
ENDROOT
BRANCH   1  16
ATOM     10  C   UNL     1       4.890   5.174  19.530  0.00  0.00    +0.000 C 
ATOM     11  C   UNL     1       3.720   4.246  19.337  0.00  0.00    +0.000 A 
ATOM     12  C   UNL     1       4.002   2.902  19.020  0.00  0.00    +0.000 A 
ATOM     13  C   UNL     1       2.986   1.962  18.863  0.00  0.00    +0.000 A 
ATOM     14  C   UNL     1       1.660   2.357  18.982  0.00  0.00    +0.000 A 
ATOM     15  C   UNL     1       1.357   3.686  19.287  0.00  0.00    +0.000 A 
ATOM     16  C   UNL     1       2.370   4.635  19.507  0.00  0.00    +0.000 A 
ENDBRANCH   1  16
BRANCH   9  17
ATOM     17  N   UNL     1       0.187  10.049  19.647  0.00  0.00    +0.000 N 
ATOM     18  C   UNL     1      -0.111  11.385  19.854  0.00  0.00    +0.000 C 
ATOM     19  O   UNL     1       0.761  12.236  20.021  0.00  0.00    +0.000 OA
ATOM     20  H   UNL     1      -0.582   9.423  19.429  0.00  0.00    +0.000 HD
BRANCH  18  21
ATOM     21  C   UNL     1      -1.539  11.723  19.868  0.00  0.00    +0.000 A 
ATOM     22  N   UNL     1      -2.131  12.289  20.941  0.00  0.00    +0.000 NA
ATOM     23  O   UNL     1      -3.467  12.472  20.595  0.00  0.00    +0.000 OA
ATOM     24  C   UNL     1      -3.656  12.018  19.338  0.00  0.00    +0.000 A 
ATOM     25  C   UNL     1      -2.484  11.530  18.824  0.00  0.00    +0.000 A 
ATOM     26  C   UNL     1      -2.397  10.941  17.463  0.00  0.00    +0.000 C 
ATOM     27  C   UNL     1      -3.661  11.274  16.633  0.00  0.00    +0.000 C 
ATOM     28  C   UNL     1      -4.970  11.168  17.453  0.00  0.00    +0.000 C 
ATOM     29  C   UNL     1      -4.973  12.108  18.677  0.00  0.00    +0.000 C 
ENDBRANCH  18  21
ENDBRANCH   9  17
TORSDOF 3
ENDMDL
MODEL 7
REMARK VINA RESULT:      -7.2      5.980      7.268
REMARK  Name = 
REMARK  4 active torsions:
REMARK  status: ('A' for Active; 'I' for Inactive)
REMARK    1  A    between atoms: C_1  and  C_2
REMARK    2  A    between atoms: C_7  and  N_8
REMARK    3  A    between atoms: C_16  and  N_17
REMARK    4  A    between atoms: C_18  and  C_20
REMARK                            x       y       z     vdW  Elec       q    Type
REMARK                         _______ _______ _______ _____ _____    ______ ____
ROOT
ATOM      1  N   UNL     1       4.461   4.580  18.596  0.00  0.00    +0.000 N 
ATOM      2  N   UNL     1       4.959   5.233  19.679  0.00  0.00    +0.000 NA
ATOM      3  C   UNL     1       6.088   5.802  19.264  0.00  0.00    +0.000 A 
ATOM      4  C   UNL     1       6.334   5.579  17.902  0.00  0.00    +0.000 A 
ATOM      5  C   UNL     1       5.300   4.763  17.497  0.00  0.00    +0.000 A 
ATOM      6  C   UNL     1       5.085   4.263  16.122  0.00  0.00    +0.000 C 
ATOM      7  C   UNL     1       6.096   4.810  15.108  0.00  0.00    +0.000 C 
ATOM      8  C   UNL     1       7.373   5.518  15.597  0.00  0.00    +0.000 C 
ATOM      9  C   UNL     1       7.446   6.051  17.044  0.00  0.00    +0.000 C 
ENDROOT
BRANCH   1  16
ATOM     10  C   UNL     1       4.316   1.945  20.034  0.00  0.00    +0.000 C 
ATOM     11  C   UNL     1       3.148   2.609  19.355  0.00  0.00    +0.000 A 
ATOM     12  C   UNL     1       1.892   1.976  19.454  0.00  0.00    +0.000 A 
ATOM     13  C   UNL     1       0.747   2.536  18.892  0.00  0.00    +0.000 A 
ATOM     14  C   UNL     1       0.841   3.727  18.185  0.00  0.00    +0.000 A 
ATOM     15  C   UNL     1       2.077   4.369  18.067  0.00  0.00    +0.000 A 
ATOM     16  C   UNL     1       3.231   3.848  18.677  0.00  0.00    +0.000 A 
ENDBRANCH   1  16
BRANCH   9  17
ATOM     17  N   UNL     1       7.499   7.500  17.079  0.00  0.00    +0.000 N 
ATOM     18  C   UNL     1       8.191   8.161  18.079  0.00  0.00    +0.000 C 
ATOM     19  O   UNL     1       8.751   7.565  18.997  0.00  0.00    +0.000 OA
ATOM     20  H   UNL     1       7.140   8.055  16.308  0.00  0.00    +0.000 HD
BRANCH  18  21
ATOM     21  C   UNL     1       8.210   9.625  17.977  0.00  0.00    +0.000 A 
ATOM     22  N   UNL     1       7.438  10.292  17.092  0.00  0.00    +0.000 NA
ATOM     23  O   UNL     1       7.708  11.644  17.284  0.00  0.00    +0.000 OA
ATOM     24  C   UNL     1       8.626  11.768  18.265  0.00  0.00    +0.000 A 
ATOM     25  C   UNL     1       8.988  10.536  18.742  0.00  0.00    +0.000 A 
ATOM     26  C   UNL     1      10.003  10.364  19.812  0.00  0.00    +0.000 C 
ATOM     27  C   UNL     1      10.302  11.711  20.515  0.00  0.00    +0.000 C 
ATOM     28  C   UNL     1      10.393  12.901  19.529  0.00  0.00    +0.000 C 
ATOM     29  C   UNL     1       9.094  13.093  18.718  0.00  0.00    +0.000 C 
ENDBRANCH  18  21
ENDBRANCH   9  17
TORSDOF 3
ENDMDL
MODEL 8
REMARK VINA RESULT:      -7.2      1.185      1.380
REMARK  Name = 
REMARK  4 active torsions:
REMARK  status: ('A' for Active; 'I' for Inactive)
REMARK    1  A    between atoms: C_1  and  C_2
REMARK    2  A    between atoms: C_7  and  N_8
REMARK    3  A    between atoms: C_16  and  N_17
REMARK    4  A    between atoms: C_18  and  C_20
REMARK                            x       y       z     vdW  Elec       q    Type
REMARK                         _______ _______ _______ _____ _____    ______ ____
ROOT
ATOM      1  N   UNL     1       2.714   7.207  18.574  0.00  0.00    +0.000 N 
ATOM      2  N   UNL     1       2.828   7.970  17.455  0.00  0.00    +0.000 NA
ATOM      3  C   UNL     1       2.082   9.048  17.682  0.00  0.00    +0.000 A 
ATOM      4  C   UNL     1       1.504   9.043  18.959  0.00  0.00    +0.000 A 
ATOM      5  C   UNL     1       1.889   7.837  19.504  0.00  0.00    +0.000 A 
ATOM      6  C   UNL     1       1.559   7.362  20.865  0.00  0.00    +0.000 C 
ATOM      7  C   UNL     1       0.788   8.390  21.701  0.00  0.00    +0.000 C 
ATOM      8  C   UNL     1       0.158   9.621  21.021  0.00  0.00    +0.000 C 
ATOM      9  C   UNL     1       0.639  10.049  19.619  0.00  0.00    +0.000 C 
ENDROOT
BRANCH   1  16
ATOM     10  C   UNL     1       1.405   4.641  17.714  0.00  0.00    +0.000 C 
ATOM     11  C   UNL     1       2.798   4.738  18.278  0.00  0.00    +0.000 A 
ATOM     12  C   UNL     1       3.554   3.551  18.351  0.00  0.00    +0.000 A 
ATOM     13  C   UNL     1       4.865   3.550  18.821  0.00  0.00    +0.000 A 
ATOM     14  C   UNL     1       5.437   4.735  19.265  0.00  0.00    +0.000 A 
ATOM     15  C   UNL     1       4.704   5.923  19.209  0.00  0.00    +0.000 A 
ATOM     16  C   UNL     1       3.400   5.953  18.684  0.00  0.00    +0.000 A 
ENDBRANCH   1  16
BRANCH   9  17
ATOM     17  N   UNL     1       1.328  11.325  19.656  0.00  0.00    +0.000 N 
ATOM     18  C   UNL     1       0.795  12.438  19.029  0.00  0.00    +0.000 C 
ATOM     19  O   UNL     1      -0.252  12.393  18.386  0.00  0.00    +0.000 OA
ATOM     20  H   UNL     1       2.146  11.460  20.242  0.00  0.00    +0.000 HD
BRANCH  18  21
ATOM     21  C   UNL     1       1.563  13.680  19.179  0.00  0.00    +0.000 A 
ATOM     22  N   UNL     1       2.353  14.156  18.193  0.00  0.00    +0.000 NA
ATOM     23  O   UNL     1       2.908  15.338  18.678  0.00  0.00    +0.000 OA
ATOM     24  C   UNL     1       2.451  15.549  19.930  0.00  0.00    +0.000 A 
ATOM     25  C   UNL     1       1.603  14.542  20.308  0.00  0.00    +0.000 A 
ATOM     26  C   UNL     1       0.966  14.500  21.649  0.00  0.00    +0.000 C 
ATOM     27  C   UNL     1       1.106  15.862  22.373  0.00  0.00    +0.000 C 
ATOM     28  C   UNL     1       2.500  16.507  22.185  0.00  0.00    +0.000 C 
ATOM     29  C   UNL     1       2.841  16.748  20.699  0.00  0.00    +0.000 C 
ENDBRANCH  18  21
ENDBRANCH   9  17
TORSDOF 3
ENDMDL
MODEL 9
REMARK VINA RESULT:      -7.2      5.702      7.216
REMARK  Name = 
REMARK  4 active torsions:
REMARK  status: ('A' for Active; 'I' for Inactive)
REMARK    1  A    between atoms: C_1  and  C_2
REMARK    2  A    between atoms: C_7  and  N_8
REMARK    3  A    between atoms: C_16  and  N_17
REMARK    4  A    between atoms: C_18  and  C_20
REMARK                            x       y       z     vdW  Elec       q    Type
REMARK                         _______ _______ _______ _____ _____    ______ ____
ROOT
ATOM      1  N   UNL     1       4.475   4.575  18.626  0.00  0.00    +0.000 N 
ATOM      2  N   UNL     1       5.000   5.217  19.703  0.00  0.00    +0.000 NA
ATOM      3  C   UNL     1       6.122   5.785  19.267  0.00  0.00    +0.000 A 
ATOM      4  C   UNL     1       6.335   5.573  17.898  0.00  0.00    +0.000 A 
ATOM      5  C   UNL     1       5.289   4.764  17.510  0.00  0.00    +0.000 A 
ATOM      6  C   UNL     1       5.039   4.277  16.136  0.00  0.00    +0.000 C 
ATOM      7  C   UNL     1       6.029   4.829  15.103  0.00  0.00    +0.000 C 
ATOM      8  C   UNL     1       7.320   5.528  15.569  0.00  0.00    +0.000 C 
ATOM      9  C   UNL     1       7.428   6.048  17.018  0.00  0.00    +0.000 C 
ENDROOT
BRANCH   1  16
ATOM     10  C   UNL     1       1.847   5.861  17.935  0.00  0.00    +0.000 C 
ATOM     11  C   UNL     1       2.001   4.439  18.403  0.00  0.00    +0.000 A 
ATOM     12  C   UNL     1       0.838   3.645  18.464  0.00  0.00    +0.000 A 
ATOM     13  C   UNL     1       0.888   2.306  18.846  0.00  0.00    +0.000 A 
ATOM     14  C   UNL     1       2.103   1.742  19.214  0.00  0.00    +0.000 A 
ATOM     15  C   UNL     1       3.268   2.512  19.170  0.00  0.00    +0.000 A 
ATOM     16  C   UNL     1       3.245   3.847  18.730  0.00  0.00    +0.000 A 
ENDBRANCH   1  16
BRANCH   9  17
ATOM     17  N   UNL     1       7.488   7.496  17.064  0.00  0.00    +0.000 N 
ATOM     18  C   UNL     1       8.187   8.147  18.066  0.00  0.00    +0.000 C 
ATOM     19  O   UNL     1       8.748   7.541  18.977  0.00  0.00    +0.000 OA
ATOM     20  H   UNL     1       7.128   8.059  16.299  0.00  0.00    +0.000 HD
BRANCH  18  21
ATOM     21  C   UNL     1       8.212   9.611  17.976  0.00  0.00    +0.000 A 
ATOM     22  N   UNL     1       7.443  10.288  17.096  0.00  0.00    +0.000 NA
ATOM     23  O   UNL     1       7.719  11.638  17.298  0.00  0.00    +0.000 OA
ATOM     24  C   UNL     1       8.637  11.750  18.280  0.00  0.00    +0.000 A 
ATOM     25  C   UNL     1       8.993  10.513  18.747  0.00  0.00    +0.000 A 
ATOM     26  C   UNL     1      10.008  10.329  19.816  0.00  0.00    +0.000 C 
ATOM     27  C   UNL     1      10.313  11.669  20.530  0.00  0.00    +0.000 C 
ATOM     28  C   UNL     1      10.409  12.866  19.553  0.00  0.00    +0.000 C 
ATOM     29  C   UNL     1       9.111  13.070  18.744  0.00  0.00    +0.000 C 
ENDBRANCH  18  21
ENDBRANCH   9  17
TORSDOF 3
ENDMDL
