MODEL 1
REMARK VINA RESULT:      -7.0      0.000      0.000
REMARK  Name = 
REMARK  9 active torsions:
REMARK  status: ('A' for Active; 'I' for Inactive)
REMARK    1  A    between atoms: C_1  and  C_2
REMARK    2  A    between atoms: C_2  and  C_3
REMARK    3  A    between atoms: C_2  and  C_4
REMARK    4  A    between atoms: C_2  and  O_5
REMARK    5  A    between atoms: O_5  and  C_6
REMARK    6  A    between atoms: C_11  and  N_12
REMARK    7  A    between atoms: C_13  and  C_15
REMARK    8  A    between atoms: C_22  and  C_23
REMARK    9  A    between atoms: C_22  and  C_24
REMARK                            x       y       z     vdW  Elec       q    Type
REMARK                         _______ _______ _______ _____ _____    ______ ____
ROOT
ATOM      1  C   UNL     1       4.587   4.348  19.348  0.00  0.00    +0.000 C 
ATOM      2  O   UNL     1       5.015   3.232  19.608  0.00  0.00    +0.000 OA
ATOM      3  N   UNL     1       5.005   5.084  18.260  0.00  0.00    +0.000 N 
ATOM      4  C   UNL     1       4.616   6.454  18.026  0.00  0.00    +0.000 C 
ATOM      5  C   UNL     1       4.700   6.596  16.526  0.00  0.00    +0.000 C 
ATOM      6  C   UNL     1       5.883   5.710  16.116  0.00  0.00    +0.000 C 
ATOM      7  C   UNL     1       6.008   4.631  17.264  0.00  0.00    +0.000 C 
ATOM      8  C   UNL     1       7.431   4.696  17.851  0.00  0.00    +0.000 C 
ATOM      9  C   UNL     1       5.740   3.197  16.771  0.00  0.00    +0.000 C 
ENDROOT
BRANCH   6  10
ATOM     10  N   UNL     1       5.667   5.199  14.770  0.00  0.00    +0.000 N 
ATOM     11  C   UNL     1       6.704   4.897  13.907  0.00  0.00    +0.000 C 
ATOM     12  O   UNL     1       7.872   5.169  14.147  0.00  0.00    +0.000 OA
ATOM     13  H   UNL     1       4.753   4.830  14.523  0.00  0.00    +0.000 HD
BRANCH  11  14
ATOM     14  C   UNL     1       6.238   4.354  12.542  0.00  0.00    +0.000 C 
ATOM     15  C   UNL     1       4.818   3.811  12.663  0.00  0.00    +0.000 C 
ATOM     16  C   UNL     1       4.457   3.013  11.419  0.00  0.00    +0.000 C 
ATOM     17  C   UNL     1       5.411   1.838  11.251  0.00  0.00    +0.000 C 
ATOM     18  C   UNL     1       6.866   2.219  11.371  0.00  0.00    +0.000 C 
ATOM     19  O   UNL     1       7.765   1.511  10.931  0.00  0.00    +0.000 OA
ATOM     20  N   UNL     1       7.182   3.330  12.093  0.00  0.00    +0.000 N 
ATOM     21  H   UNL     1       8.167   3.569  12.056  0.00  0.00    +0.000 HD
ENDBRANCH  11  14
ENDBRANCH   6  10
BRANCH   1  22
ATOM     22  O   UNL     1       3.616   4.982  20.073  0.00  0.00    +0.000 OA
BRANCH  22  24
ATOM     23  C   UNL     1       2.233   3.365  21.301  0.00  0.00    +0.000 C 
ATOM     24  C   UNL     1       2.292   4.388  20.164  0.00  0.00    +0.000 C 
ATOM     25  C   UNL     1       1.868   3.793  18.811  0.00  0.00    +0.000 C 
ATOM     26  C   UNL     1       1.306   5.521  20.509  0.00  0.00    +0.000 C 
ENDBRANCH  22  24
ENDBRANCH   1  22
TORSDOF 4
ENDMDL
MODEL 2
REMARK VINA RESULT:      -6.6      4.076      9.106
REMARK  Name = 
REMARK  9 active torsions:
REMARK  status: ('A' for Active; 'I' for Inactive)
REMARK    1  A    between atoms: C_1  and  C_2
REMARK    2  A    between atoms: C_2  and  C_3
REMARK    3  A    between atoms: C_2  and  C_4
REMARK    4  A    between atoms: C_2  and  O_5
REMARK    5  A    between atoms: O_5  and  C_6
REMARK    6  A    between atoms: C_11  and  N_12
REMARK    7  A    between atoms: C_13  and  C_15
REMARK    8  A    between atoms: C_22  and  C_23
REMARK    9  A    between atoms: C_22  and  C_24
REMARK                            x       y       z     vdW  Elec       q    Type
REMARK                         _______ _______ _______ _____ _____    ______ ____
ROOT
ATOM      1  C   UNL     1       4.692   4.487  18.038  0.00  0.00    +0.000 C 
ATOM      2  O   UNL     1       4.474   3.488  18.710  0.00  0.00    +0.000 OA
ATOM      3  N   UNL     1       3.838   5.568  17.990  0.00  0.00    +0.000 N 
ATOM      4  C   UNL     1       4.013   6.685  17.092  0.00  0.00    +0.000 C 
ATOM      5  C   UNL     1       3.348   7.831  17.816  0.00  0.00    +0.000 C 
ATOM      6  C   UNL     1       2.161   7.191  18.548  0.00  0.00    +0.000 C 
ATOM      7  C   UNL     1       2.562   5.675  18.740  0.00  0.00    +0.000 C 
ATOM      8  C   UNL     1       1.474   4.791  18.100  0.00  0.00    +0.000 C 
ATOM      9  C   UNL     1       2.715   5.277  20.220  0.00  0.00    +0.000 C 
ENDROOT
BRANCH   6  10
ATOM     10  N   UNL     1       1.876   7.943  19.762  0.00  0.00    +0.000 N 
ATOM     11  C   UNL     1       1.058   9.058  19.779  0.00  0.00    +0.000 C 
ATOM     12  O   UNL     1       0.629   9.586  18.763  0.00  0.00    +0.000 OA
ATOM     13  H   UNL     1       2.083   7.522  20.664  0.00  0.00    +0.000 HD
BRANCH  11  14
ATOM     14  C   UNL     1       0.886   9.680  21.178  0.00  0.00    +0.000 C 
ATOM     15  C   UNL     1      -0.181   8.916  21.954  0.00  0.00    +0.000 C 
ATOM     16  C   UNL     1      -0.570   9.687  23.206  0.00  0.00    +0.000 C 
ATOM     17  C   UNL     1      -1.131  11.053  22.831  0.00  0.00    +0.000 C 
ATOM     18  C   UNL     1      -0.271  11.810  21.849  0.00  0.00    +0.000 C 
ATOM     19  O   UNL     1      -0.363  13.024  21.702  0.00  0.00    +0.000 OA
ATOM     20  N   UNL     1       0.547  11.096  21.027  0.00  0.00    +0.000 N 
ATOM     21  H   UNL     1       1.154  11.677  20.458  0.00  0.00    +0.000 HD
ENDBRANCH  11  14
ENDBRANCH   6  10
BRANCH   1  22
ATOM     22  O   UNL     1       5.822   4.674  17.290  0.00  0.00    +0.000 OA
BRANCH  22  24
ATOM     23  C   UNL     1       6.751   5.538  19.394  0.00  0.00    +0.000 C 
ATOM     24  C   UNL     1       6.984   5.301  17.900  0.00  0.00    +0.000 C 
ATOM     25  C   UNL     1       7.365   6.586  17.149  0.00  0.00    +0.000 C 
ATOM     26  C   UNL     1       8.158   4.311  17.766  0.00  0.00    +0.000 C 
ENDBRANCH  22  24
ENDBRANCH   1  22
TORSDOF 4
ENDMDL
MODEL 3
REMARK VINA RESULT:      -6.6      2.380      8.076
REMARK  Name = 
REMARK  9 active torsions:
REMARK  status: ('A' for Active; 'I' for Inactive)
REMARK    1  A    between atoms: C_1  and  C_2
REMARK    2  A    between atoms: C_2  and  C_3
REMARK    3  A    between atoms: C_2  and  C_4
REMARK    4  A    between atoms: C_2  and  O_5
REMARK    5  A    between atoms: O_5  and  C_6
REMARK    6  A    between atoms: C_11  and  N_12
REMARK    7  A    between atoms: C_13  and  C_15
REMARK    8  A    between atoms: C_22  and  C_23
REMARK    9  A    between atoms: C_22  and  C_24
REMARK                            x       y       z     vdW  Elec       q    Type
REMARK                         _______ _______ _______ _____ _____    ______ ____
ROOT
ATOM      1  C   UNL     1       6.411   4.452  14.337  0.00  0.00    +0.000 C 
ATOM      2  O   UNL     1       6.947   5.451  13.876  0.00  0.00    +0.000 OA
ATOM      3  N   UNL     1       5.831   4.414  15.586  0.00  0.00    +0.000 N 
ATOM      4  C   UNL     1       5.327   3.207  16.197  0.00  0.00    +0.000 C 
ATOM      5  C   UNL     1       4.248   3.702  17.128  0.00  0.00    +0.000 C 
ATOM      6  C   UNL     1       4.766   5.052  17.640  0.00  0.00    +0.000 C 
ATOM      7  C   UNL     1       5.767   5.560  16.528  0.00  0.00    +0.000 C 
ATOM      8  C   UNL     1       7.141   5.814  17.178  0.00  0.00    +0.000 C 
ATOM      9  C   UNL     1       5.295   6.857  15.844  0.00  0.00    +0.000 C 
ENDROOT
BRANCH   6  10
ATOM     10  N   UNL     1       3.639   5.924  17.942  0.00  0.00    +0.000 N 
ATOM     11  C   UNL     1       3.083   6.019  19.204  0.00  0.00    +0.000 C 
ATOM     12  O   UNL     1       3.392   5.280  20.128  0.00  0.00    +0.000 OA
ATOM     13  H   UNL     1       3.392   6.657  17.283  0.00  0.00    +0.000 HD
BRANCH  11  14
ATOM     14  C   UNL     1       1.911   7.017  19.292  0.00  0.00    +0.000 C 
ATOM     15  C   UNL     1       2.178   8.205  18.374  0.00  0.00    +0.000 C 
ATOM     16  C   UNL     1       1.190   9.325  18.667  0.00  0.00    +0.000 C 
ATOM     17  C   UNL     1       1.334   9.789  20.111  0.00  0.00    +0.000 C 
ATOM     18  C   UNL     1       1.343   8.659  21.110  0.00  0.00    +0.000 C 
ATOM     19  O   UNL     1       1.101   8.837  22.300  0.00  0.00    +0.000 OA
ATOM     20  N   UNL     1       1.744   7.428  20.687  0.00  0.00    +0.000 N 
ATOM     21  H   UNL     1       1.641   6.705  21.391  0.00  0.00    +0.000 HD
ENDBRANCH  11  14
ENDBRANCH   6  10
BRANCH   1  22
ATOM     22  O   UNL     1       6.283   3.272  13.659  0.00  0.00    +0.000 OA
BRANCH  22  24
ATOM     23  C   UNL     1       7.183   4.179  11.561  0.00  0.00    +0.000 C 
ATOM     24  C   UNL     1       6.119   3.294  12.214  0.00  0.00    +0.000 C 
ATOM     25  C   UNL     1       4.689   3.709  11.835  0.00  0.00    +0.000 C 
ATOM     26  C   UNL     1       6.342   1.854  11.709  0.00  0.00    +0.000 C 
ENDBRANCH  22  24
ENDBRANCH   1  22
TORSDOF 4
ENDMDL
MODEL 4
REMARK VINA RESULT:      -6.3      4.735      7.110
REMARK  Name = 
REMARK  9 active torsions:
REMARK  status: ('A' for Active; 'I' for Inactive)
REMARK    1  A    between atoms: C_1  and  C_2
REMARK    2  A    between atoms: C_2  and  C_3
REMARK    3  A    between atoms: C_2  and  C_4
REMARK    4  A    between atoms: C_2  and  O_5
REMARK    5  A    between atoms: O_5  and  C_6
REMARK    6  A    between atoms: C_11  and  N_12
REMARK    7  A    between atoms: C_13  and  C_15
REMARK    8  A    between atoms: C_22  and  C_23
REMARK    9  A    between atoms: C_22  and  C_24
REMARK                            x       y       z     vdW  Elec       q    Type
REMARK                         _______ _______ _______ _____ _____    ______ ____
ROOT
ATOM      1  C   UNL     1       0.696  11.367  20.298  0.00  0.00    +0.000 C 
ATOM      2  O   UNL     1       0.674  12.301  19.508  0.00  0.00    +0.000 OA
ATOM      3  N   UNL     1       0.995  10.073  19.932  0.00  0.00    +0.000 N 
ATOM      4  C   UNL     1       0.880   8.944  20.824  0.00  0.00    +0.000 C 
ATOM      5  C   UNL     1       1.892   7.961  20.286  0.00  0.00    +0.000 C 
ATOM      6  C   UNL     1       1.858   8.162  18.765  0.00  0.00    +0.000 C 
ATOM      7  C   UNL     1       1.336   9.638  18.554  0.00  0.00    +0.000 C 
ATOM      8  C   UNL     1       0.078   9.596  17.665  0.00  0.00    +0.000 C 
ATOM      9  C   UNL     1       2.381  10.555  17.891  0.00  0.00    +0.000 C 
ENDROOT
BRANCH   6  10
ATOM     10  N   UNL     1       3.165   7.852  18.203  0.00  0.00    +0.000 N 
ATOM     11  C   UNL     1       3.524   6.580  17.797  0.00  0.00    +0.000 C 
ATOM     12  O   UNL     1       2.834   5.592  18.007  0.00  0.00    +0.000 OA
ATOM     13  H   UNL     1       3.756   8.612  17.880  0.00  0.00    +0.000 HD
BRANCH  11  14
ATOM     14  C   UNL     1       4.949   6.492  17.218  0.00  0.00    +0.000 C 
ATOM     15  C   UNL     1       4.944   5.620  15.968  0.00  0.00    +0.000 C 
ATOM     16  C   UNL     1       6.371   5.283  15.559  0.00  0.00    +0.000 C 
ATOM     17  C   UNL     1       7.073   4.523  16.676  0.00  0.00    +0.000 C 
ATOM     18  C   UNL     1       6.927   5.169  18.031  0.00  0.00    +0.000 C 
ATOM     19  O   UNL     1       7.686   4.916  18.961  0.00  0.00    +0.000 OA
ATOM     20  N   UNL     1       5.847   5.970  18.249  0.00  0.00    +0.000 N 
ATOM     21  H   UNL     1       5.863   6.434  19.151  0.00  0.00    +0.000 HD
ENDBRANCH  11  14
ENDBRANCH   6  10
BRANCH   1  22
ATOM     22  O   UNL     1       0.469  11.497  21.640  0.00  0.00    +0.000 OA
BRANCH  22  24
ATOM     23  C   UNL     1      -1.333  10.901  23.199  0.00  0.00    +0.000 C 
ATOM     24  C   UNL     1      -0.859  11.863  22.107  0.00  0.00    +0.000 C 
ATOM     25  C   UNL     1      -1.843  11.954  20.930  0.00  0.00    +0.000 C 
ATOM     26  C   UNL     1      -0.750  13.264  22.740  0.00  0.00    +0.000 C 
ENDBRANCH  22  24
ENDBRANCH   1  22
TORSDOF 4
ENDMDL
MODEL 5
REMARK VINA RESULT:      -6.3      4.710      7.357
REMARK  Name = 
REMARK  9 active torsions:
REMARK  status: ('A' for Active; 'I' for Inactive)
REMARK    1  A    between atoms: C_1  and  C_2
REMARK    2  A    between atoms: C_2  and  C_3
REMARK    3  A    between atoms: C_2  and  C_4
REMARK    4  A    between atoms: C_2  and  O_5
REMARK    5  A    between atoms: O_5  and  C_6
REMARK    6  A    between atoms: C_11  and  N_12
REMARK    7  A    between atoms: C_13  and  C_15
REMARK    8  A    between atoms: C_22  and  C_23
REMARK    9  A    between atoms: C_22  and  C_24
REMARK                            x       y       z     vdW  Elec       q    Type
REMARK                         _______ _______ _______ _____ _____    ______ ____
ROOT
ATOM      1  C   UNL     1       0.932  11.275  20.137  0.00  0.00    +0.000 C 
ATOM      2  O   UNL     1       0.987  12.147  19.281  0.00  0.00    +0.000 OA
ATOM      3  N   UNL     1       1.103   9.935  19.864  0.00  0.00    +0.000 N 
ATOM      4  C   UNL     1       0.896   8.888  20.836  0.00  0.00    +0.000 C 
ATOM      5  C   UNL     1       1.804   7.779  20.365  0.00  0.00    +0.000 C 
ATOM      6  C   UNL     1       1.768   7.872  18.833  0.00  0.00    +0.000 C 
ATOM      7  C   UNL     1       1.384   9.372  18.520  0.00  0.00    +0.000 C 
ATOM      8  C   UNL     1       0.116   9.384  17.644  0.00  0.00    +0.000 C 
ATOM      9  C   UNL     1       2.501  10.136  17.784  0.00  0.00    +0.000 C 
ENDROOT
BRANCH   6  10
ATOM     10  N   UNL     1       3.033   7.400  18.287  0.00  0.00    +0.000 N 
ATOM     11  C   UNL     1       3.266   6.073  17.976  0.00  0.00    +0.000 C 
ATOM     12  O   UNL     1       2.492   5.173  18.267  0.00  0.00    +0.000 OA
ATOM     13  H   UNL     1       3.686   8.076  17.902  0.00  0.00    +0.000 HD
BRANCH  11  14
ATOM     14  C   UNL     1       4.670   5.811  17.395  0.00  0.00    +0.000 C 
ATOM     15  C   UNL     1       5.403   4.794  18.262  0.00  0.00    +0.000 C 
ATOM     16  C   UNL     1       6.876   4.747  17.880  0.00  0.00    +0.000 C 
ATOM     17  C   UNL     1       7.518   6.112  18.088  0.00  0.00    +0.000 C 
ATOM     18  C   UNL     1       6.731   7.248  17.482  0.00  0.00    +0.000 C 
ATOM     19  O   UNL     1       7.239   8.338  17.241  0.00  0.00    +0.000 OA
ATOM     20  N   UNL     1       5.390   7.081  17.308  0.00  0.00    +0.000 N 
ATOM     21  H   UNL     1       4.948   7.852  16.818  0.00  0.00    +0.000 HD
ENDBRANCH  11  14
ENDBRANCH   6  10
BRANCH   1  22
ATOM     22  O   UNL     1       0.737  11.521  21.467  0.00  0.00    +0.000 OA
BRANCH  22  24
ATOM     23  C   UNL     1      -1.605  11.865  20.810  0.00  0.00    +0.000 C 
ATOM     24  C   UNL     1      -0.561  11.995  21.922  0.00  0.00    +0.000 C 
ATOM     25  C   UNL     1      -0.457  13.427  22.470  0.00  0.00    +0.000 C 
ATOM     26  C   UNL     1      -1.001  11.078  23.079  0.00  0.00    +0.000 C 
ENDBRANCH  22  24
ENDBRANCH   1  22
TORSDOF 4
ENDMDL
MODEL 6
REMARK VINA RESULT:      -6.2      5.622      8.281
REMARK  Name = 
REMARK  9 active torsions:
REMARK  status: ('A' for Active; 'I' for Inactive)
REMARK    1  A    between atoms: C_1  and  C_2
REMARK    2  A    between atoms: C_2  and  C_3
REMARK    3  A    between atoms: C_2  and  C_4
REMARK    4  A    between atoms: C_2  and  O_5
REMARK    5  A    between atoms: O_5  and  C_6
REMARK    6  A    between atoms: C_11  and  N_12
REMARK    7  A    between atoms: C_13  and  C_15
REMARK    8  A    between atoms: C_22  and  C_23
REMARK    9  A    between atoms: C_22  and  C_24
REMARK                            x       y       z     vdW  Elec       q    Type
REMARK                         _______ _______ _______ _____ _____    ______ ____
ROOT
ATOM      1  C   UNL     1      -0.836  10.830  19.649  0.00  0.00    +0.000 C 
ATOM      2  O   UNL     1      -1.432  10.888  20.716  0.00  0.00    +0.000 OA
ATOM      3  N   UNL     1       0.264  10.027  19.440  0.00  0.00    +0.000 N 
ATOM      4  C   UNL     1       1.061  10.061  18.237  0.00  0.00    +0.000 C 
ATOM      5  C   UNL     1       1.638   8.668  18.152  0.00  0.00    +0.000 C 
ATOM      6  C   UNL     1       1.877   8.258  19.611  0.00  0.00    +0.000 C 
ATOM      7  C   UNL     1       0.863   9.126  20.456  0.00  0.00    +0.000 C 
ATOM      8  C   UNL     1       1.656   9.931  21.504  0.00  0.00    +0.000 C 
ATOM      9  C   UNL     1      -0.195   8.274  21.183  0.00  0.00    +0.000 C 
ENDROOT
BRANCH   6  10
ATOM     10  N   UNL     1       1.751   6.812  19.737  0.00  0.00    +0.000 N 
ATOM     11  C   UNL     1       2.687   5.932  19.226  0.00  0.00    +0.000 C 
ATOM     12  O   UNL     1       3.612   6.283  18.507  0.00  0.00    +0.000 OA
ATOM     13  H   UNL     1       1.093   6.431  20.410  0.00  0.00    +0.000 HD
BRANCH  11  14
ATOM     14  C   UNL     1       2.355   4.450  19.494  0.00  0.00    +0.000 C 
ATOM     15  C   UNL     1       1.443   4.339  20.710  0.00  0.00    +0.000 C 
ATOM     16  C   UNL     1       1.349   2.889  21.162  0.00  0.00    +0.000 C 
ATOM     17  C   UNL     1       2.727   2.365  21.542  0.00  0.00    +0.000 C 
ATOM     18  C   UNL     1       3.788   2.650  20.509  0.00  0.00    +0.000 C 
ATOM     19  O   UNL     1       4.842   2.024  20.465  0.00  0.00    +0.000 OA
ATOM     20  N   UNL     1       3.606   3.712  19.675  0.00  0.00    +0.000 N 
ATOM     21  H   UNL     1       4.316   3.787  18.955  0.00  0.00    +0.000 HD
ENDBRANCH  11  14
ENDBRANCH   6  10
BRANCH   1  22
ATOM     22  O   UNL     1      -1.207  11.519  18.528  0.00  0.00    +0.000 OA
BRANCH  22  24
ATOM     23  C   UNL     1      -2.388  11.520  16.374  0.00  0.00    +0.000 C 
ATOM     24  C   UNL     1      -2.456  11.179  17.864  0.00  0.00    +0.000 C 
ATOM     25  C   UNL     1      -3.647  11.845  18.570  0.00  0.00    +0.000 C 
ATOM     26  C   UNL     1      -2.632   9.652  17.981  0.00  0.00    +0.000 C 
ENDBRANCH  22  24
ENDBRANCH   1  22
TORSDOF 4
ENDMDL
MODEL 7
REMARK VINA RESULT:      -6.1      5.512      8.214
REMARK  Name = 
REMARK  9 active torsions:
REMARK  status: ('A' for Active; 'I' for Inactive)
REMARK    1  A    between atoms: C_1  and  C_2
REMARK    2  A    between atoms: C_2  and  C_3
REMARK    3  A    between atoms: C_2  and  C_4
REMARK    4  A    between atoms: C_2  and  O_5
REMARK    5  A    between atoms: O_5  and  C_6
REMARK    6  A    between atoms: C_11  and  N_12
REMARK    7  A    between atoms: C_13  and  C_15
REMARK    8  A    between atoms: C_22  and  C_23
REMARK    9  A    between atoms: C_22  and  C_24
REMARK                            x       y       z     vdW  Elec       q    Type
REMARK                         _______ _______ _______ _____ _____    ______ ____
ROOT
ATOM      1  C   UNL     1      -0.832  10.708  19.728  0.00  0.00    +0.000 C 
ATOM      2  O   UNL     1      -1.401  10.650  20.810  0.00  0.00    +0.000 OA
ATOM      3  N   UNL     1       0.315  10.002  19.438  0.00  0.00    +0.000 N 
ATOM      4  C   UNL     1       1.073  10.174  18.222  0.00  0.00    +0.000 C 
ATOM      5  C   UNL     1       1.744   8.836  18.028  0.00  0.00    +0.000 C 
ATOM      6  C   UNL     1       2.053   8.346  19.449  0.00  0.00    +0.000 C 
ATOM      7  C   UNL     1       1.004   9.080  20.375  0.00  0.00    +0.000 C 
ATOM      8  C   UNL     1       1.768   9.868  21.458  0.00  0.00    +0.000 C 
ATOM      9  C   UNL     1       0.030   8.107  21.066  0.00  0.00    +0.000 C 
ENDROOT
BRANCH   6  10
ATOM     10  N   UNL     1       2.033   6.890  19.477  0.00  0.00    +0.000 N 
ATOM     11  C   UNL     1       3.055   6.117  18.958  0.00  0.00    +0.000 C 
ATOM     12  O   UNL     1       3.980   6.582  18.308  0.00  0.00    +0.000 OA
ATOM     13  H   UNL     1       1.377   6.418  20.093  0.00  0.00    +0.000 HD
BRANCH  11  14
ATOM     14  C   UNL     1       2.826   4.601  19.115  0.00  0.00    +0.000 C 
ATOM     15  C   UNL     1       1.555   4.193  18.379  0.00  0.00    +0.000 C 
ATOM     16  C   UNL     1       1.158   2.776  18.766  0.00  0.00    +0.000 C 
ATOM     17  C   UNL     1       0.896   2.693  20.264  0.00  0.00    +0.000 C 
ATOM     18  C   UNL     1       1.988   3.308  21.103  0.00  0.00    +0.000 C 
ATOM     19  O   UNL     1       2.130   3.037  22.291  0.00  0.00    +0.000 OA
ATOM     20  N   UNL     1       2.762   4.278  20.542  0.00  0.00    +0.000 N 
ATOM     21  H   UNL     1       3.526   4.580  21.137  0.00  0.00    +0.000 HD
ENDBRANCH  11  14
ENDBRANCH   6  10
BRANCH   1  22
ATOM     22  O   UNL     1      -1.283  11.442  18.666  0.00  0.00    +0.000 OA
BRANCH  22  24
ATOM     23  C   UNL     1      -3.716  11.775  18.699  0.00  0.00    +0.000 C 
ATOM     24  C   UNL     1      -2.535  11.073  18.025  0.00  0.00    +0.000 C 
ATOM     25  C   UNL     1      -2.697   9.545  17.987  0.00  0.00    +0.000 C 
ATOM     26  C   UNL     1      -2.467  11.576  16.570  0.00  0.00    +0.000 C 
ENDBRANCH  22  24
ENDBRANCH   1  22
TORSDOF 4
ENDMDL
MODEL 8
REMARK VINA RESULT:      -6.0      6.475      9.116
REMARK  Name = 
REMARK  9 active torsions:
REMARK  status: ('A' for Active; 'I' for Inactive)
REMARK    1  A    between atoms: C_1  and  C_2
REMARK    2  A    between atoms: C_2  and  C_3
REMARK    3  A    between atoms: C_2  and  C_4
REMARK    4  A    between atoms: C_2  and  O_5
REMARK    5  A    between atoms: O_5  and  C_6
REMARK    6  A    between atoms: C_11  and  N_12
REMARK    7  A    between atoms: C_13  and  C_15
REMARK    8  A    between atoms: C_22  and  C_23
REMARK    9  A    between atoms: C_22  and  C_24
REMARK                            x       y       z     vdW  Elec       q    Type
REMARK                         _______ _______ _______ _____ _____    ______ ____
ROOT
ATOM      1  C   UNL     1      -1.380  11.881  22.096  0.00  0.00    +0.000 C 
ATOM      2  O   UNL     1      -0.690  11.924  23.105  0.00  0.00    +0.000 OA
ATOM      3  N   UNL     1      -0.898  11.492  20.865  0.00  0.00    +0.000 N 
ATOM      4  C   UNL     1      -1.663  11.577  19.644  0.00  0.00    +0.000 C 
ATOM      5  C   UNL     1      -1.076  10.488  18.779  0.00  0.00    +0.000 C 
ATOM      6  C   UNL     1       0.417  10.472  19.136  0.00  0.00    +0.000 C 
ATOM      7  C   UNL     1       0.499  11.069  20.596  0.00  0.00    +0.000 C 
ATOM      8  C   UNL     1       1.447  12.284  20.580  0.00  0.00    +0.000 C 
ATOM      9  C   UNL     1       1.015  10.053  21.632  0.00  0.00    +0.000 C 
ENDROOT
BRANCH   6  10
ATOM     10  N   UNL     1       0.945   9.126  18.958  0.00  0.00    +0.000 N 
ATOM     11  C   UNL     1       2.041   8.851  18.161  0.00  0.00    +0.000 C 
ATOM     12  O   UNL     1       2.563   9.683  17.433  0.00  0.00    +0.000 OA
ATOM     13  H   UNL     1       0.662   8.395  19.604  0.00  0.00    +0.000 HD
BRANCH  11  14
ATOM     14  C   UNL     1       2.431   7.360  18.136  0.00  0.00    +0.000 C 
ATOM     15  C   UNL     1       2.458   6.812  19.558  0.00  0.00    +0.000 C 
ATOM     16  C   UNL     1       3.121   5.443  19.579  0.00  0.00    +0.000 C 
ATOM     17  C   UNL     1       4.554   5.543  19.072  0.00  0.00    +0.000 C 
ATOM     18  C   UNL     1       4.684   6.303  17.775  0.00  0.00    +0.000 C 
ATOM     19  O   UNL     1       5.667   6.193  17.049  0.00  0.00    +0.000 OA
ATOM     20  N   UNL     1       3.726   7.222  17.469  0.00  0.00    +0.000 N 
ATOM     21  H   UNL     1       3.836   7.627  16.546  0.00  0.00    +0.000 HD
ENDBRANCH  11  14
ENDBRANCH   6  10
BRANCH   1  22
ATOM     22  O   UNL     1      -2.717  12.170  22.072  0.00  0.00    +0.000 OA
BRANCH  22  24
ATOM     23  C   UNL     1      -2.136  14.553  21.947  0.00  0.00    +0.000 C 
ATOM     24  C   UNL     1      -3.161  13.514  22.406  0.00  0.00    +0.000 C 
ATOM     25  C   UNL     1      -3.485  13.624  23.904  0.00  0.00    +0.000 C 
ATOM     26  C   UNL     1      -4.463  13.771  21.622  0.00  0.00    +0.000 C 
ENDBRANCH  22  24
ENDBRANCH   1  22
TORSDOF 4
ENDMDL
MODEL 9
REMARK VINA RESULT:      -6.0      5.458      8.160
REMARK  Name = 
REMARK  9 active torsions:
REMARK  status: ('A' for Active; 'I' for Inactive)
REMARK    1  A    between atoms: C_1  and  C_2
REMARK    2  A    between atoms: C_2  and  C_3
REMARK    3  A    between atoms: C_2  and  C_4
REMARK    4  A    between atoms: C_2  and  O_5
REMARK    5  A    between atoms: O_5  and  C_6
REMARK    6  A    between atoms: C_11  and  N_12
REMARK    7  A    between atoms: C_13  and  C_15
REMARK    8  A    between atoms: C_22  and  C_23
REMARK    9  A    between atoms: C_22  and  C_24
REMARK                            x       y       z     vdW  Elec       q    Type
REMARK                         _______ _______ _______ _____ _____    ______ ____
ROOT
ATOM      1  C   UNL     1       0.889  12.269  20.186  0.00  0.00    +0.000 C 
ATOM      2  O   UNL     1       0.988  12.861  19.120  0.00  0.00    +0.000 OA
ATOM      3  N   UNL     1       0.845  10.895  20.287  0.00  0.00    +0.000 N 
ATOM      4  C   UNL     1       0.582  10.193  21.521  0.00  0.00    +0.000 C 
ATOM      5  C   UNL     1       1.279   8.868  21.332  0.00  0.00    +0.000 C 
ATOM      6  C   UNL     1       1.117   8.553  19.838  0.00  0.00    +0.000 C 
ATOM      7  C   UNL     1       0.921   9.957  19.140  0.00  0.00    +0.000 C 
ATOM      8  C   UNL     1      -0.407   9.938  18.358  0.00  0.00    +0.000 C 
ATOM      9  C   UNL     1       2.063  10.309  18.168  0.00  0.00    +0.000 C 
ENDROOT
BRANCH   6  10
ATOM     10  N   UNL     1       2.249   7.758  19.383  0.00  0.00    +0.000 N 
ATOM     11  C   UNL     1       2.380   6.411  19.667  0.00  0.00    +0.000 C 
ATOM     12  O   UNL     1       1.641   5.816  20.438  0.00  0.00    +0.000 OA
ATOM     13  H   UNL     1       2.846   8.124  18.647  0.00  0.00    +0.000 HD
BRANCH  11  14
ATOM     14  C   UNL     1       3.648   5.772  19.068  0.00  0.00    +0.000 C 
ATOM     15  C   UNL     1       3.995   6.454  17.750  0.00  0.00    +0.000 C 
ATOM     16  C   UNL     1       5.053   5.652  17.007  0.00  0.00    +0.000 C 
ATOM     17  C   UNL     1       4.537   4.251  16.705  0.00  0.00    +0.000 C 
ATOM     18  C   UNL     1       3.926   3.562  17.900  0.00  0.00    +0.000 C 
ATOM     19  O   UNL     1       3.781   2.345  17.949  0.00  0.00    +0.000 OA
ATOM     20  N   UNL     1       3.419   4.336  18.900  0.00  0.00    +0.000 N 
ATOM     21  H   UNL     1       3.105   3.803  19.704  0.00  0.00    +0.000 HD
ENDBRANCH  11  14
ENDBRANCH   6  10
BRANCH   1  22
ATOM     22  O   UNL     1       0.852  12.889  21.404  0.00  0.00    +0.000 OA
BRANCH  22  24
ATOM     23  C   UNL     1      -1.332  13.709  20.633  0.00  0.00    +0.000 C 
ATOM     24  C   UNL     1      -0.250  13.787  21.713  0.00  0.00    +0.000 C 
ATOM     25  C   UNL     1       0.261  15.220  21.936  0.00  0.00    +0.000 C 
ATOM     26  C   UNL     1      -0.879  13.300  23.033  0.00  0.00    +0.000 C 
ENDBRANCH  22  24
ENDBRANCH   1  22
TORSDOF 4
ENDMDL
