MODEL 1
REMARK VINA RESULT:      -7.8      0.000      0.000
REMARK  Name = 
REMARK  4 active torsions:
REMARK  status: ('A' for Active; 'I' for Inactive)
REMARK    1  A    between atoms: C_1  and  C_2
REMARK    2  A    between atoms: C_5  and  S_6
REMARK    3  A    between atoms: S_6  and  C_9
REMARK    4  A    between atoms: C_15  and  C_16
REMARK                            x       y       z     vdW  Elec       q    Type
REMARK                         _______ _______ _______ _____ _____    ______ ____
ROOT
ATOM      1  C   UNL     1       7.509   7.131  17.033  0.00  0.00    +0.000 C 
ATOM      2  C   UNL     1       6.241   6.379  17.297  0.00  0.00    +0.000 A 
ATOM      3  N   UNL     1       6.190   5.097  16.932  0.00  0.00    +0.000 NA
ATOM      4  C   UNL     1       5.004   4.491  17.099  0.00  0.00    +0.000 A 
ATOM      5  C   UNL     1       3.857   5.117  17.569  0.00  0.00    +0.000 A 
ATOM      6  C   UNL     1       3.977   6.456  17.914  0.00  0.00    +0.000 A 
ATOM      7  N   UNL     1       5.197   7.053  17.810  0.00  0.00    +0.000 NA
ENDROOT
BRANCH   6   8
ATOM      8  C   UNL     1       2.922   7.413  18.378  0.00  0.00    +0.000 A 
ATOM      9  C   UNL     1       2.444   8.446  17.546  0.00  0.00    +0.000 A 
ATOM     10  C   UNL     1       1.523   9.407  17.981  0.00  0.00    +0.000 A 
ATOM     11  C   UNL     1       0.960   9.304  19.241  0.00  0.00    +0.000 A 
ATOM     12 CL   UNL     1      -0.176  10.478  19.776  0.00  0.00    +0.000 Cl
ATOM     13  C   UNL     1       1.307   8.244  20.063  0.00  0.00    +0.000 A 
ATOM     14  C   UNL     1       2.287   7.324  19.651  0.00  0.00    +0.000 A 
ATOM     15 CL   UNL     1       2.655   6.109  20.840  0.00  0.00    +0.000 Cl
ENDBRANCH   6   8
BRANCH   5  16
ATOM     16  S   UNL     1       2.425   4.098  17.629  0.00  0.00    +0.000 S 
ATOM     17  O   UNL     1       1.277   4.988  17.535  0.00  0.00    +0.000 OA
ATOM     18  O   UNL     1       2.589   3.078  16.612  0.00  0.00    +0.000 OA
BRANCH  16  19
ATOM     19  C   UNL     1       2.212   3.313  19.195  0.00  0.00    +0.000 A 
ATOM     20  C   UNL     1       3.320   2.810  19.879  0.00  0.00    +0.000 A 
ATOM     21  C   UNL     1       3.163   2.370  21.194  0.00  0.00    +0.000 A 
ATOM     22  C   UNL     1       1.913   2.437  21.815  0.00  0.00    +0.000 A 
ATOM     23  C   UNL     1       0.807   2.924  21.117  0.00  0.00    +0.000 A 
ATOM     24  C   UNL     1       0.952   3.360  19.801  0.00  0.00    +0.000 A 
ENDBRANCH  16  19
ENDBRANCH   5  16
TORSDOF 3
ENDMDL
MODEL 2
REMARK VINA RESULT:      -7.8      3.285      5.885
REMARK  Name = 
REMARK  4 active torsions:
REMARK  status: ('A' for Active; 'I' for Inactive)
REMARK    1  A    between atoms: C_1  and  C_2
REMARK    2  A    between atoms: C_5  and  S_6
REMARK    3  A    between atoms: S_6  and  C_9
REMARK    4  A    between atoms: C_15  and  C_16
REMARK                            x       y       z     vdW  Elec       q    Type
REMARK                         _______ _______ _______ _____ _____    ______ ____
ROOT
ATOM      1  C   UNL     1       4.989   3.613  12.520  0.00  0.00    +0.000 C 
ATOM      2  C   UNL     1       5.478   4.030  13.873  0.00  0.00    +0.000 A 
ATOM      3  N   UNL     1       6.770   4.334  14.001  0.00  0.00    +0.000 NA
ATOM      4  C   UNL     1       7.183   4.607  15.249  0.00  0.00    +0.000 A 
ATOM      5  C   UNL     1       6.377   4.546  16.378  0.00  0.00    +0.000 A 
ATOM      6  C   UNL     1       5.046   4.207  16.174  0.00  0.00    +0.000 A 
ATOM      7  N   UNL     1       4.611   3.997  14.900  0.00  0.00    +0.000 NA
ENDROOT
BRANCH   6   8
ATOM      8  C   UNL     1       3.958   3.992  17.181  0.00  0.00    +0.000 A 
ATOM      9  C   UNL     1       3.621   2.703  17.640  0.00  0.00    +0.000 A 
ATOM     10  C   UNL     1       2.553   2.462  18.514  0.00  0.00    +0.000 A 
ATOM     11  C   UNL     1       1.846   3.524  19.049  0.00  0.00    +0.000 A 
ATOM     12 CL   UNL     1       0.539   3.233  20.127  0.00  0.00    +0.000 Cl
ATOM     13  C   UNL     1       2.204   4.821  18.722  0.00  0.00    +0.000 A 
ATOM     14  C   UNL     1       3.228   5.056  17.787  0.00  0.00    +0.000 A 
ATOM     15 CL   UNL     1       3.488   6.739  17.435  0.00  0.00    +0.000 Cl
ENDBRANCH   6   8
BRANCH   5  16
ATOM     16  S   UNL     1       7.194   4.894  17.896  0.00  0.00    +0.000 S 
ATOM     17  O   UNL     1       6.248   4.587  18.958  0.00  0.00    +0.000 OA
ATOM     18  O   UNL     1       8.454   4.178  17.871  0.00  0.00    +0.000 OA
BRANCH  16  19
ATOM     19  C   UNL     1       7.520   6.615  18.116  0.00  0.00    +0.000 A 
ATOM     20  C   UNL     1       8.483   7.029  19.037  0.00  0.00    +0.000 A 
ATOM     21  C   UNL     1       8.866   8.370  19.061  0.00  0.00    +0.000 A 
ATOM     22  C   UNL     1       8.294   9.282  18.170  0.00  0.00    +0.000 A 
ATOM     23  C   UNL     1       7.319   8.863  17.265  0.00  0.00    +0.000 A 
ATOM     24  C   UNL     1       6.924   7.526  17.237  0.00  0.00    +0.000 A 
ENDBRANCH  16  19
ENDBRANCH   5  16
TORSDOF 3
ENDMDL
MODEL 3
REMARK VINA RESULT:      -7.6      3.606      4.537
REMARK  Name = 
REMARK  4 active torsions:
REMARK  status: ('A' for Active; 'I' for Inactive)
REMARK    1  A    between atoms: C_1  and  C_2
REMARK    2  A    between atoms: C_5  and  S_6
REMARK    3  A    between atoms: S_6  and  C_9
REMARK    4  A    between atoms: C_15  and  C_16
REMARK                            x       y       z     vdW  Elec       q    Type
REMARK                         _______ _______ _______ _____ _____    ______ ____
ROOT
ATOM      1  C   UNL     1       7.458   4.605  13.270  0.00  0.00    +0.000 C 
ATOM      2  C   UNL     1       6.766   4.777  14.588  0.00  0.00    +0.000 A 
ATOM      3  N   UNL     1       5.622   4.121  14.780  0.00  0.00    +0.000 NA
ATOM      4  C   UNL     1       4.989   4.381  15.936  0.00  0.00    +0.000 A 
ATOM      5  C   UNL     1       5.422   5.298  16.884  0.00  0.00    +0.000 A 
ATOM      6  C   UNL     1       6.613   5.958  16.611  0.00  0.00    +0.000 A 
ATOM      7  N   UNL     1       7.291   5.644  15.472  0.00  0.00    +0.000 NA
ENDROOT
BRANCH   6   8
ATOM      8  C   UNL     1       7.296   7.040  17.391  0.00  0.00    +0.000 A 
ATOM      9  C   UNL     1       7.165   8.399  17.040  0.00  0.00    +0.000 A 
ATOM     10  C   UNL     1       7.859   9.423  17.695  0.00  0.00    +0.000 A 
ATOM     11  C   UNL     1       8.634   9.133  18.804  0.00  0.00    +0.000 A 
ATOM     12 CL   UNL     1       9.483  10.389  19.614  0.00  0.00    +0.000 Cl
ATOM     13  C   UNL     1       8.712   7.829  19.265  0.00  0.00    +0.000 A 
ATOM     14  C   UNL     1       8.073   6.793  18.560  0.00  0.00    +0.000 A 
ATOM     15 CL   UNL     1       8.345   5.212  19.233  0.00  0.00    +0.000 Cl
ENDBRANCH   6   8
BRANCH   5  16
ATOM     16  S   UNL     1       4.366   5.484  18.277  0.00  0.00    +0.000 S 
ATOM     17  O   UNL     1       5.199   5.315  19.457  0.00  0.00    +0.000 OA
ATOM     18  O   UNL     1       3.660   6.740  18.108  0.00  0.00    +0.000 OA
BRANCH  16  19
ATOM     19  C   UNL     1       3.183   4.181  18.415  0.00  0.00    +0.000 A 
ATOM     20  C   UNL     1       3.554   2.961  18.982  0.00  0.00    +0.000 A 
ATOM     21  C   UNL     1       2.567   2.015  19.261  0.00  0.00    +0.000 A 
ATOM     22  C   UNL     1       1.227   2.291  18.979  0.00  0.00    +0.000 A 
ATOM     23  C   UNL     1       0.867   3.506  18.394  0.00  0.00    +0.000 A 
ATOM     24  C   UNL     1       1.846   4.455  18.106  0.00  0.00    +0.000 A 
ENDBRANCH  16  19
ENDBRANCH   5  16
TORSDOF 3
ENDMDL
MODEL 4
REMARK VINA RESULT:      -7.5      3.574      4.586
REMARK  Name = 
REMARK  4 active torsions:
REMARK  status: ('A' for Active; 'I' for Inactive)
REMARK    1  A    between atoms: C_1  and  C_2
REMARK    2  A    between atoms: C_5  and  S_6
REMARK    3  A    between atoms: S_6  and  C_9
REMARK    4  A    between atoms: C_15  and  C_16
REMARK                            x       y       z     vdW  Elec       q    Type
REMARK                         _______ _______ _______ _____ _____    ______ ____
ROOT
ATOM      1  C   UNL     1       7.014   4.299  13.482  0.00  0.00    +0.000 C 
ATOM      2  C   UNL     1       6.408   4.570  14.824  0.00  0.00    +0.000 A 
ATOM      3  N   UNL     1       5.264   3.955  15.126  0.00  0.00    +0.000 NA
ATOM      4  C   UNL     1       4.708   4.301  16.298  0.00  0.00    +0.000 A 
ATOM      5  C   UNL     1       5.217   5.265  17.158  0.00  0.00    +0.000 A 
ATOM      6  C   UNL     1       6.402   5.878  16.773  0.00  0.00    +0.000 A 
ATOM      7  N   UNL     1       7.002   5.477  15.618  0.00  0.00    +0.000 NA
ENDROOT
BRANCH   6   8
ATOM      8  C   UNL     1       7.153   6.989  17.441  0.00  0.00    +0.000 A 
ATOM      9  C   UNL     1       6.997   8.331  17.039  0.00  0.00    +0.000 A 
ATOM     10  C   UNL     1       7.749   9.380  17.583  0.00  0.00    +0.000 A 
ATOM     11  C   UNL     1       8.614   9.136  18.635  0.00  0.00    +0.000 A 
ATOM     12 CL   UNL     1       9.534  10.421  19.311  0.00  0.00    +0.000 Cl
ATOM     13  C   UNL     1       8.726   7.854  19.148  0.00  0.00    +0.000 A 
ATOM     14  C   UNL     1       8.025   6.791  18.551  0.00  0.00    +0.000 A 
ATOM     15 CL   UNL     1       8.347   5.242  19.272  0.00  0.00    +0.000 Cl
ENDBRANCH   6   8
BRANCH   5  16
ATOM     16  S   UNL     1       4.251   5.563  18.597  0.00  0.00    +0.000 S 
ATOM     17  O   UNL     1       5.139   5.398  19.737  0.00  0.00    +0.000 OA
ATOM     18  O   UNL     1       3.602   6.847  18.412  0.00  0.00    +0.000 OA
BRANCH  16  19
ATOM     19  C   UNL     1       3.013   4.331  18.855  0.00  0.00    +0.000 A 
ATOM     20  C   UNL     1       1.757   4.471  18.264  0.00  0.00    +0.000 A 
ATOM     21  C   UNL     1       0.860   3.403  18.316  0.00  0.00    +0.000 A 
ATOM     22  C   UNL     1       1.221   2.210  18.948  0.00  0.00    +0.000 A 
ATOM     23  C   UNL     1       2.472   2.086  19.552  0.00  0.00    +0.000 A 
ATOM     24  C   UNL     1       3.373   3.149  19.512  0.00  0.00    +0.000 A 
ENDBRANCH  16  19
ENDBRANCH   5  16
TORSDOF 3
ENDMDL
MODEL 5
REMARK VINA RESULT:      -7.4      1.180      1.659
REMARK  Name = 
REMARK  4 active torsions:
REMARK  status: ('A' for Active; 'I' for Inactive)
REMARK    1  A    between atoms: C_1  and  C_2
REMARK    2  A    between atoms: C_5  and  S_6
REMARK    3  A    between atoms: S_6  and  C_9
REMARK    4  A    between atoms: C_15  and  C_16
REMARK                            x       y       z     vdW  Elec       q    Type
REMARK                         _______ _______ _______ _____ _____    ______ ____
ROOT
ATOM      1  C   UNL     1       7.038   7.455  16.859  0.00  0.00    +0.000 C 
ATOM      2  C   UNL     1       5.908   6.514  17.143  0.00  0.00    +0.000 A 
ATOM      3  N   UNL     1       5.861   5.372  16.454  0.00  0.00    +0.000 NA
ATOM      4  C   UNL     1       4.781   4.605  16.671  0.00  0.00    +0.000 A 
ATOM      5  C   UNL     1       3.726   4.946  17.506  0.00  0.00    +0.000 A 
ATOM      6  C   UNL     1       3.832   6.157  18.179  0.00  0.00    +0.000 A 
ATOM      7  N   UNL     1       4.960   6.902  18.013  0.00  0.00    +0.000 NA
ENDROOT
BRANCH   6   8
ATOM      8  C   UNL     1       2.843   6.827  19.083  0.00  0.00    +0.000 A 
ATOM      9  C   UNL     1       2.503   6.284  20.338  0.00  0.00    +0.000 A 
ATOM     10  C   UNL     1       1.520   6.840  21.166  0.00  0.00    +0.000 A 
ATOM     11  C   UNL     1       0.913   8.032  20.813  0.00  0.00    +0.000 A 
ATOM     12 CL   UNL     1      -0.290   8.721  21.829  0.00  0.00    +0.000 Cl
ATOM     13  C   UNL     1       1.287   8.672  19.643  0.00  0.00    +0.000 A 
ATOM     14  C   UNL     1       2.221   8.073  18.778  0.00  0.00    +0.000 A 
ATOM     15 CL   UNL     1       2.510   8.976  17.320  0.00  0.00    +0.000 Cl
ENDBRANCH   6   8
BRANCH   5  16
ATOM     16  S   UNL     1       2.409   3.782  17.555  0.00  0.00    +0.000 S 
ATOM     17  O   UNL     1       1.186   4.525  17.288  0.00  0.00    +0.000 OA
ATOM     18  O   UNL     1       2.766   2.701  16.657  0.00  0.00    +0.000 OA
BRANCH  16  19
ATOM     19  C   UNL     1       2.145   3.118  19.170  0.00  0.00    +0.000 A 
ATOM     20  C   UNL     1       3.231   2.683  19.930  0.00  0.00    +0.000 A 
ATOM     21  C   UNL     1       3.030   2.345  21.269  0.00  0.00    +0.000 A 
ATOM     22  C   UNL     1       1.758   2.446  21.837  0.00  0.00    +0.000 A 
ATOM     23  C   UNL     1       0.674   2.864  21.065  0.00  0.00    +0.000 A 
ATOM     24  C   UNL     1       0.863   3.199  19.725  0.00  0.00    +0.000 A 
ENDBRANCH  16  19
ENDBRANCH   5  16
TORSDOF 3
ENDMDL
MODEL 6
REMARK VINA RESULT:      -7.1      3.220      6.014
REMARK  Name = 
REMARK  4 active torsions:
REMARK  status: ('A' for Active; 'I' for Inactive)
REMARK    1  A    between atoms: C_1  and  C_2
REMARK    2  A    between atoms: C_5  and  S_6
REMARK    3  A    between atoms: S_6  and  C_9
REMARK    4  A    between atoms: C_15  and  C_16
REMARK                            x       y       z     vdW  Elec       q    Type
REMARK                         _______ _______ _______ _____ _____    ______ ____
ROOT
ATOM      1  C   UNL     1       5.375   3.647  12.778  0.00  0.00    +0.000 C 
ATOM      2  C   UNL     1       5.753   4.179  14.126  0.00  0.00    +0.000 A 
ATOM      3  N   UNL     1       7.003   4.609  14.297  0.00  0.00    +0.000 NA
ATOM      4  C   UNL     1       7.324   4.986  15.545  0.00  0.00    +0.000 A 
ATOM      5  C   UNL     1       6.470   4.908  16.637  0.00  0.00    +0.000 A 
ATOM      6  C   UNL     1       5.188   4.434  16.390  0.00  0.00    +0.000 A 
ATOM      7  N   UNL     1       4.840   4.118  15.112  0.00  0.00    +0.000 NA
ENDROOT
BRANCH   6   8
ATOM      8  C   UNL     1       4.074   4.171  17.356  0.00  0.00    +0.000 A 
ATOM      9  C   UNL     1       3.799   2.872  17.830  0.00  0.00    +0.000 A 
ATOM     10  C   UNL     1       2.712   2.582  18.664  0.00  0.00    +0.000 A 
ATOM     11  C   UNL     1       1.918   3.607  19.146  0.00  0.00    +0.000 A 
ATOM     12 CL   UNL     1       0.587   3.256  20.176  0.00  0.00    +0.000 Cl
ATOM     13  C   UNL     1       2.208   4.918  18.806  0.00  0.00    +0.000 A 
ATOM     14  C   UNL     1       3.255   5.199  17.909  0.00  0.00    +0.000 A 
ATOM     15 CL   UNL     1       3.424   6.888  17.530  0.00  0.00    +0.000 Cl
ENDBRANCH   6   8
BRANCH   5  16
ATOM     16  S   UNL     1       7.172   5.411  18.168  0.00  0.00    +0.000 S 
ATOM     17  O   UNL     1       6.083   5.455  19.132  0.00  0.00    +0.000 OA
ATOM     18  O   UNL     1       8.288   4.523  18.433  0.00  0.00    +0.000 OA
BRANCH  16  19
ATOM     19  C   UNL     1       7.763   7.074  18.135  0.00  0.00    +0.000 A 
ATOM     20  C   UNL     1       7.220   7.988  17.231  0.00  0.00    +0.000 A 
ATOM     21  C   UNL     1       7.556   9.338  17.347  0.00  0.00    +0.000 A 
ATOM     22  C   UNL     1       8.420   9.764  18.358  0.00  0.00    +0.000 A 
ATOM     23  C   UNL     1       8.972   8.841  19.246  0.00  0.00    +0.000 A 
ATOM     24  C   UNL     1       8.648   7.489  19.135  0.00  0.00    +0.000 A 
ENDBRANCH  16  19
ENDBRANCH   5  16
TORSDOF 3
ENDMDL
MODEL 7
REMARK VINA RESULT:      -7.1      3.165      5.752
REMARK  Name = 
REMARK  4 active torsions:
REMARK  status: ('A' for Active; 'I' for Inactive)
REMARK    1  A    between atoms: C_1  and  C_2
REMARK    2  A    between atoms: C_5  and  S_6
REMARK    3  A    between atoms: S_6  and  C_9
REMARK    4  A    between atoms: C_15  and  C_16
REMARK                            x       y       z     vdW  Elec       q    Type
REMARK                         _______ _______ _______ _____ _____    ______ ____
ROOT
ATOM      1  C   UNL     1       4.879   3.462  12.601  0.00  0.00    +0.000 C 
ATOM      2  C   UNL     1       5.408   3.915  13.926  0.00  0.00    +0.000 A 
ATOM      3  N   UNL     1       6.725   4.086  14.044  0.00  0.00    +0.000 NA
ATOM      4  C   UNL     1       7.163   4.399  15.274  0.00  0.00    +0.000 A 
ATOM      5  C   UNL     1       6.354   4.503  16.398  0.00  0.00    +0.000 A 
ATOM      6  C   UNL     1       4.995   4.295  16.206  0.00  0.00    +0.000 A 
ATOM      7  N   UNL     1       4.541   4.046  14.945  0.00  0.00    +0.000 NA
ENDROOT
BRANCH   6   8
ATOM      8  C   UNL     1       3.889   4.268  17.216  0.00  0.00    +0.000 A 
ATOM      9  C   UNL     1       3.213   5.443  17.602  0.00  0.00    +0.000 A 
ATOM     10  C   UNL     1       2.236   5.463  18.606  0.00  0.00    +0.000 A 
ATOM     11  C   UNL     1       1.820   4.279  19.189  0.00  0.00    +0.000 A 
ATOM     12 CL   UNL     1       0.617   4.298  20.416  0.00  0.00    +0.000 Cl
ATOM     13  C   UNL     1       2.369   3.078  18.769  0.00  0.00    +0.000 A 
ATOM     14  C   UNL     1       3.402   3.069  17.815  0.00  0.00    +0.000 A 
ATOM     15 CL   UNL     1       4.027   1.484  17.468  0.00  0.00    +0.000 Cl
ENDBRANCH   6   8
BRANCH   5  16
ATOM     16  S   UNL     1       7.202   4.864  17.895  0.00  0.00    +0.000 S 
ATOM     17  O   UNL     1       6.293   4.526  18.980  0.00  0.00    +0.000 OA
ATOM     18  O   UNL     1       8.480   4.182  17.833  0.00  0.00    +0.000 OA
BRANCH  16  19
ATOM     19  C   UNL     1       7.488   6.592  18.118  0.00  0.00    +0.000 A 
ATOM     20  C   UNL     1       8.505   7.026  18.968  0.00  0.00    +0.000 A 
ATOM     21  C   UNL     1       8.844   8.379  18.984  0.00  0.00    +0.000 A 
ATOM     22  C   UNL     1       8.176   9.283  18.155  0.00  0.00    +0.000 A 
ATOM     23  C   UNL     1       7.148   8.843  17.320  0.00  0.00    +0.000 A 
ATOM     24  C   UNL     1       6.796   7.494  17.302  0.00  0.00    +0.000 A 
ENDBRANCH  16  19
ENDBRANCH   5  16
TORSDOF 3
ENDMDL
MODEL 8
REMARK VINA RESULT:      -7.1      3.427      5.146
REMARK  Name = 
REMARK  4 active torsions:
REMARK  status: ('A' for Active; 'I' for Inactive)
REMARK    1  A    between atoms: C_1  and  C_2
REMARK    2  A    between atoms: C_5  and  S_6
REMARK    3  A    between atoms: S_6  and  C_9
REMARK    4  A    between atoms: C_15  and  C_16
REMARK                            x       y       z     vdW  Elec       q    Type
REMARK                         _______ _______ _______ _____ _____    ______ ____
ROOT
ATOM      1  C   UNL     1       7.058   4.447  13.340  0.00  0.00    +0.000 C 
ATOM      2  C   UNL     1       6.496   4.592  14.721  0.00  0.00    +0.000 A 
ATOM      3  N   UNL     1       5.411   3.880  15.029  0.00  0.00    +0.000 NA
ATOM      4  C   UNL     1       4.887   4.114  16.242  0.00  0.00    +0.000 A 
ATOM      5  C   UNL     1       5.367   5.057  17.141  0.00  0.00    +0.000 A 
ATOM      6  C   UNL     1       6.489   5.775  16.748  0.00  0.00    +0.000 A 
ATOM      7  N   UNL     1       7.063   5.489  15.546  0.00  0.00    +0.000 NA
ENDROOT
BRANCH   6   8
ATOM      8  C   UNL     1       7.192   6.893  17.454  0.00  0.00    +0.000 A 
ATOM      9  C   UNL     1       7.006   8.238  17.076  0.00  0.00    +0.000 A 
ATOM     10  C   UNL     1       7.714   9.297  17.658  0.00  0.00    +0.000 A 
ATOM     11  C   UNL     1       8.563   9.056  18.724  0.00  0.00    +0.000 A 
ATOM     12 CL   UNL     1       9.430  10.354  19.446  0.00  0.00    +0.000 Cl
ATOM     13  C   UNL     1       8.702   7.768  19.214  0.00  0.00    +0.000 A 
ATOM     14  C   UNL     1       8.046   6.698  18.579  0.00  0.00    +0.000 A 
ATOM     15 CL   UNL     1       8.398   5.144  19.276  0.00  0.00    +0.000 Cl
ENDBRANCH   6   8
BRANCH   5  16
ATOM     16  S   UNL     1       4.448   5.198  18.634  0.00  0.00    +0.000 S 
ATOM     17  O   UNL     1       3.456   4.135  18.614  0.00  0.00    +0.000 OA
ATOM     18  O   UNL     1       5.408   5.222  19.720  0.00  0.00    +0.000 OA
BRANCH  16  19
ATOM     19  C   UNL     1       3.477   6.671  18.700  0.00  0.00    +0.000 A 
ATOM     20  C   UNL     1       3.429   7.524  17.597  0.00  0.00    +0.000 A 
ATOM     21  C   UNL     1       2.511   8.575  17.592  0.00  0.00    +0.000 A 
ATOM     22  C   UNL     1       1.650   8.763  18.676  0.00  0.00    +0.000 A 
ATOM     23  C   UNL     1       1.717   7.916  19.782  0.00  0.00    +0.000 A 
ATOM     24  C   UNL     1       2.635   6.867  19.800  0.00  0.00    +0.000 A 
ENDBRANCH  16  19
ENDBRANCH   5  16
TORSDOF 3
ENDMDL
MODEL 9
REMARK VINA RESULT:      -7.0      0.216      1.012
REMARK  Name = 
REMARK  4 active torsions:
REMARK  status: ('A' for Active; 'I' for Inactive)
REMARK    1  A    between atoms: C_1  and  C_2
REMARK    2  A    between atoms: C_5  and  S_6
REMARK    3  A    between atoms: S_6  and  C_9
REMARK    4  A    between atoms: C_15  and  C_16
REMARK                            x       y       z     vdW  Elec       q    Type
REMARK                         _______ _______ _______ _____ _____    ______ ____
ROOT
ATOM      1  C   UNL     1       7.596   7.346  17.139  0.00  0.00    +0.000 C 
ATOM      2  C   UNL     1       6.352   6.555  17.404  0.00  0.00    +0.000 A 
ATOM      3  N   UNL     1       6.359   5.260  17.086  0.00  0.00    +0.000 NA
ATOM      4  C   UNL     1       5.193   4.614  17.250  0.00  0.00    +0.000 A 
ATOM      5  C   UNL     1       4.013   5.212  17.672  0.00  0.00    +0.000 A 
ATOM      6  C   UNL     1       4.074   6.567  17.969  0.00  0.00    +0.000 A 
ATOM      7  N   UNL     1       5.272   7.206  17.870  0.00  0.00    +0.000 NA
ENDROOT
BRANCH   6   8
ATOM      8  C   UNL     1       2.972   7.497  18.374  0.00  0.00    +0.000 A 
ATOM      9  C   UNL     1       2.486   8.491  17.501  0.00  0.00    +0.000 A 
ATOM     10  C   UNL     1       1.520   9.430  17.880  0.00  0.00    +0.000 A 
ATOM     11  C   UNL     1       0.921   9.341  19.125  0.00  0.00    +0.000 A 
ATOM     12 CL   UNL     1      -0.270  10.489  19.592  0.00  0.00    +0.000 Cl
ATOM     13  C   UNL     1       1.278   8.317  19.986  0.00  0.00    +0.000 A 
ATOM     14  C   UNL     1       2.301   7.420  19.630  0.00  0.00    +0.000 A 
ATOM     15 CL   UNL     1       2.673   6.251  20.862  0.00  0.00    +0.000 Cl
ENDBRANCH   6   8
BRANCH   5  16
ATOM     16  S   UNL     1       2.619   4.141  17.739  0.00  0.00    +0.000 S 
ATOM     17  O   UNL     1       1.455   4.952  17.415  0.00  0.00    +0.000 OA
ATOM     18  O   UNL     1       2.920   3.002  16.894  0.00  0.00    +0.000 OA
BRANCH  16  19
ATOM     19  C   UNL     1       2.280   3.565  19.372  0.00  0.00    +0.000 A 
ATOM     20  C   UNL     1       0.967   3.541  19.845  0.00  0.00    +0.000 A 
ATOM     21  C   UNL     1       0.693   2.906  21.056  0.00  0.00    +0.000 A 
ATOM     22  C   UNL     1       1.722   2.299  21.782  0.00  0.00    +0.000 A 
ATOM     23  C   UNL     1       3.034   2.343  21.311  0.00  0.00    +0.000 A 
ATOM     24  C   UNL     1       3.320   2.981  20.105  0.00  0.00    +0.000 A 
ENDBRANCH  16  19
ENDBRANCH   5  16
TORSDOF 3
ENDMDL
