MODEL 1
REMARK VINA RESULT:      -7.9      0.000      0.000
REMARK  Name = 
REMARK  14 active torsions:
REMARK  status: ('A' for Active; 'I' for Inactive)
REMARK    1  A    between atoms: C_2  and  C_3
REMARK    2  A    between atoms: C_3  and  N_4
REMARK    3  A    between atoms: N_4  and  C_5
REMARK    4  A    between atoms: N_4  and  C_6
REMARK    5  A    between atoms: C_6  and  C_7
REMARK    6  A    between atoms: C_11  and  O_12
REMARK    7  A    between atoms: O_12  and  C_13
REMARK    8  A    between atoms: C_13  and  C_14
REMARK    9  A    between atoms: C_14  and  C_15
REMARK   10  A    between atoms: C_15  and  C_16
REMARK   11  A    between atoms: N_19  and  C_20
REMARK   12  A    between atoms: C_20  and  C_21
REMARK   13  A    between atoms: C_26  and  C_27
REMARK   14  A    between atoms: N_33  and  C_34
REMARK                            x       y       z     vdW  Elec       q    Type
REMARK                         _______ _______ _______ _____ _____    ______ ____
ROOT
ATOM      1  O   UNL     1       2.349   5.579  19.843  0.00  0.00    +0.000 OA
ENDROOT
BRANCH   1   6
ATOM      2  C   UNL     1       0.304  11.024  20.968  0.00  0.00    +0.000 A 
ATOM      3  C   UNL     1       0.451   9.804  21.614  0.00  0.00    +0.000 A 
ATOM      4  C   UNL     1       1.080   8.895  20.722  0.00  0.00    +0.000 A 
ATOM      5  C   UNL     1       1.442   7.534  20.788  0.00  0.00    +0.000 A 
ATOM      6  C   UNL     1       2.026   6.905  19.677  0.00  0.00    +0.000 A 
ATOM      7  C   UNL     1       2.196   7.616  18.493  0.00  0.00    +0.000 A 
ATOM      8  C   UNL     1       1.859   8.965  18.410  0.00  0.00    +0.000 A 
ATOM      9  C   UNL     1       1.316   9.593  19.542  0.00  0.00    +0.000 A 
ATOM     10  N   UNL     1       0.943  10.904  19.756  0.00  0.00    +0.000 N 
ATOM     11  C   UNL     1       1.248  11.968  18.814  0.00  0.00    +0.000 C 
BRANCH   2  12
ATOM     12  C   UNL     1      -0.386  12.256  21.472  0.00  0.00    +0.000 C 
BRANCH  12  13
ATOM     13  N   UNL     1      -1.846  12.234  21.314  0.00  0.00    +0.000 NA
ATOM     14  C   UNL     1      -2.242  13.343  20.423  0.00  0.00    +0.000 C 
BRANCH  13  15
ATOM     15  C   UNL     1      -2.551  12.338  22.606  0.00  0.00    +0.000 C 
BRANCH  15  17
ATOM     16  C   UNL     1      -1.427  14.479  24.064  0.00  0.00    +0.000 C 
ATOM     17  C   UNL     1      -1.947  13.490  23.391  0.00  0.00    +0.000 C 
ENDBRANCH  15  17
ENDBRANCH  13  15
ENDBRANCH  12  13
ENDBRANCH   2  12
ENDBRANCH   1   6
BRANCH   1  18
ATOM     18  C   UNL     1       2.200   5.046  21.166  0.00  0.00    +0.000 C 
BRANCH  18  19
ATOM     19  C   UNL     1       1.325   3.792  21.076  0.00  0.00    +0.000 C 
BRANCH  19  20
ATOM     20  C   UNL     1       2.126   2.544  20.727  0.00  0.00    +0.000 C 
BRANCH  20  21
ATOM     21  C   UNL     1       1.971   1.954  19.299  0.00  0.00    +0.000 C 
ATOM     22  C   UNL     1       3.260   1.554  18.587  0.00  0.00    +0.000 C 
ATOM     23  C   UNL     1       3.978   2.682  17.833  0.00  0.00    +0.000 C 
ATOM     24  N   UNL     1       3.143   3.532  16.985  0.00  0.00    +0.000 NA
ATOM     25  C   UNL     1       1.796   3.819  17.497  0.00  0.00    +0.000 C 
ATOM     26  C   UNL     1       1.088   2.749  18.339  0.00  0.00    +0.000 C 
BRANCH  24  27
ATOM     27  C   UNL     1       3.847   4.813  16.667  0.00  0.00    +0.000 C 
BRANCH  27  28
ATOM     28  C   UNL     1       5.249   4.959  17.253  0.00  0.00    +0.000 A 
ATOM     29  C   UNL     1       5.358   5.482  18.558  0.00  0.00    +0.000 A 
ATOM     30  C   UNL     1       6.591   5.587  19.205  0.00  0.00    +0.000 A 
ATOM     31  C   UNL     1       7.750   5.177  18.557  0.00  0.00    +0.000 A 
ATOM     32  C   UNL     1       7.672   4.644  17.273  0.00  0.00    +0.000 A 
ATOM     33  C   UNL     1       6.429   4.513  16.610  0.00  0.00    +0.000 A 
ATOM     34  C   UNL     1       6.441   3.861  15.254  0.00  0.00    +0.000 C 
ENDBRANCH  27  28
ENDBRANCH  24  27
ENDBRANCH  20  21
ENDBRANCH  19  20
ENDBRANCH  18  19
ENDBRANCH   1  18
TORSDOF 11
ENDMDL
MODEL 2
REMARK VINA RESULT:      -7.8      5.476     10.199
REMARK  Name = 
REMARK  14 active torsions:
REMARK  status: ('A' for Active; 'I' for Inactive)
REMARK    1  A    between atoms: C_2  and  C_3
REMARK    2  A    between atoms: C_3  and  N_4
REMARK    3  A    between atoms: N_4  and  C_5
REMARK    4  A    between atoms: N_4  and  C_6
REMARK    5  A    between atoms: C_6  and  C_7
REMARK    6  A    between atoms: C_11  and  O_12
REMARK    7  A    between atoms: O_12  and  C_13
REMARK    8  A    between atoms: C_13  and  C_14
REMARK    9  A    between atoms: C_14  and  C_15
REMARK   10  A    between atoms: C_15  and  C_16
REMARK   11  A    between atoms: N_19  and  C_20
REMARK   12  A    between atoms: C_20  and  C_21
REMARK   13  A    between atoms: C_26  and  C_27
REMARK   14  A    between atoms: N_33  and  C_34
REMARK                            x       y       z     vdW  Elec       q    Type
REMARK                         _______ _______ _______ _____ _____    ______ ____
ROOT
ATOM      1  O   UNL     1       7.860   7.558  17.076  0.00  0.00    +0.000 OA
ENDROOT
BRANCH   1   6
ATOM      2  C   UNL     1       3.761   3.315  17.615  0.00  0.00    +0.000 A 
ATOM      3  C   UNL     1       4.245   4.191  16.652  0.00  0.00    +0.000 A 
ATOM      4  C   UNL     1       5.309   4.940  17.220  0.00  0.00    +0.000 A 
ATOM      5  C   UNL     1       6.140   5.983  16.761  0.00  0.00    +0.000 A 
ATOM      6  C   UNL     1       7.095   6.552  17.618  0.00  0.00    +0.000 A 
ATOM      7  C   UNL     1       7.182   6.119  18.938  0.00  0.00    +0.000 A 
ATOM      8  C   UNL     1       6.382   5.081  19.408  0.00  0.00    +0.000 A 
ATOM      9  C   UNL     1       5.461   4.490  18.528  0.00  0.00    +0.000 A 
ATOM     10  N   UNL     1       4.592   3.433  18.704  0.00  0.00    +0.000 N 
ATOM     11  C   UNL     1       4.628   2.579  19.879  0.00  0.00    +0.000 C 
BRANCH   2  12
ATOM     12  C   UNL     1       2.584   2.391  17.512  0.00  0.00    +0.000 C 
BRANCH  12  13
ATOM     13  N   UNL     1       1.305   3.002  17.898  0.00  0.00    +0.000 NA
ATOM     14  C   UNL     1       1.386   4.457  17.663  0.00  0.00    +0.000 C 
BRANCH  13  15
ATOM     15  C   UNL     1       0.955   2.729  19.305  0.00  0.00    +0.000 C 
BRANCH  15  17
ATOM     16  C   UNL     1       1.609   5.005  20.844  0.00  0.00    +0.000 C 
ATOM     17  C   UNL     1       1.307   3.955  20.133  0.00  0.00    +0.000 C 
ENDBRANCH  15  17
ENDBRANCH  13  15
ENDBRANCH  12  13
ENDBRANCH   2  12
ENDBRANCH   1   6
BRANCH   1  18
ATOM     18  C   UNL     1       7.714   8.858  17.664  0.00  0.00    +0.000 C 
BRANCH  18  19
ATOM     19  C   UNL     1       8.931   9.113  18.558  0.00  0.00    +0.000 C 
BRANCH  19  20
ATOM     20  C   UNL     1       8.998  10.551  19.059  0.00  0.00    +0.000 C 
BRANCH  20  21
ATOM     21  C   UNL     1      10.398  11.198  19.235  0.00  0.00    +0.000 C 
ATOM     22  C   UNL     1      10.494  12.346  20.235  0.00  0.00    +0.000 C 
ATOM     23  C   UNL     1      10.137  13.734  19.686  0.00  0.00    +0.000 C 
ATOM     24  N   UNL     1      10.729  14.097  18.400  0.00  0.00    +0.000 NA
ATOM     25  C   UNL     1      10.862  13.005  17.426  0.00  0.00    +0.000 C 
ATOM     26  C   UNL     1      11.122  11.586  17.947  0.00  0.00    +0.000 C 
BRANCH  24  27
ATOM     27  C   UNL     1       9.986  15.239  17.781  0.00  0.00    +0.000 C 
BRANCH  27  28
ATOM     28  C   UNL     1       8.651  15.589  18.434  0.00  0.00    +0.000 A 
ATOM     29  C   UNL     1       8.586  16.782  19.185  0.00  0.00    +0.000 A 
ATOM     30  C   UNL     1       7.393  17.221  19.760  0.00  0.00    +0.000 A 
ATOM     31  C   UNL     1       6.233  16.472  19.607  0.00  0.00    +0.000 A 
ATOM     32  C   UNL     1       6.263  15.297  18.860  0.00  0.00    +0.000 A 
ATOM     33  C   UNL     1       7.459  14.846  18.254  0.00  0.00    +0.000 A 
ATOM     34  C   UNL     1       7.373  13.604  17.409  0.00  0.00    +0.000 C 
ENDBRANCH  27  28
ENDBRANCH  24  27
ENDBRANCH  20  21
ENDBRANCH  19  20
ENDBRANCH  18  19
ENDBRANCH   1  18
TORSDOF 11
ENDMDL
MODEL 3
REMARK VINA RESULT:      -7.7      2.708      3.883
REMARK  Name = 
REMARK  14 active torsions:
REMARK  status: ('A' for Active; 'I' for Inactive)
REMARK    1  A    between atoms: C_2  and  C_3
REMARK    2  A    between atoms: C_3  and  N_4
REMARK    3  A    between atoms: N_4  and  C_5
REMARK    4  A    between atoms: N_4  and  C_6
REMARK    5  A    between atoms: C_6  and  C_7
REMARK    6  A    between atoms: C_11  and  O_12
REMARK    7  A    between atoms: O_12  and  C_13
REMARK    8  A    between atoms: C_13  and  C_14
REMARK    9  A    between atoms: C_14  and  C_15
REMARK   10  A    between atoms: C_15  and  C_16
REMARK   11  A    between atoms: N_19  and  C_20
REMARK   12  A    between atoms: C_20  and  C_21
REMARK   13  A    between atoms: C_26  and  C_27
REMARK   14  A    between atoms: N_33  and  C_34
REMARK                            x       y       z     vdW  Elec       q    Type
REMARK                         _______ _______ _______ _____ _____    ______ ____
ROOT
ATOM      1  O   UNL     1       2.022   9.256  17.638  0.00  0.00    +0.000 OA
ENDROOT
BRANCH   1   6
ATOM      2  C   UNL     1      -3.122  11.782  19.141  0.00  0.00    +0.000 A 
ATOM      3  C   UNL     1      -2.626  10.890  18.200  0.00  0.00    +0.000 A 
ATOM      4  C   UNL     1      -1.242  10.693  18.451  0.00  0.00    +0.000 A 
ATOM      5  C   UNL     1      -0.218   9.955  17.823  0.00  0.00    +0.000 A 
ATOM      6  C   UNL     1       1.096  10.014  18.315  0.00  0.00    +0.000 A 
ATOM      7  C   UNL     1       1.392  10.844  19.392  0.00  0.00    +0.000 A 
ATOM      8  C   UNL     1       0.393  11.570  20.036  0.00  0.00    +0.000 A 
ATOM      9  C   UNL     1      -0.924  11.469  19.561  0.00  0.00    +0.000 A 
ATOM     10  N   UNL     1      -2.098  12.025  20.026  0.00  0.00    +0.000 N 
ATOM     11  C   UNL     1      -2.183  12.723  21.298  0.00  0.00    +0.000 C 
BRANCH   2  12
ATOM     12  C   UNL     1      -4.501  12.365  19.222  0.00  0.00    +0.000 C 
BRANCH  12  13
ATOM     13  N   UNL     1      -5.561  11.472  18.732  0.00  0.00    +0.000 NA
ATOM     14  C   UNL     1      -6.029  11.969  17.423  0.00  0.00    +0.000 C 
BRANCH  13  15
ATOM     15  C   UNL     1      -6.689  11.371  19.676  0.00  0.00    +0.000 C 
BRANCH  15  17
ATOM     16  C   UNL     1      -7.303   8.639  20.041  0.00  0.00    +0.000 C 
ATOM     17  C   UNL     1      -7.020   9.900  19.872  0.00  0.00    +0.000 C 
ENDBRANCH  15  17
ENDBRANCH  13  15
ENDBRANCH  12  13
ENDBRANCH   2  12
ENDBRANCH   1   6
BRANCH   1  18
ATOM     18  C   UNL     1       1.830   7.835  17.673  0.00  0.00    +0.000 C 
BRANCH  18  19
ATOM     19  C   UNL     1       2.767   7.257  18.737  0.00  0.00    +0.000 C 
BRANCH  19  20
ATOM     20  C   UNL     1       2.021   6.472  19.810  0.00  0.00    +0.000 C 
BRANCH  20  21
ATOM     21  C   UNL     1       1.978   4.925  19.685  0.00  0.00    +0.000 C 
ATOM     22  C   UNL     1       3.166   4.165  20.267  0.00  0.00    +0.000 C 
ATOM     23  C   UNL     1       4.376   4.012  19.337  0.00  0.00    +0.000 C 
ATOM     24  N   UNL     1       4.094   3.589  17.966  0.00  0.00    +0.000 NA
ATOM     25  C   UNL     1       2.856   4.118  17.375  0.00  0.00    +0.000 C 
ATOM     26  C   UNL     1       1.656   4.375  18.297  0.00  0.00    +0.000 C 
BRANCH  24  27
ATOM     27  C   UNL     1       5.252   3.895  17.070  0.00  0.00    +0.000 C 
BRANCH  27  28
ATOM     28  C   UNL     1       6.106   5.091  17.482  0.00  0.00    +0.000 A 
ATOM     29  C   UNL     1       7.120   4.871  18.436  0.00  0.00    +0.000 A 
ATOM     30  C   UNL     1       7.997   5.885  18.823  0.00  0.00    +0.000 A 
ATOM     31  C   UNL     1       7.875   7.154  18.269  0.00  0.00    +0.000 A 
ATOM     32  C   UNL     1       6.892   7.399  17.313  0.00  0.00    +0.000 A 
ATOM     33  C   UNL     1       6.007   6.377  16.896  0.00  0.00    +0.000 A 
ATOM     34  C   UNL     1       5.027   6.722  15.808  0.00  0.00    +0.000 C 
ENDBRANCH  27  28
ENDBRANCH  24  27
ENDBRANCH  20  21
ENDBRANCH  19  20
ENDBRANCH  18  19
ENDBRANCH   1  18
TORSDOF 11
ENDMDL
MODEL 4
REMARK VINA RESULT:      -7.6      6.445      8.761
REMARK  Name = 
REMARK  14 active torsions:
REMARK  status: ('A' for Active; 'I' for Inactive)
REMARK    1  A    between atoms: C_2  and  C_3
REMARK    2  A    between atoms: C_3  and  N_4
REMARK    3  A    between atoms: N_4  and  C_5
REMARK    4  A    between atoms: N_4  and  C_6
REMARK    5  A    between atoms: C_6  and  C_7
REMARK    6  A    between atoms: C_11  and  O_12
REMARK    7  A    between atoms: O_12  and  C_13
REMARK    8  A    between atoms: C_13  and  C_14
REMARK    9  A    between atoms: C_14  and  C_15
REMARK   10  A    between atoms: C_15  and  C_16
REMARK   11  A    between atoms: N_19  and  C_20
REMARK   12  A    between atoms: C_20  and  C_21
REMARK   13  A    between atoms: C_26  and  C_27
REMARK   14  A    between atoms: N_33  and  C_34
REMARK                            x       y       z     vdW  Elec       q    Type
REMARK                         _______ _______ _______ _____ _____    ______ ____
ROOT
ATOM      1  O   UNL     1       8.472   9.331  19.139  0.00  0.00    +0.000 OA
ENDROOT
BRANCH   1   6
ATOM      2  C   UNL     1      10.695  14.622  17.670  0.00  0.00    +0.000 A 
ATOM      3  C   UNL     1       9.632  13.798  17.326  0.00  0.00    +0.000 A 
ATOM      4  C   UNL     1       9.684  12.634  18.137  0.00  0.00    +0.000 A 
ATOM      5  C   UNL     1       8.922  11.450  18.219  0.00  0.00    +0.000 A 
ATOM      6  C   UNL     1       9.280  10.444  19.131  0.00  0.00    +0.000 A 
ATOM      7  C   UNL     1      10.419  10.598  19.915  0.00  0.00    +0.000 A 
ATOM      8  C   UNL     1      11.177  11.765  19.861  0.00  0.00    +0.000 A 
ATOM      9  C   UNL     1      10.784  12.782  18.977  0.00  0.00    +0.000 A 
ATOM     10  N   UNL     1      11.308  14.038  18.753  0.00  0.00    +0.000 N 
ATOM     11  C   UNL     1      12.333  14.620  19.603  0.00  0.00    +0.000 C 
BRANCH   2  12
ATOM     12  C   UNL     1      11.107  15.913  17.026  0.00  0.00    +0.000 C 
BRANCH  12  13
ATOM     13  N   UNL     1      10.242  17.053  17.359  0.00  0.00    +0.000 NA
ATOM     14  C   UNL     1      10.998  18.301  17.133  0.00  0.00    +0.000 C 
BRANCH  13  15
ATOM     15  C   UNL     1       9.749  16.997  18.748  0.00  0.00    +0.000 C 
BRANCH  15  17
ATOM     16  C   UNL     1       6.926  16.942  18.689  0.00  0.00    +0.000 C 
ATOM     17  C   UNL     1       8.230  16.968  18.717  0.00  0.00    +0.000 C 
ENDBRANCH  15  17
ENDBRANCH  13  15
ENDBRANCH  12  13
ENDBRANCH   2  12
ENDBRANCH   1   6
BRANCH   1  18
ATOM     18  C   UNL     1       8.281   8.673  17.879  0.00  0.00    +0.000 C 
BRANCH  18  19
ATOM     19  C   UNL     1       7.812   7.242  18.159  0.00  0.00    +0.000 C 
BRANCH  19  20
ATOM     20  C   UNL     1       7.392   6.505  16.893  0.00  0.00    +0.000 C 
BRANCH  20  21
ATOM     21  C   UNL     1       5.931   6.681  16.397  0.00  0.00    +0.000 C 
ATOM     22  C   UNL     1       4.866   6.852  17.475  0.00  0.00    +0.000 C 
ATOM     23  C   UNL     1       4.303   5.552  18.064  0.00  0.00    +0.000 C 
ATOM     24  N   UNL     1       3.929   4.512  17.107  0.00  0.00    +0.000 NA
ATOM     25  C   UNL     1       4.790   4.395  15.921  0.00  0.00    +0.000 C 
ATOM     26  C   UNL     1       5.448   5.664  15.365  0.00  0.00    +0.000 C 
BRANCH  24  27
ATOM     27  C   UNL     1       3.820   3.183  17.786  0.00  0.00    +0.000 C 
BRANCH  27  28
ATOM     28  C   UNL     1       2.957   3.155  19.044  0.00  0.00    +0.000 A 
ATOM     29  C   UNL     1       1.617   3.578  18.925  0.00  0.00    +0.000 A 
ATOM     30  C   UNL     1       0.731   3.522  20.002  0.00  0.00    +0.000 A 
ATOM     31  C   UNL     1       1.167   3.047  21.233  0.00  0.00    +0.000 A 
ATOM     32  C   UNL     1       2.482   2.609  21.379  0.00  0.00    +0.000 A 
ATOM     33  C   UNL     1       3.388   2.642  20.292  0.00  0.00    +0.000 A 
ATOM     34  C   UNL     1       4.763   2.081  20.530  0.00  0.00    +0.000 C 
ENDBRANCH  27  28
ENDBRANCH  24  27
ENDBRANCH  20  21
ENDBRANCH  19  20
ENDBRANCH  18  19
ENDBRANCH   1  18
TORSDOF 11
ENDMDL
MODEL 5
REMARK VINA RESULT:      -7.5      1.842      2.955
REMARK  Name = 
REMARK  14 active torsions:
REMARK  status: ('A' for Active; 'I' for Inactive)
REMARK    1  A    between atoms: C_2  and  C_3
REMARK    2  A    between atoms: C_3  and  N_4
REMARK    3  A    between atoms: N_4  and  C_5
REMARK    4  A    between atoms: N_4  and  C_6
REMARK    5  A    between atoms: C_6  and  C_7
REMARK    6  A    between atoms: C_11  and  O_12
REMARK    7  A    between atoms: O_12  and  C_13
REMARK    8  A    between atoms: C_13  and  C_14
REMARK    9  A    between atoms: C_14  and  C_15
REMARK   10  A    between atoms: C_15  and  C_16
REMARK   11  A    between atoms: N_19  and  C_20
REMARK   12  A    between atoms: C_20  and  C_21
REMARK   13  A    between atoms: C_26  and  C_27
REMARK   14  A    between atoms: N_33  and  C_34
REMARK                            x       y       z     vdW  Elec       q    Type
REMARK                         _______ _______ _______ _____ _____    ______ ____
ROOT
ATOM      1  O   UNL     1       1.858   7.634  20.758  0.00  0.00    +0.000 OA
ENDROOT
BRANCH   1   6
ATOM      2  C   UNL     1      -1.726  11.957  22.646  0.00  0.00    +0.000 A 
ATOM      3  C   UNL     1      -1.118  10.809  23.136  0.00  0.00    +0.000 A 
ATOM      4  C   UNL     1      -0.326  10.243  22.102  0.00  0.00    +0.000 A 
ATOM      5  C   UNL     1       0.468   9.083  21.986  0.00  0.00    +0.000 A 
ATOM      6  C   UNL     1       1.102   8.782  20.769  0.00  0.00    +0.000 A 
ATOM      7  C   UNL     1       0.901   9.605  19.665  0.00  0.00    +0.000 A 
ATOM      8  C   UNL     1       0.132  10.763  19.761  0.00  0.00    +0.000 A 
ATOM      9  C   UNL     1      -0.461  11.076  20.995  0.00  0.00    +0.000 A 
ATOM     10  N   UNL     1      -1.218  12.161  21.385  0.00  0.00    +0.000 N 
ATOM     11  C   UNL     1      -1.382  13.339  20.550  0.00  0.00    +0.000 C 
BRANCH   2  12
ATOM     12  C   UNL     1      -2.723  12.839  23.337  0.00  0.00    +0.000 C 
BRANCH  12  13
ATOM     13  N   UNL     1      -4.119  12.409  23.174  0.00  0.00    +0.000 NA
ATOM     14  C   UNL     1      -4.722  13.174  22.065  0.00  0.00    +0.000 C 
BRANCH  13  15
ATOM     15  C   UNL     1      -4.908  12.587  24.408  0.00  0.00    +0.000 C 
BRANCH  15  17
ATOM     16  C   UNL     1      -7.642  12.693  23.710  0.00  0.00    +0.000 C 
ATOM     17  C   UNL     1      -6.379  12.645  24.032  0.00  0.00    +0.000 C 
ENDBRANCH  15  17
ENDBRANCH  13  15
ENDBRANCH  12  13
ENDBRANCH   2  12
ENDBRANCH   1   6
BRANCH   1  18
ATOM     18  C   UNL     1       1.252   6.477  20.166  0.00  0.00    +0.000 C 
BRANCH  18  19
ATOM     19  C   UNL     1       1.854   5.235  20.828  0.00  0.00    +0.000 C 
BRANCH  19  20
ATOM     20  C   UNL     1       0.957   4.010  20.701  0.00  0.00    +0.000 C 
BRANCH  20  21
ATOM     21  C   UNL     1       1.455   2.829  19.824  0.00  0.00    +0.000 C 
ATOM     22  C   UNL     1       2.705   2.103  20.311  0.00  0.00    +0.000 C 
ATOM     23  C   UNL     1       4.041   2.727  19.887  0.00  0.00    +0.000 C 
ATOM     24  N   UNL     1       4.163   3.111  18.482  0.00  0.00    +0.000 NA
ATOM     25  C   UNL     1       2.944   3.647  17.858  0.00  0.00    +0.000 C 
ATOM     26  C   UNL     1       1.585   3.114  18.329  0.00  0.00    +0.000 C 
BRANCH  24  27
ATOM     27  C   UNL     1       5.292   4.075  18.294  0.00  0.00    +0.000 C 
BRANCH  27  28
ATOM     28  C   UNL     1       5.534   4.536  16.859  0.00  0.00    +0.000 A 
ATOM     29  C   UNL     1       5.934   3.562  15.921  0.00  0.00    +0.000 A 
ATOM     30  C   UNL     1       6.111   3.872  14.572  0.00  0.00    +0.000 A 
ATOM     31  C   UNL     1       5.900   5.172  14.127  0.00  0.00    +0.000 A 
ATOM     32  C   UNL     1       5.491   6.153  15.028  0.00  0.00    +0.000 A 
ATOM     33  C   UNL     1       5.289   5.851  16.395  0.00  0.00    +0.000 A 
ATOM     34  C   UNL     1       4.779   6.961  17.273  0.00  0.00    +0.000 C 
ENDBRANCH  27  28
ENDBRANCH  24  27
ENDBRANCH  20  21
ENDBRANCH  19  20
ENDBRANCH  18  19
ENDBRANCH   1  18
TORSDOF 11
ENDMDL
MODEL 6
REMARK VINA RESULT:      -7.5      1.849      4.221
REMARK  Name = 
REMARK  14 active torsions:
REMARK  status: ('A' for Active; 'I' for Inactive)
REMARK    1  A    between atoms: C_2  and  C_3
REMARK    2  A    between atoms: C_3  and  N_4
REMARK    3  A    between atoms: N_4  and  C_5
REMARK    4  A    between atoms: N_4  and  C_6
REMARK    5  A    between atoms: C_6  and  C_7
REMARK    6  A    between atoms: C_11  and  O_12
REMARK    7  A    between atoms: O_12  and  C_13
REMARK    8  A    between atoms: C_13  and  C_14
REMARK    9  A    between atoms: C_14  and  C_15
REMARK   10  A    between atoms: C_15  and  C_16
REMARK   11  A    between atoms: N_19  and  C_20
REMARK   12  A    between atoms: C_20  and  C_21
REMARK   13  A    between atoms: C_26  and  C_27
REMARK   14  A    between atoms: N_33  and  C_34
REMARK                            x       y       z     vdW  Elec       q    Type
REMARK                         _______ _______ _______ _____ _____    ______ ____
ROOT
ATOM      1  O   UNL     1       2.580   9.339  17.854  0.00  0.00    +0.000 OA
ENDROOT
BRANCH   1   6
ATOM      2  C   UNL     1      -2.117  12.476  19.642  0.00  0.00    +0.000 A 
ATOM      3  C   UNL     1      -1.758  11.152  19.430  0.00  0.00    +0.000 A 
ATOM      4  C   UNL     1      -0.400  11.114  19.015  0.00  0.00    +0.000 A 
ATOM      5  C   UNL     1       0.485  10.090  18.621  0.00  0.00    +0.000 A 
ATOM      6  C   UNL     1       1.792  10.407  18.214  0.00  0.00    +0.000 A 
ATOM      7  C   UNL     1       2.190  11.739  18.152  0.00  0.00    +0.000 A 
ATOM      8  C   UNL     1       1.336  12.764  18.550  0.00  0.00    +0.000 A 
ATOM      9  C   UNL     1       0.048  12.431  18.996  0.00  0.00    +0.000 A 
ATOM     10  N   UNL     1      -0.971  13.221  19.487  0.00  0.00    +0.000 N 
ATOM     11  C   UNL     1      -0.785  14.625  19.813  0.00  0.00    +0.000 C 
BRANCH   2  12
ATOM     12  C   UNL     1      -3.469  13.020  19.997  0.00  0.00    +0.000 C 
BRANCH  12  13
ATOM     13  N   UNL     1      -3.976  12.566  21.299  0.00  0.00    +0.000 NA
ATOM     14  C   UNL     1      -5.388  12.981  21.426  0.00  0.00    +0.000 C 
BRANCH  13  15
ATOM     15  C   UNL     1      -3.183  13.093  22.425  0.00  0.00    +0.000 C 
BRANCH  15  17
ATOM     16  C   UNL     1      -1.349  11.104  23.233  0.00  0.00    +0.000 C 
ATOM     17  C   UNL     1      -2.195  12.023  22.859  0.00  0.00    +0.000 C 
ENDBRANCH  15  17
ENDBRANCH  13  15
ENDBRANCH  12  13
ENDBRANCH   2  12
ENDBRANCH   1   6
BRANCH   1  18
ATOM     18  C   UNL     1       2.011   8.036  18.037  0.00  0.00    +0.000 C 
BRANCH  18  19
ATOM     19  C   UNL     1       3.159   7.025  18.115  0.00  0.00    +0.000 C 
BRANCH  19  20
ATOM     20  C   UNL     1       4.332   7.400  17.217  0.00  0.00    +0.000 C 
BRANCH  20  21
ATOM     21  C   UNL     1       5.537   6.424  17.146  0.00  0.00    +0.000 C 
ATOM     22  C   UNL     1       5.545   5.441  15.979  0.00  0.00    +0.000 C 
ATOM     23  C   UNL     1       4.756   4.143  16.200  0.00  0.00    +0.000 C 
ATOM     24  N   UNL     1       4.973   3.459  17.474  0.00  0.00    +0.000 NA
ATOM     25  C   UNL     1       5.174   4.329  18.641  0.00  0.00    +0.000 C 
ATOM     26  C   UNL     1       5.872   5.680  18.437  0.00  0.00    +0.000 C 
BRANCH  24  27
ATOM     27  C   UNL     1       3.865   2.492  17.749  0.00  0.00    +0.000 C 
BRANCH  27  28
ATOM     28  C   UNL     1       2.966   2.839  18.932  0.00  0.00    +0.000 A 
ATOM     29  C   UNL     1       3.387   2.426  20.213  0.00  0.00    +0.000 A 
ATOM     30  C   UNL     1       2.668   2.756  21.363  0.00  0.00    +0.000 A 
ATOM     31  C   UNL     1       1.502   3.505  21.260  0.00  0.00    +0.000 A 
ATOM     32  C   UNL     1       1.068   3.939  20.009  0.00  0.00    +0.000 A 
ATOM     33  C   UNL     1       1.793   3.628  18.835  0.00  0.00    +0.000 A 
ATOM     34  C   UNL     1       1.282   4.202  17.542  0.00  0.00    +0.000 C 
ENDBRANCH  27  28
ENDBRANCH  24  27
ENDBRANCH  20  21
ENDBRANCH  19  20
ENDBRANCH  18  19
ENDBRANCH   1  18
TORSDOF 11
ENDMDL
MODEL 7
REMARK VINA RESULT:      -7.4      2.000      4.547
REMARK  Name = 
REMARK  14 active torsions:
REMARK  status: ('A' for Active; 'I' for Inactive)
REMARK    1  A    between atoms: C_2  and  C_3
REMARK    2  A    between atoms: C_3  and  N_4
REMARK    3  A    between atoms: N_4  and  C_5
REMARK    4  A    between atoms: N_4  and  C_6
REMARK    5  A    between atoms: C_6  and  C_7
REMARK    6  A    between atoms: C_11  and  O_12
REMARK    7  A    between atoms: O_12  and  C_13
REMARK    8  A    between atoms: C_13  and  C_14
REMARK    9  A    between atoms: C_14  and  C_15
REMARK   10  A    between atoms: C_15  and  C_16
REMARK   11  A    between atoms: N_19  and  C_20
REMARK   12  A    between atoms: C_20  and  C_21
REMARK   13  A    between atoms: C_26  and  C_27
REMARK   14  A    between atoms: N_33  and  C_34
REMARK                            x       y       z     vdW  Elec       q    Type
REMARK                         _______ _______ _______ _____ _____    ______ ____
ROOT
ATOM      1  O   UNL     1       1.219   9.245  17.815  0.00  0.00    +0.000 OA
ENDROOT
BRANCH   1   6
ATOM      2  C   UNL     1      -2.381  12.737  20.968  0.00  0.00    +0.000 A 
ATOM      3  C   UNL     1      -2.084  12.461  19.641  0.00  0.00    +0.000 A 
ATOM      4  C   UNL     1      -1.098  11.440  19.602  0.00  0.00    +0.000 A 
ATOM      5  C   UNL     1      -0.386  10.790  18.572  0.00  0.00    +0.000 A 
ATOM      6  C   UNL     1       0.584   9.825  18.887  0.00  0.00    +0.000 A 
ATOM      7  C   UNL     1       0.877   9.553  20.220  0.00  0.00    +0.000 A 
ATOM      8  C   UNL     1       0.177  10.172  21.252  0.00  0.00    +0.000 A 
ATOM      9  C   UNL     1      -0.821  11.103  20.923  0.00  0.00    +0.000 A 
ATOM     10  N   UNL     1      -1.689  11.818  21.722  0.00  0.00    +0.000 N 
ATOM     11  C   UNL     1      -1.834  11.560  23.145  0.00  0.00    +0.000 C 
BRANCH   2  12
ATOM     12  C   UNL     1      -3.290  13.801  21.509  0.00  0.00    +0.000 C 
BRANCH  12  13
ATOM     13  N   UNL     1      -4.641  13.326  21.836  0.00  0.00    +0.000 NA
ATOM     14  C   UNL     1      -5.557  13.723  20.747  0.00  0.00    +0.000 C 
BRANCH  13  15
ATOM     15  C   UNL     1      -5.123  13.852  23.127  0.00  0.00    +0.000 C 
BRANCH  15  17
ATOM     16  C   UNL     1      -7.554  12.563  23.764  0.00  0.00    +0.000 C 
ATOM     17  C   UNL     1      -6.431  13.158  23.469  0.00  0.00    +0.000 C 
ENDBRANCH  15  17
ENDBRANCH  13  15
ENDBRANCH  12  13
ENDBRANCH   2  12
ENDBRANCH   1   6
BRANCH   1  18
ATOM     18  C   UNL     1       2.646   9.132  17.902  0.00  0.00    +0.000 C 
BRANCH  18  19
ATOM     19  C   UNL     1       3.008   7.645  17.845  0.00  0.00    +0.000 C 
BRANCH  19  20
ATOM     20  C   UNL     1       3.879   7.301  16.642  0.00  0.00    +0.000 C 
BRANCH  20  21
ATOM     21  C   UNL     1       5.190   6.509  16.894  0.00  0.00    +0.000 C 
ATOM     22  C   UNL     1       5.489   5.366  15.929  0.00  0.00    +0.000 C 
ATOM     23  C   UNL     1       4.839   4.020  16.274  0.00  0.00    +0.000 C 
ATOM     24  N   UNL     1       4.948   3.583  17.665  0.00  0.00    +0.000 NA
ATOM     25  C   UNL     1       4.867   4.647  18.677  0.00  0.00    +0.000 C 
ATOM     26  C   UNL     1       5.420   6.034  18.327  0.00  0.00    +0.000 C 
BRANCH  24  27
ATOM     27  C   UNL     1       3.936   2.522  17.966  0.00  0.00    +0.000 C 
BRANCH  27  28
ATOM     28  C   UNL     1       2.953   2.847  19.087  0.00  0.00    +0.000 A 
ATOM     29  C   UNL     1       3.278   2.409  20.387  0.00  0.00    +0.000 A 
ATOM     30  C   UNL     1       2.477   2.719  21.487  0.00  0.00    +0.000 A 
ATOM     31  C   UNL     1       1.321   3.471  21.313  0.00  0.00    +0.000 A 
ATOM     32  C   UNL     1       0.981   3.930  20.042  0.00  0.00    +0.000 A 
ATOM     33  C   UNL     1       1.791   3.640  18.919  0.00  0.00    +0.000 A 
ATOM     34  C   UNL     1       1.376   4.240  17.603  0.00  0.00    +0.000 C 
ENDBRANCH  27  28
ENDBRANCH  24  27
ENDBRANCH  20  21
ENDBRANCH  19  20
ENDBRANCH  18  19
ENDBRANCH   1  18
TORSDOF 11
ENDMDL
MODEL 8
REMARK VINA RESULT:      -7.4      1.689      4.234
REMARK  Name = 
REMARK  14 active torsions:
REMARK  status: ('A' for Active; 'I' for Inactive)
REMARK    1  A    between atoms: C_2  and  C_3
REMARK    2  A    between atoms: C_3  and  N_4
REMARK    3  A    between atoms: N_4  and  C_5
REMARK    4  A    between atoms: N_4  and  C_6
REMARK    5  A    between atoms: C_6  and  C_7
REMARK    6  A    between atoms: C_11  and  O_12
REMARK    7  A    between atoms: O_12  and  C_13
REMARK    8  A    between atoms: C_13  and  C_14
REMARK    9  A    between atoms: C_14  and  C_15
REMARK   10  A    between atoms: C_15  and  C_16
REMARK   11  A    between atoms: N_19  and  C_20
REMARK   12  A    between atoms: C_20  and  C_21
REMARK   13  A    between atoms: C_26  and  C_27
REMARK   14  A    between atoms: N_33  and  C_34
REMARK                            x       y       z     vdW  Elec       q    Type
REMARK                         _______ _______ _______ _____ _____    ______ ____
ROOT
ATOM      1  O   UNL     1       1.808   8.446  19.519  0.00  0.00    +0.000 OA
ENDROOT
BRANCH   1   6
ATOM      2  C   UNL     1      -1.920  11.953  22.502  0.00  0.00    +0.000 A 
ATOM      3  C   UNL     1      -0.907  11.039  22.758  0.00  0.00    +0.000 A 
ATOM      4  C   UNL     1      -0.392  10.578  21.518  0.00  0.00    +0.000 A 
ATOM      5  C   UNL     1       0.588   9.636  21.142  0.00  0.00    +0.000 A 
ATOM      6  C   UNL     1       0.830   9.375  19.783  0.00  0.00    +0.000 A 
ATOM      7  C   UNL     1       0.063  10.012  18.812  0.00  0.00    +0.000 A 
ATOM      8  C   UNL     1      -0.900  10.955  19.161  0.00  0.00    +0.000 A 
ATOM      9  C   UNL     1      -1.102  11.239  20.521  0.00  0.00    +0.000 A 
ATOM     10  N   UNL     1      -1.937  12.145  21.141  0.00  0.00    +0.000 N 
ATOM     11  C   UNL     1      -2.673  13.161  20.406  0.00  0.00    +0.000 C 
BRANCH   2  12
ATOM     12  C   UNL     1      -2.818  12.635  23.491  0.00  0.00    +0.000 C 
BRANCH  12  13
ATOM     13  N   UNL     1      -2.693  14.099  23.506  0.00  0.00    +0.000 NA
ATOM     14  C   UNL     1      -1.352  14.453  24.015  0.00  0.00    +0.000 C 
BRANCH  13  15
ATOM     15  C   UNL     1      -3.738  14.743  24.324  0.00  0.00    +0.000 C 
BRANCH  15  17
ATOM     16  C   UNL     1      -5.132  16.583  22.698  0.00  0.00    +0.000 C 
ATOM     17  C   UNL     1      -4.488  15.734  23.449  0.00  0.00    +0.000 C 
ENDBRANCH  15  17
ENDBRANCH  13  15
ENDBRANCH  12  13
ENDBRANCH   2  12
ENDBRANCH   1   6
BRANCH   1  18
ATOM     18  C   UNL     1       2.299   8.403  18.172  0.00  0.00    +0.000 C 
BRANCH  18  19
ATOM     19  C   UNL     1       3.171   7.152  18.026  0.00  0.00    +0.000 C 
BRANCH  19  20
ATOM     20  C   UNL     1       4.312   7.346  17.035  0.00  0.00    +0.000 C 
BRANCH  20  21
ATOM     21  C   UNL     1       5.521   6.374  17.115  0.00  0.00    +0.000 C 
ATOM     22  C   UNL     1       5.617   5.321  16.015  0.00  0.00    +0.000 C 
ATOM     23  C   UNL     1       4.815   4.035  16.256  0.00  0.00    +0.000 C 
ATOM     24  N   UNL     1       4.937   3.432  17.583  0.00  0.00    +0.000 NA
ATOM     25  C   UNL     1       5.049   4.374  18.706  0.00  0.00    +0.000 C 
ATOM     26  C   UNL     1       5.759   5.714  18.471  0.00  0.00    +0.000 C 
BRANCH  24  27
ATOM     27  C   UNL     1       3.812   2.478  17.834  0.00  0.00    +0.000 C 
BRANCH  27  28
ATOM     28  C   UNL     1       2.902   2.826  19.008  0.00  0.00    +0.000 A 
ATOM     29  C   UNL     1       3.314   2.420  20.295  0.00  0.00    +0.000 A 
ATOM     30  C   UNL     1       2.585   2.753  21.437  0.00  0.00    +0.000 A 
ATOM     31  C   UNL     1       1.416   3.495  21.321  0.00  0.00    +0.000 A 
ATOM     32  C   UNL     1       0.990   3.922  20.065  0.00  0.00    +0.000 A 
ATOM     33  C   UNL     1       1.727   3.609  18.898  0.00  0.00    +0.000 A 
ATOM     34  C   UNL     1       1.224   4.175  17.598  0.00  0.00    +0.000 C 
ENDBRANCH  27  28
ENDBRANCH  24  27
ENDBRANCH  20  21
ENDBRANCH  19  20
ENDBRANCH  18  19
ENDBRANCH   1  18
TORSDOF 11
ENDMDL
MODEL 9
REMARK VINA RESULT:      -7.3      1.775      3.033
REMARK  Name = 
REMARK  14 active torsions:
REMARK  status: ('A' for Active; 'I' for Inactive)
REMARK    1  A    between atoms: C_2  and  C_3
REMARK    2  A    between atoms: C_3  and  N_4
REMARK    3  A    between atoms: N_4  and  C_5
REMARK    4  A    between atoms: N_4  and  C_6
REMARK    5  A    between atoms: C_6  and  C_7
REMARK    6  A    between atoms: C_11  and  O_12
REMARK    7  A    between atoms: O_12  and  C_13
REMARK    8  A    between atoms: C_13  and  C_14
REMARK    9  A    between atoms: C_14  and  C_15
REMARK   10  A    between atoms: C_15  and  C_16
REMARK   11  A    between atoms: N_19  and  C_20
REMARK   12  A    between atoms: C_20  and  C_21
REMARK   13  A    between atoms: C_26  and  C_27
REMARK   14  A    between atoms: N_33  and  C_34
REMARK                            x       y       z     vdW  Elec       q    Type
REMARK                         _______ _______ _______ _____ _____    ______ ____
ROOT
ATOM      1  O   UNL     1       1.906   6.607  21.075  0.00  0.00    +0.000 OA
ENDROOT
BRANCH   1   6
ATOM      2  C   UNL     1       0.118  11.895  19.092  0.00  0.00    +0.000 A 
ATOM      3  C   UNL     1       0.946  10.853  18.700  0.00  0.00    +0.000 A 
ATOM      4  C   UNL     1       0.878   9.829  19.682  0.00  0.00    +0.000 A 
ATOM      5  C   UNL     1       1.511   8.581  19.856  0.00  0.00    +0.000 A 
ATOM      6  C   UNL     1       1.244   7.810  20.999  0.00  0.00    +0.000 A 
ATOM      7  C   UNL     1       0.394   8.306  21.982  0.00  0.00    +0.000 A 
ATOM      8  C   UNL     1      -0.253   9.529  21.824  0.00  0.00    +0.000 A 
ATOM      9  C   UNL     1      -0.012  10.270  20.656  0.00  0.00    +0.000 A 
ATOM     10  N   UNL     1      -0.541  11.467  20.220  0.00  0.00    +0.000 N 
ATOM     11  C   UNL     1      -1.664  12.112  20.880  0.00  0.00    +0.000 C 
BRANCH   2  12
ATOM     12  C   UNL     1      -0.066  13.227  18.427  0.00  0.00    +0.000 C 
BRANCH  12  13
ATOM     13  N   UNL     1       0.754  14.303  19.001  0.00  0.00    +0.000 NA
ATOM     14  C   UNL     1       0.065  15.590  18.781  0.00  0.00    +0.000 C 
BRANCH  13  15
ATOM     15  C   UNL     1       2.111  14.343  18.424  0.00  0.00    +0.000 C 
BRANCH  15  17
ATOM     16  C   UNL     1       3.927  15.062  20.463  0.00  0.00    +0.000 C 
ATOM     17  C   UNL     1       3.088  14.730  19.522  0.00  0.00    +0.000 C 
ENDBRANCH  15  17
ENDBRANCH  13  15
ENDBRANCH  12  13
ENDBRANCH   2  12
ENDBRANCH   1   6
BRANCH   1  18
ATOM     18  C   UNL     1       1.705   5.698  19.983  0.00  0.00    +0.000 C 
BRANCH  18  19
ATOM     19  C   UNL     1       0.902   4.503  20.504  0.00  0.00    +0.000 C 
BRANCH  19  20
ATOM     20  C   UNL     1       1.763   3.514  21.282  0.00  0.00    +0.000 C 
BRANCH  20  21
ATOM     21  C   UNL     1       2.420   2.346  20.499  0.00  0.00    +0.000 C 
ATOM     22  C   UNL     1       3.921   2.457  20.250  0.00  0.00    +0.000 C 
ATOM     23  C   UNL     1       4.329   3.261  19.008  0.00  0.00    +0.000 C 
ATOM     24  N   UNL     1       3.605   2.963  17.774  0.00  0.00    +0.000 NA
ATOM     25  C   UNL     1       2.178   2.647  17.929  0.00  0.00    +0.000 C 
ATOM     26  C   UNL     1       1.722   1.930  19.206  0.00  0.00    +0.000 C 
BRANCH  24  27
ATOM     27  C   UNL     1       3.772   4.073  16.783  0.00  0.00    +0.000 C 
BRANCH  27  28
ATOM     28  C   UNL     1       5.016   4.939  16.967  0.00  0.00    +0.000 A 
ATOM     29  C   UNL     1       6.268   4.347  16.700  0.00  0.00    +0.000 A 
ATOM     30  C   UNL     1       7.454   5.078  16.772  0.00  0.00    +0.000 A 
ATOM     31  C   UNL     1       7.420   6.422  17.122  0.00  0.00    +0.000 A 
ATOM     32  C   UNL     1       6.197   7.038  17.379  0.00  0.00    +0.000 A 
ATOM     33  C   UNL     1       4.983   6.317  17.293  0.00  0.00    +0.000 A 
ATOM     34  C   UNL     1       3.711   7.088  17.518  0.00  0.00    +0.000 C 
ENDBRANCH  27  28
ENDBRANCH  24  27
ENDBRANCH  20  21
ENDBRANCH  19  20
ENDBRANCH  18  19
ENDBRANCH   1  18
TORSDOF 11
ENDMDL
