MODEL 1
REMARK VINA RESULT:      -7.7      0.000      0.000
REMARK  Name = 
REMARK  8 active torsions:
REMARK  status: ('A' for Active; 'I' for Inactive)
REMARK    1  A    between atoms: C_1  and  O_2
REMARK    2  A    between atoms: O_2  and  C_3
REMARK    3  A    between atoms: C_8  and  N_9
REMARK    4  A    between atoms: C_10  and  C_12
REMARK    5  A    between atoms: C_12  and  N_13
REMARK    6  A    between atoms: C_16  and  C_17
REMARK    7  A    between atoms: N_19  and  C_20
REMARK    8  A    between atoms: C_27  and  N_28
REMARK                            x       y       z     vdW  Elec       q    Type
REMARK                         _______ _______ _______ _____ _____    ______ ____
ROOT
ATOM      1  N   UNL     1       7.115   6.389  17.558  0.00  0.00    +0.000 N 
ATOM      2  N   UNL     1       6.648   7.273  16.651  0.00  0.00    +0.000 NA
ATOM      3  N   UNL     1       7.175   8.455  16.938  0.00  0.00    +0.000 NA
ATOM      4  C   UNL     1       8.002   8.308  18.031  0.00  0.00    +0.000 A 
ATOM      5  C   UNL     1       7.970   6.986  18.451  0.00  0.00    +0.000 A 
ENDROOT
BRANCH   4   6
ATOM      6  C   UNL     1       8.763   9.407  18.615  0.00  0.00    +0.000 C 
ATOM      7  O   UNL     1       8.928   9.489  19.828  0.00  0.00    +0.000 OA
ATOM      8  N   UNL     1       9.194  10.332  17.680  0.00  0.00    +0.000 N 
ATOM      9  H   UNL     1       8.828  10.218  16.738  0.00  0.00    +0.000 HD
BRANCH   8  10
ATOM     10  C   UNL     1       9.965  11.490  17.929  0.00  0.00    +0.000 A 
ATOM     11  C   UNL     1      11.317  11.424  18.289  0.00  0.00    +0.000 A 
ATOM     12  C   UNL     1      12.054  12.586  18.538  0.00  0.00    +0.000 A 
ATOM     13  C   UNL     1      11.450  13.835  18.430  0.00  0.00    +0.000 A 
ATOM     14  C   UNL     1      10.110  13.924  18.058  0.00  0.00    +0.000 A 
ATOM     15  C   UNL     1       9.374  12.760  17.801  0.00  0.00    +0.000 A 
ATOM     16 BR   UNL     1       7.543  12.961  17.331  0.00  0.00    +0.000 Br
ENDBRANCH   8  10
ENDBRANCH   4   6
BRANCH   5  17
ATOM     17  N   UNL     1       8.578   6.337  19.470  0.00  0.00    +0.000 N 
ATOM     18  H   UNL     1       8.037   5.661  20.020  0.00  0.00    +0.000 HD
ATOM     19  H   UNL     1       9.583   6.199  19.550  0.00  0.00    +0.000 HD
ENDBRANCH   5  17
BRANCH   1  20
ATOM     20  C   UNL     1       6.695   5.013  17.484  0.00  0.00    +0.000 C 
BRANCH  20  22
ATOM     21  N   UNL     1       4.447   4.388  18.220  0.00  0.00    +0.000 N 
ATOM     22  C   UNL     1       5.747   4.683  18.611  0.00  0.00    +0.000 C 
ATOM     23  O   UNL     1       6.180   4.654  19.763  0.00  0.00    +0.000 OA
ATOM     24  H   UNL     1       4.225   4.340  17.226  0.00  0.00    +0.000 HD
BRANCH  21  30
ATOM     25  C   UNL     1       2.606   5.188  19.613  0.00  0.00    +0.000 A 
ATOM     26  C   UNL     1       1.542   4.927  20.493  0.00  0.00    +0.000 A 
ATOM     27  C   UNL     1       1.191   3.617  20.813  0.00  0.00    +0.000 A 
ATOM     28  C   UNL     1       1.907   2.558  20.278  0.00  0.00    +0.000 A 
ATOM     29  C   UNL     1       2.987   2.808  19.425  0.00  0.00    +0.000 A 
ATOM     30  C   UNL     1       3.350   4.113  19.077  0.00  0.00    +0.000 A 
BRANCH  25  32
ATOM     31  C   UNL     1       2.137   7.506  19.740  0.00  0.00    +0.000 C 
ATOM     32  O   UNL     1       2.972   6.461  19.233  0.00  0.00    +0.000 OA
ENDBRANCH  25  32
ENDBRANCH  21  30
ENDBRANCH  20  22
ENDBRANCH   1  20
TORSDOF 7
ENDMDL
MODEL 2
REMARK VINA RESULT:      -7.6      6.025      9.536
REMARK  Name = 
REMARK  8 active torsions:
REMARK  status: ('A' for Active; 'I' for Inactive)
REMARK    1  A    between atoms: C_1  and  O_2
REMARK    2  A    between atoms: O_2  and  C_3
REMARK    3  A    between atoms: C_8  and  N_9
REMARK    4  A    between atoms: C_10  and  C_12
REMARK    5  A    between atoms: C_12  and  N_13
REMARK    6  A    between atoms: C_16  and  C_17
REMARK    7  A    between atoms: N_19  and  C_20
REMARK    8  A    between atoms: C_27  and  N_28
REMARK                            x       y       z     vdW  Elec       q    Type
REMARK                         _______ _______ _______ _____ _____    ______ ____
ROOT
ATOM      1  N   UNL     1       1.507  10.237  18.677  0.00  0.00    +0.000 N 
ATOM      2  N   UNL     1       2.073   9.890  17.502  0.00  0.00    +0.000 NA
ATOM      3  N   UNL     1       2.379   8.603  17.571  0.00  0.00    +0.000 NA
ATOM      4  C   UNL     1       1.982   8.128  18.803  0.00  0.00    +0.000 A 
ATOM      5  C   UNL     1       1.427   9.168  19.533  0.00  0.00    +0.000 A 
ENDROOT
BRANCH   4   6
ATOM      6  C   UNL     1       2.151   6.740  19.220  0.00  0.00    +0.000 C 
ATOM      7  O   UNL     1       1.983   6.405  20.388  0.00  0.00    +0.000 OA
ATOM      8  N   UNL     1       2.568   5.907  18.195  0.00  0.00    +0.000 N 
ATOM      9  H   UNL     1       2.833   6.366  17.327  0.00  0.00    +0.000 HD
BRANCH   8  10
ATOM     10  C   UNL     1       2.799   4.515  18.278  0.00  0.00    +0.000 A 
ATOM     11  C   UNL     1       1.799   3.574  18.006  0.00  0.00    +0.000 A 
ATOM     12  C   UNL     1       2.053   2.203  18.103  0.00  0.00    +0.000 A 
ATOM     13  C   UNL     1       3.315   1.749  18.474  0.00  0.00    +0.000 A 
ATOM     14  C   UNL     1       4.330   2.668  18.734  0.00  0.00    +0.000 A 
ATOM     15  C   UNL     1       4.077   4.042  18.629  0.00  0.00    +0.000 A 
ATOM     16 BR   UNL     1       5.501   5.235  19.031  0.00  0.00    +0.000 Br
ENDBRANCH   8  10
ENDBRANCH   4   6
BRANCH   5  17
ATOM     17  N   UNL     1       0.911   9.232  20.782  0.00  0.00    +0.000 N 
ATOM     18  H   UNL     1       1.528   9.060  21.583  0.00  0.00    +0.000 HD
ATOM     19  H   UNL     1       0.068   9.745  21.034  0.00  0.00    +0.000 HD
ENDBRANCH   5  17
BRANCH   1  20
ATOM     20  C   UNL     1       1.077  11.597  18.880  0.00  0.00    +0.000 C 
BRANCH  20  22
ATOM     21  N   UNL     1      -1.196  11.473  17.984  0.00  0.00    +0.000 N 
ATOM     22  C   UNL     1      -0.411  11.657  19.116  0.00  0.00    +0.000 C 
ATOM     23  O   UNL     1      -0.825  11.816  20.265  0.00  0.00    +0.000 OA
ATOM     24  H   UNL     1      -0.746  11.242  17.100  0.00  0.00    +0.000 HD
BRANCH  21  30
ATOM     25  C   UNL     1      -3.264  11.225  16.707  0.00  0.00    +0.000 A 
ATOM     26  C   UNL     1      -4.662  11.331  16.620  0.00  0.00    +0.000 A 
ATOM     27  C   UNL     1      -5.415  11.718  17.728  0.00  0.00    +0.000 A 
ATOM     28  C   UNL     1      -4.781  12.020  18.924  0.00  0.00    +0.000 A 
ATOM     29  C   UNL     1      -3.388  11.946  19.012  0.00  0.00    +0.000 A 
ATOM     30  C   UNL     1      -2.612  11.547  17.918  0.00  0.00    +0.000 A 
BRANCH  25  32
ATOM     31  C   UNL     1      -3.177  10.154  14.596  0.00  0.00    +0.000 C 
ATOM     32  O   UNL     1      -2.475  10.812  15.656  0.00  0.00    +0.000 OA
ENDBRANCH  25  32
ENDBRANCH  21  30
ENDBRANCH  20  22
ENDBRANCH   1  20
TORSDOF 7
ENDMDL
MODEL 3
REMARK VINA RESULT:      -7.5      6.046      9.580
REMARK  Name = 
REMARK  8 active torsions:
REMARK  status: ('A' for Active; 'I' for Inactive)
REMARK    1  A    between atoms: C_1  and  O_2
REMARK    2  A    between atoms: O_2  and  C_3
REMARK    3  A    between atoms: C_8  and  N_9
REMARK    4  A    between atoms: C_10  and  C_12
REMARK    5  A    between atoms: C_12  and  N_13
REMARK    6  A    between atoms: C_16  and  C_17
REMARK    7  A    between atoms: N_19  and  C_20
REMARK    8  A    between atoms: C_27  and  N_28
REMARK                            x       y       z     vdW  Elec       q    Type
REMARK                         _______ _______ _______ _____ _____    ______ ____
ROOT
ATOM      1  N   UNL     1       1.447  10.532  18.920  0.00  0.00    +0.000 N 
ATOM      2  N   UNL     1       1.875  10.273  17.667  0.00  0.00    +0.000 NA
ATOM      3  N   UNL     1       2.183   8.985  17.608  0.00  0.00    +0.000 NA
ATOM      4  C   UNL     1       1.928   8.421  18.838  0.00  0.00    +0.000 A 
ATOM      5  C   UNL     1       1.462   9.403  19.701  0.00  0.00    +0.000 A 
ENDROOT
BRANCH   4   6
ATOM      6  C   UNL     1       2.138   7.007  19.133  0.00  0.00    +0.000 C 
ATOM      7  O   UNL     1       2.235   6.608  20.288  0.00  0.00    +0.000 OA
ATOM      8  N   UNL     1       2.276   6.227  17.997  0.00  0.00    +0.000 N 
ATOM      9  H   UNL     1       2.348   6.730  17.116  0.00  0.00    +0.000 HD
BRANCH   8  10
ATOM     10  C   UNL     1       2.470   4.828  17.951  0.00  0.00    +0.000 A 
ATOM     11  C   UNL     1       1.459   3.922  18.297  0.00  0.00    +0.000 A 
ATOM     12  C   UNL     1       1.682   2.542  18.250  0.00  0.00    +0.000 A 
ATOM     13  C   UNL     1       2.920   2.045  17.856  0.00  0.00    +0.000 A 
ATOM     14  C   UNL     1       3.934   2.928  17.493  0.00  0.00    +0.000 A 
ATOM     15  C   UNL     1       3.709   4.310  17.532  0.00  0.00    +0.000 A 
ATOM     16 BR   UNL     1       5.151   5.453  17.055  0.00  0.00    +0.000 Br
ENDBRANCH   8  10
ENDBRANCH   4   6
BRANCH   5  17
ATOM     17  N   UNL     1       1.092   9.374  21.001  0.00  0.00    +0.000 N 
ATOM     18  H   UNL     1       0.255   9.892  21.290  0.00  0.00    +0.000 HD
ATOM     19  H   UNL     1       1.352   8.642  21.661  0.00  0.00    +0.000 HD
ENDBRANCH   5  17
BRANCH   1  20
ATOM     20  C   UNL     1       1.048  11.871  19.269  0.00  0.00    +0.000 C 
BRANCH  20  22
ATOM     21  N   UNL     1      -1.233  11.274  18.613  0.00  0.00    +0.000 N 
ATOM     22  C   UNL     1      -0.238  12.243  18.571  0.00  0.00    +0.000 C 
ATOM     23  O   UNL     1      -0.337  13.360  18.064  0.00  0.00    +0.000 OA
ATOM     24  H   UNL     1      -1.077  10.424  19.155  0.00  0.00    +0.000 HD
BRANCH  21  30
ATOM     25  C   UNL     1      -3.609  11.834  18.712  0.00  0.00    +0.000 A 
ATOM     26  C   UNL     1      -4.877  11.871  18.111  0.00  0.00    +0.000 A 
ATOM     27  C   UNL     1      -5.049  11.460  16.790  0.00  0.00    +0.000 A 
ATOM     28  C   UNL     1      -3.964  10.990  16.065  0.00  0.00    +0.000 A 
ATOM     29  C   UNL     1      -2.703  10.922  16.665  0.00  0.00    +0.000 A 
ATOM     30  C   UNL     1      -2.503  11.342  17.984  0.00  0.00    +0.000 A 
BRANCH  25  32
ATOM     31  C   UNL     1      -4.306  13.232  20.492  0.00  0.00    +0.000 C 
ATOM     32  O   UNL     1      -3.376  12.264  20.001  0.00  0.00    +0.000 OA
ENDBRANCH  25  32
ENDBRANCH  21  30
ENDBRANCH  20  22
ENDBRANCH   1  20
TORSDOF 7
ENDMDL
MODEL 4
REMARK VINA RESULT:      -7.4      1.082      1.924
REMARK  Name = 
REMARK  8 active torsions:
REMARK  status: ('A' for Active; 'I' for Inactive)
REMARK    1  A    between atoms: C_1  and  O_2
REMARK    2  A    between atoms: O_2  and  C_3
REMARK    3  A    between atoms: C_8  and  N_9
REMARK    4  A    between atoms: C_10  and  C_12
REMARK    5  A    between atoms: C_12  and  N_13
REMARK    6  A    between atoms: C_16  and  C_17
REMARK    7  A    between atoms: N_19  and  C_20
REMARK    8  A    between atoms: C_27  and  N_28
REMARK                            x       y       z     vdW  Elec       q    Type
REMARK                         _______ _______ _______ _____ _____    ______ ____
ROOT
ATOM      1  N   UNL     1       7.189   6.309  17.524  0.00  0.00    +0.000 N 
ATOM      2  N   UNL     1       6.770   7.198  16.599  0.00  0.00    +0.000 NA
ATOM      3  N   UNL     1       7.267   8.382  16.930  0.00  0.00    +0.000 NA
ATOM      4  C   UNL     1       8.025   8.231  18.071  0.00  0.00    +0.000 A 
ATOM      5  C   UNL     1       7.980   6.905  18.475  0.00  0.00    +0.000 A 
ENDROOT
BRANCH   4   6
ATOM      6  C   UNL     1       8.736   9.331  18.713  0.00  0.00    +0.000 C 
ATOM      7  O   UNL     1       8.829   9.398  19.935  0.00  0.00    +0.000 OA
ATOM      8  N   UNL     1       9.209  10.274  17.817  0.00  0.00    +0.000 N 
ATOM      9  H   UNL     1       8.901  10.168  16.853  0.00  0.00    +0.000 HD
BRANCH   8  10
ATOM     10  C   UNL     1       9.950  11.437  18.125  0.00  0.00    +0.000 A 
ATOM     11  C   UNL     1      11.261  11.380  18.616  0.00  0.00    +0.000 A 
ATOM     12  C   UNL     1      11.967  12.547  18.921  0.00  0.00    +0.000 A 
ATOM     13  C   UNL     1      11.374  13.793  18.739  0.00  0.00    +0.000 A 
ATOM     14  C   UNL     1      10.077  13.873  18.237  0.00  0.00    +0.000 A 
ATOM     15  C   UNL     1       9.372  12.704  17.924  0.00  0.00    +0.000 A 
ATOM     16 BR   UNL     1       7.595  12.893  17.276  0.00  0.00    +0.000 Br
ENDBRANCH   8  10
ENDBRANCH   4   6
BRANCH   5  17
ATOM     17  N   UNL     1       8.529   6.251  19.524  0.00  0.00    +0.000 N 
ATOM     18  H   UNL     1       9.450   5.813  19.408  0.00  0.00    +0.000 HD
ATOM     19  H   UNL     1       8.290   6.418  20.499  0.00  0.00    +0.000 HD
ENDBRANCH   5  17
BRANCH   1  20
ATOM     20  C   UNL     1       6.788   4.930  17.410  0.00  0.00    +0.000 C 
BRANCH  20  22
ATOM     21  N   UNL     1       5.024   4.689  19.089  0.00  0.00    +0.000 N 
ATOM     22  C   UNL     1       5.323   4.771  17.734  0.00  0.00    +0.000 C 
ATOM     23  O   UNL     1       4.508   4.769  16.812  0.00  0.00    +0.000 OA
ATOM     24  H   UNL     1       5.772   4.809  19.771  0.00  0.00    +0.000 HD
BRANCH  21  30
ATOM     25  C   UNL     1       3.319   3.150  19.920  0.00  0.00    +0.000 A 
ATOM     26  C   UNL     1       2.038   2.921  20.448  0.00  0.00    +0.000 A 
ATOM     27  C   UNL     1       1.194   3.989  20.750  0.00  0.00    +0.000 A 
ATOM     28  C   UNL     1       1.610   5.290  20.509  0.00  0.00    +0.000 A 
ATOM     29  C   UNL     1       2.872   5.525  19.956  0.00  0.00    +0.000 A 
ATOM     30  C   UNL     1       3.742   4.472  19.657  0.00  0.00    +0.000 A 
BRANCH  25  32
ATOM     31  C   UNL     1       4.824   1.538  20.783  0.00  0.00    +0.000 C 
ATOM     32  O   UNL     1       4.207   2.134  19.639  0.00  0.00    +0.000 OA
ENDBRANCH  25  32
ENDBRANCH  21  30
ENDBRANCH  20  22
ENDBRANCH   1  20
TORSDOF 7
ENDMDL
MODEL 5
REMARK VINA RESULT:      -7.3      1.709      2.592
REMARK  Name = 
REMARK  8 active torsions:
REMARK  status: ('A' for Active; 'I' for Inactive)
REMARK    1  A    between atoms: C_1  and  O_2
REMARK    2  A    between atoms: O_2  and  C_3
REMARK    3  A    between atoms: C_8  and  N_9
REMARK    4  A    between atoms: C_10  and  C_12
REMARK    5  A    between atoms: C_12  and  N_13
REMARK    6  A    between atoms: C_16  and  C_17
REMARK    7  A    between atoms: N_19  and  C_20
REMARK    8  A    between atoms: C_27  and  N_28
REMARK                            x       y       z     vdW  Elec       q    Type
REMARK                         _______ _______ _______ _____ _____    ______ ____
ROOT
ATOM      1  N   UNL     1       7.409   5.801  18.034  0.00  0.00    +0.000 N 
ATOM      2  N   UNL     1       8.169   5.857  19.147  0.00  0.00    +0.000 NA
ATOM      3  N   UNL     1       8.578   7.110  19.289  0.00  0.00    +0.000 NA
ATOM      4  C   UNL     1       8.051   7.858  18.258  0.00  0.00    +0.000 A 
ATOM      5  C   UNL     1       7.303   7.031  17.434  0.00  0.00    +0.000 A 
ENDROOT
BRANCH   4   6
ATOM      6  C   UNL     1       8.283   9.290  18.105  0.00  0.00    +0.000 C 
ATOM      7  O   UNL     1       7.571   9.973  17.376  0.00  0.00    +0.000 OA
ATOM      8  N   UNL     1       9.392   9.741  18.800  0.00  0.00    +0.000 N 
ATOM      9  H   UNL     1       9.982   9.024  19.215  0.00  0.00    +0.000 HD
BRANCH   8  10
ATOM     10  C   UNL     1       9.864  11.072  18.866  0.00  0.00    +0.000 A 
ATOM     11  C   UNL     1      10.487  11.699  17.780  0.00  0.00    +0.000 A 
ATOM     12  C   UNL     1      10.951  13.014  17.876  0.00  0.00    +0.000 A 
ATOM     13  C   UNL     1      10.800  13.726  19.062  0.00  0.00    +0.000 A 
ATOM     14  C   UNL     1      10.169  13.127  20.150  0.00  0.00    +0.000 A 
ATOM     15  C   UNL     1       9.697  11.812  20.051  0.00  0.00    +0.000 A 
ATOM     16 BR   UNL     1       8.877  11.051  21.588  0.00  0.00    +0.000 Br
ENDBRANCH   8  10
ENDBRANCH   4   6
BRANCH   5  17
ATOM     17  N   UNL     1       6.606   7.264  16.297  0.00  0.00    +0.000 N 
ATOM     18  H   UNL     1       6.747   6.641  15.494  0.00  0.00    +0.000 HD
ATOM     19  H   UNL     1       5.728   7.778  16.252  0.00  0.00    +0.000 HD
ENDBRANCH   5  17
BRANCH   1  20
ATOM     20  C   UNL     1       6.832   4.543  17.635  0.00  0.00    +0.000 C 
BRANCH  20  22
ATOM     21  N   UNL     1       4.961   4.410  19.206  0.00  0.00    +0.000 N 
ATOM     22  C   UNL     1       5.343   4.538  17.876  0.00  0.00    +0.000 C 
ATOM     23  O   UNL     1       4.585   4.688  16.917  0.00  0.00    +0.000 OA
ATOM     24  H   UNL     1       5.678   4.400  19.930  0.00  0.00    +0.000 HD
BRANCH  21  30
ATOM     25  C   UNL     1       3.053   3.034  19.866  0.00  0.00    +0.000 A 
ATOM     26  C   UNL     1       1.727   2.926  20.315  0.00  0.00    +0.000 A 
ATOM     27  C   UNL     1       0.989   4.066  20.629  0.00  0.00    +0.000 A 
ATOM     28  C   UNL     1       1.558   5.322  20.480  0.00  0.00    +0.000 A 
ATOM     29  C   UNL     1       2.867   5.440  20.005  0.00  0.00    +0.000 A 
ATOM     30  C   UNL     1       3.633   4.311  19.696  0.00  0.00    +0.000 A 
BRANCH  25  32
ATOM     31  C   UNL     1       3.562   1.311  18.323  0.00  0.00    +0.000 C 
ATOM     32  O   UNL     1       3.839   1.940  19.577  0.00  0.00    +0.000 OA
ENDBRANCH  25  32
ENDBRANCH  21  30
ENDBRANCH  20  22
ENDBRANCH   1  20
TORSDOF 7
ENDMDL
MODEL 6
REMARK VINA RESULT:      -7.3      6.369      9.660
REMARK  Name = 
REMARK  8 active torsions:
REMARK  status: ('A' for Active; 'I' for Inactive)
REMARK    1  A    between atoms: C_1  and  O_2
REMARK    2  A    between atoms: O_2  and  C_3
REMARK    3  A    between atoms: C_8  and  N_9
REMARK    4  A    between atoms: C_10  and  C_12
REMARK    5  A    between atoms: C_12  and  N_13
REMARK    6  A    between atoms: C_16  and  C_17
REMARK    7  A    between atoms: N_19  and  C_20
REMARK    8  A    between atoms: C_27  and  N_28
REMARK                            x       y       z     vdW  Elec       q    Type
REMARK                         _______ _______ _______ _____ _____    ______ ____
ROOT
ATOM      1  N   UNL     1       0.920   9.693  20.412  0.00  0.00    +0.000 N 
ATOM      2  N   UNL     1       0.798   8.858  21.466  0.00  0.00    +0.000 NA
ATOM      3  N   UNL     1       1.361   7.706  21.130  0.00  0.00    +0.000 NA
ATOM      4  C   UNL     1       1.862   7.824  19.851  0.00  0.00    +0.000 A 
ATOM      5  C   UNL     1       1.579   9.094  19.368  0.00  0.00    +0.000 A 
ENDROOT
BRANCH   4   6
ATOM      6  C   UNL     1       2.564   6.748  19.161  0.00  0.00    +0.000 C 
ATOM      7  O   UNL     1       3.503   6.985  18.407  0.00  0.00    +0.000 OA
ATOM      8  N   UNL     1       2.021   5.497  19.403  0.00  0.00    +0.000 N 
ATOM      9  H   UNL     1       1.139   5.484  19.908  0.00  0.00    +0.000 HD
BRANCH   8  10
ATOM     10  C   UNL     1       2.486   4.262  18.898  0.00  0.00    +0.000 A 
ATOM     11  C   UNL     1       2.859   4.095  17.558  0.00  0.00    +0.000 A 
ATOM     12  C   UNL     1       3.308   2.859  17.083  0.00  0.00    +0.000 A 
ATOM     13  C   UNL     1       3.393   1.767  17.942  0.00  0.00    +0.000 A 
ATOM     14  C   UNL     1       3.042   1.915  19.283  0.00  0.00    +0.000 A 
ATOM     15  C   UNL     1       2.599   3.156  19.760  0.00  0.00    +0.000 A 
ATOM     16 BR   UNL     1       2.107   3.271  21.592  0.00  0.00    +0.000 Br
ENDBRANCH   8  10
ENDBRANCH   4   6
BRANCH   5  17
ATOM     17  N   UNL     1       1.833   9.697  18.184  0.00  0.00    +0.000 N 
ATOM     18  H   UNL     1       2.074   9.116  17.374  0.00  0.00    +0.000 HD
ATOM     19  H   UNL     1       1.498  10.622  17.923  0.00  0.00    +0.000 HD
ENDBRANCH   5  17
BRANCH   1  20
ATOM     20  C   UNL     1       0.384  11.027  20.503  0.00  0.00    +0.000 C 
BRANCH  20  22
ATOM     21  N   UNL     1      -1.519  10.607  19.024  0.00  0.00    +0.000 N 
ATOM     22  C   UNL     1      -0.387  11.378  19.254  0.00  0.00    +0.000 C 
ATOM     23  O   UNL     1      -0.002  12.322  18.564  0.00  0.00    +0.000 OA
ATOM     24  H   UNL     1      -1.802   9.919  19.721  0.00  0.00    +0.000 HD
BRANCH  21  30
ATOM     25  C   UNL     1      -3.560  11.453  17.980  0.00  0.00    +0.000 A 
ATOM     26  C   UNL     1      -4.434  11.507  16.882  0.00  0.00    +0.000 A 
ATOM     27  C   UNL     1      -4.129  10.837  15.698  0.00  0.00    +0.000 A 
ATOM     28  C   UNL     1      -2.962  10.094  15.605  0.00  0.00    +0.000 A 
ATOM     29  C   UNL     1      -2.100  10.011  16.702  0.00  0.00    +0.000 A 
ATOM     30  C   UNL     1      -2.377  10.684  17.896  0.00  0.00    +0.000 A 
BRANCH  25  32
ATOM     31  C   UNL     1      -5.171  12.239  19.528  0.00  0.00    +0.000 C 
ATOM     32  O   UNL     1      -3.794  12.126  19.160  0.00  0.00    +0.000 OA
ENDBRANCH  25  32
ENDBRANCH  21  30
ENDBRANCH  20  22
ENDBRANCH   1  20
TORSDOF 7
ENDMDL
MODEL 7
REMARK VINA RESULT:      -7.2      1.549      1.930
REMARK  Name = 
REMARK  8 active torsions:
REMARK  status: ('A' for Active; 'I' for Inactive)
REMARK    1  A    between atoms: C_1  and  O_2
REMARK    2  A    between atoms: O_2  and  C_3
REMARK    3  A    between atoms: C_8  and  N_9
REMARK    4  A    between atoms: C_10  and  C_12
REMARK    5  A    between atoms: C_12  and  N_13
REMARK    6  A    between atoms: C_16  and  C_17
REMARK    7  A    between atoms: N_19  and  C_20
REMARK    8  A    between atoms: C_27  and  N_28
REMARK                            x       y       z     vdW  Elec       q    Type
REMARK                         _______ _______ _______ _____ _____    ______ ____
ROOT
ATOM      1  N   UNL     1       7.338   5.623  18.060  0.00  0.00    +0.000 N 
ATOM      2  N   UNL     1       8.071   5.709  19.190  0.00  0.00    +0.000 NA
ATOM      3  N   UNL     1       8.462   6.969  19.317  0.00  0.00    +0.000 NA
ATOM      4  C   UNL     1       7.951   7.691  18.259  0.00  0.00    +0.000 A 
ATOM      5  C   UNL     1       7.232   6.839  17.434  0.00  0.00    +0.000 A 
ENDROOT
BRANCH   4   6
ATOM      6  C   UNL     1       8.170   9.122  18.084  0.00  0.00    +0.000 C 
ATOM      7  O   UNL     1       7.442   9.790  17.358  0.00  0.00    +0.000 OA
ATOM      8  N   UNL     1       9.287   9.591  18.755  0.00  0.00    +0.000 N 
ATOM      9  H   UNL     1       9.888   8.883  19.171  0.00  0.00    +0.000 HD
BRANCH   8  10
ATOM     10  C   UNL     1       9.750  10.925  18.797  0.00  0.00    +0.000 A 
ATOM     11  C   UNL     1      10.349  11.543  17.692  0.00  0.00    +0.000 A 
ATOM     12  C   UNL     1      10.806  12.862  17.763  0.00  0.00    +0.000 A 
ATOM     13  C   UNL     1      10.670  13.588  18.943  0.00  0.00    +0.000 A 
ATOM     14  C   UNL     1      10.063  12.998  20.050  0.00  0.00    +0.000 A 
ATOM     15  C   UNL     1       9.599  11.678  19.975  0.00  0.00    +0.000 A 
ATOM     16 BR   UNL     1       8.812  10.931  21.536  0.00  0.00    +0.000 Br
ENDBRANCH   8  10
ENDBRANCH   4   6
BRANCH   5  17
ATOM     17  N   UNL     1       6.560   7.042  16.277  0.00  0.00    +0.000 N 
ATOM     18  H   UNL     1       7.034   7.528  15.508  0.00  0.00    +0.000 HD
ATOM     19  H   UNL     1       5.764   6.488  15.966  0.00  0.00    +0.000 HD
ENDBRANCH   5  17
BRANCH   1  20
ATOM     20  C   UNL     1       6.785   4.350  17.673  0.00  0.00    +0.000 C 
BRANCH  20  22
ATOM     21  N   UNL     1       4.884   3.991  19.172  0.00  0.00    +0.000 N 
ATOM     22  C   UNL     1       5.291   4.330  17.887  0.00  0.00    +0.000 C 
ATOM     23  O   UNL     1       4.553   4.646  16.954  0.00  0.00    +0.000 OA
ATOM     24  H   UNL     1       5.588   3.851  19.895  0.00  0.00    +0.000 HD
BRANCH  21  30
ATOM     25  C   UNL     1       2.767   4.982  19.879  0.00  0.00    +0.000 A 
ATOM     26  C   UNL     1       1.454   4.838  20.357  0.00  0.00    +0.000 A 
ATOM     27  C   UNL     1       0.901   3.572  20.543  0.00  0.00    +0.000 A 
ATOM     28  C   UNL     1       1.657   2.441  20.274  0.00  0.00    +0.000 A 
ATOM     29  C   UNL     1       2.974   2.575  19.826  0.00  0.00    +0.000 A 
ATOM     30  C   UNL     1       3.547   3.834  19.619  0.00  0.00    +0.000 A 
BRANCH  25  32
ATOM     31  C   UNL     1       2.545   7.125  18.893  0.00  0.00    +0.000 C 
ATOM     32  O   UNL     1       3.349   6.209  19.642  0.00  0.00    +0.000 OA
ENDBRANCH  25  32
ENDBRANCH  21  30
ENDBRANCH  20  22
ENDBRANCH   1  20
TORSDOF 7
ENDMDL
MODEL 8
REMARK VINA RESULT:      -7.1      5.835      8.483
REMARK  Name = 
REMARK  8 active torsions:
REMARK  status: ('A' for Active; 'I' for Inactive)
REMARK    1  A    between atoms: C_1  and  O_2
REMARK    2  A    between atoms: O_2  and  C_3
REMARK    3  A    between atoms: C_8  and  N_9
REMARK    4  A    between atoms: C_10  and  C_12
REMARK    5  A    between atoms: C_12  and  N_13
REMARK    6  A    between atoms: C_16  and  C_17
REMARK    7  A    between atoms: N_19  and  C_20
REMARK    8  A    between atoms: C_27  and  N_28
REMARK                            x       y       z     vdW  Elec       q    Type
REMARK                         _______ _______ _______ _____ _____    ______ ____
ROOT
ATOM      1  N   UNL     1       1.778   8.657  19.121  0.00  0.00    +0.000 N 
ATOM      2  N   UNL     1       1.614   8.101  20.339  0.00  0.00    +0.000 NA
ATOM      3  N   UNL     1       0.739   8.842  21.002  0.00  0.00    +0.000 NA
ATOM      4  C   UNL     1       0.331   9.871  20.181  0.00  0.00    +0.000 A 
ATOM      5  C   UNL     1       0.995   9.774  18.968  0.00  0.00    +0.000 A 
ENDROOT
BRANCH   4   6
ATOM      6  C   UNL     1      -0.647  10.878  20.581  0.00  0.00    +0.000 C 
ATOM      7  O   UNL     1      -1.459  11.326  19.778  0.00  0.00    +0.000 OA
ATOM      8  N   UNL     1      -0.502  11.289  21.895  0.00  0.00    +0.000 N 
ATOM      9  H   UNL     1       0.327  10.954  22.379  0.00  0.00    +0.000 HD
BRANCH   8  10
ATOM     10  C   UNL     1      -1.302  12.232  22.579  0.00  0.00    +0.000 A 
ATOM     11  C   UNL     1      -2.477  11.868  23.249  0.00  0.00    +0.000 A 
ATOM     12  C   UNL     1      -3.255  12.823  23.911  0.00  0.00    +0.000 A 
ATOM     13  C   UNL     1      -2.869  14.161  23.914  0.00  0.00    +0.000 A 
ATOM     14  C   UNL     1      -1.696  14.541  23.267  0.00  0.00    +0.000 A 
ATOM     15  C   UNL     1      -0.913  13.583  22.611  0.00  0.00    +0.000 A 
ATOM     16 BR   UNL     1       0.657  14.184  21.722  0.00  0.00    +0.000 Br
ENDBRANCH   8  10
ENDBRANCH   4   6
BRANCH   5  17
ATOM     17  N   UNL     1       0.966  10.533  17.848  0.00  0.00    +0.000 N 
ATOM     18  H   UNL     1       1.516  11.398  17.822  0.00  0.00    +0.000 HD
ATOM     19  H   UNL     1       0.727  10.187  16.921  0.00  0.00    +0.000 HD
ENDBRANCH   5  17
BRANCH   1  20
ATOM     20  C   UNL     1       2.689   8.050  18.184  0.00  0.00    +0.000 C 
BRANCH  20  22
ATOM     21  N   UNL     1       1.989   5.706  18.172  0.00  0.00    +0.000 N 
ATOM     22  C   UNL     1       2.965   6.616  18.560  0.00  0.00    +0.000 C 
ATOM     23  O   UNL     1       4.022   6.344  19.130  0.00  0.00    +0.000 OA
ATOM     24  H   UNL     1       1.203   6.030  17.610  0.00  0.00    +0.000 HD
BRANCH  21  30
ATOM     25  C   UNL     1       2.702   3.432  17.634  0.00  0.00    +0.000 A 
ATOM     26  C   UNL     1       2.661   2.051  17.886  0.00  0.00    +0.000 A 
ATOM     27  C   UNL     1       1.934   1.547  18.964  0.00  0.00    +0.000 A 
ATOM     28  C   UNL     1       1.227   2.412  19.785  0.00  0.00    +0.000 A 
ATOM     29  C   UNL     1       1.238   3.785  19.525  0.00  0.00    +0.000 A 
ATOM     30  C   UNL     1       1.971   4.316  18.458  0.00  0.00    +0.000 A 
BRANCH  25  32
ATOM     31  C   UNL     1       4.854   3.878  16.749  0.00  0.00    +0.000 C 
ATOM     32  O   UNL     1       3.435   3.986  16.607  0.00  0.00    +0.000 OA
ENDBRANCH  25  32
ENDBRANCH  21  30
ENDBRANCH  20  22
ENDBRANCH   1  20
TORSDOF 7
ENDMDL
MODEL 9
REMARK VINA RESULT:      -7.1      6.211      9.586
REMARK  Name = 
REMARK  8 active torsions:
REMARK  status: ('A' for Active; 'I' for Inactive)
REMARK    1  A    between atoms: C_1  and  O_2
REMARK    2  A    between atoms: O_2  and  C_3
REMARK    3  A    between atoms: C_8  and  N_9
REMARK    4  A    between atoms: C_10  and  C_12
REMARK    5  A    between atoms: C_12  and  N_13
REMARK    6  A    between atoms: C_16  and  C_17
REMARK    7  A    between atoms: N_19  and  C_20
REMARK    8  A    between atoms: C_27  and  N_28
REMARK                            x       y       z     vdW  Elec       q    Type
REMARK                         _______ _______ _______ _____ _____    ______ ____
ROOT
ATOM      1  N   UNL     1       1.174   9.532  19.476  0.00  0.00    +0.000 N 
ATOM      2  N   UNL     1       1.398   9.545  18.145  0.00  0.00    +0.000 NA
ATOM      3  N   UNL     1       2.080   8.449  17.844  0.00  0.00    +0.000 NA
ATOM      4  C   UNL     1       2.271   7.725  19.001  0.00  0.00    +0.000 A 
ATOM      5  C   UNL     1       1.703   8.411  20.065  0.00  0.00    +0.000 A 
ENDROOT
BRANCH   4   6
ATOM      6  C   UNL     1       2.973   6.446  19.041  0.00  0.00    +0.000 C 
ATOM      7  O   UNL     1       4.093   6.354  19.533  0.00  0.00    +0.000 OA
ATOM      8  N   UNL     1       2.277   5.421  18.425  0.00  0.00    +0.000 N 
ATOM      9  H   UNL     1       1.443   5.692  17.911  0.00  0.00    +0.000 HD
BRANCH   8  10
ATOM     10  C   UNL     1       2.681   4.070  18.317  0.00  0.00    +0.000 A 
ATOM     11  C   UNL     1       3.499   3.617  17.275  0.00  0.00    +0.000 A 
ATOM     12  C   UNL     1       3.877   2.274  17.187  0.00  0.00    +0.000 A 
ATOM     13  C   UNL     1       3.444   1.360  18.144  0.00  0.00    +0.000 A 
ATOM     14  C   UNL     1       2.643   1.793  19.198  0.00  0.00    +0.000 A 
ATOM     15  C   UNL     1       2.270   3.141  19.289  0.00  0.00    +0.000 A 
ATOM     16 BR   UNL     1       1.148   3.649  20.737  0.00  0.00    +0.000 Br
ENDBRANCH   8  10
ENDBRANCH   4   6
BRANCH   5  17
ATOM     17  N   UNL     1       1.632   8.143  21.389  0.00  0.00    +0.000 N 
ATOM     18  H   UNL     1       1.324   8.884  22.028  0.00  0.00    +0.000 HD
ATOM     19  H   UNL     1       1.534   7.211  21.786  0.00  0.00    +0.000 HD
ENDBRANCH   5  17
BRANCH   1  20
ATOM     20  C   UNL     1       0.450  10.620  20.081  0.00  0.00    +0.000 C 
BRANCH  20  22
ATOM     21  N   UNL     1      -1.504  10.383  18.628  0.00  0.00    +0.000 N 
ATOM     22  C   UNL     1      -0.511  11.236  19.094  0.00  0.00    +0.000 C 
ATOM     23  O   UNL     1      -0.387  12.427  18.808  0.00  0.00    +0.000 OA
ATOM     24  H   UNL     1      -1.574   9.443  19.016  0.00  0.00    +0.000 HD
BRANCH  21  30
ATOM     25  C   UNL     1      -3.637  11.414  18.031  0.00  0.00    +0.000 A 
ATOM     26  C   UNL     1      -4.633  11.689  17.080  0.00  0.00    +0.000 A 
ATOM     27  C   UNL     1      -4.480  11.284  15.755  0.00  0.00    +0.000 A 
ATOM     28  C   UNL     1      -3.346  10.584  15.372  0.00  0.00    +0.000 A 
ATOM     29  C   UNL     1      -2.363  10.280  16.318  0.00  0.00    +0.000 A 
ATOM     30  C   UNL     1      -2.487  10.688  17.650  0.00  0.00    +0.000 A 
BRANCH  25  32
ATOM     31  C   UNL     1      -4.887  12.584  19.669  0.00  0.00    +0.000 C 
ATOM     32  O   UNL     1      -3.719  11.824  19.345  0.00  0.00    +0.000 OA
ENDBRANCH  25  32
ENDBRANCH  21  30
ENDBRANCH  20  22
ENDBRANCH   1  20
TORSDOF 7
ENDMDL
