MODEL 1
REMARK VINA RESULT:      -6.4      0.000      0.000
REMARK  Name = 
REMARK  5 active torsions:
REMARK  status: ('A' for Active; 'I' for Inactive)
REMARK    1  A    between atoms: C_1  and  C_2
REMARK    2  A    between atoms: C_6  and  C_7
REMARK    3  A    between atoms: C_7  and  N_8
REMARK    4  A    between atoms: N_18  and  C_19
REMARK    5  A    between atoms: N_18  and  C_20
REMARK                            x       y       z     vdW  Elec       q    Type
REMARK                         _______ _______ _______ _____ _____    ______ ____
ROOT
ATOM      1  N   UNL     1       5.921   4.556  14.927  0.00  0.00    +0.000 N 
ATOM      2  C   UNL     1       5.528   3.299  15.508  0.00  0.00    +0.000 C 
ATOM      3  C   UNL     1       5.319   3.631  16.972  0.00  0.00    +0.000 C 
ATOM      4  C   UNL     1       4.955   5.135  16.998  0.00  0.00    +0.000 C 
ATOM      5  C   UNL     1       5.733   5.880  18.101  0.00  0.00    +0.000 C 
ATOM      6  C   UNL     1       5.164   5.591  19.492  0.00  0.00    +0.000 C 
ATOM      7  C   UNL     1       3.680   5.949  19.492  0.00  0.00    +0.000 C 
ATOM      8  N   UNL     1       2.987   5.091  18.538  0.00  0.00    +0.000 N 
ATOM      9  C   UNL     1       2.123   4.030  18.722  0.00  0.00    +0.000 C 
ATOM     10  O   UNL     1       1.672   3.473  17.709  0.00  0.00    +0.000 OA
ATOM     11  N   UNL     1       1.749   3.539  19.960  0.00  0.00    +0.000 N 
ATOM     12  C   UNL     1       2.099   3.936  21.315  0.00  0.00    +0.000 C 
ATOM     13  C   UNL     1       0.777   2.443  19.957  0.00  0.00    +0.000 C 
ATOM     14  C   UNL     1       3.440   5.369  17.146  0.00  0.00    +0.000 C 
ATOM     15  C   UNL     1       5.472   5.641  15.659  0.00  0.00    +0.000 C 
ATOM     16  O   UNL     1       5.528   6.805  15.309  0.00  0.00    +0.000 OA
ENDROOT
BRANCH   1  17
ATOM     17  C   UNL     1       6.698   4.652  13.708  0.00  0.00    +0.000 C 
BRANCH  17  23
ATOM     18  C   UNL     1       3.194   2.930  10.755  0.00  0.00    +0.000 C 
ATOM     19  C   UNL     1       4.622   2.856  11.206  0.00  0.00    +0.000 A 
ATOM     20  C   UNL     1       5.498   1.934  10.640  0.00  0.00    +0.000 A 
ATOM     21  C   UNL     1       6.792   1.856  11.135  0.00  0.00    +0.000 A 
ATOM     22  C   UNL     1       7.188   2.711  12.163  0.00  0.00    +0.000 A 
ATOM     23  C   UNL     1       6.274   3.646  12.649  0.00  0.00    +0.000 A 
ATOM     24  N   UNL     1       4.996   3.713  12.192  0.00  0.00    +0.000 NA
ENDBRANCH  17  23
ENDBRANCH   1  17
TORSDOF 2
ENDMDL
MODEL 2
REMARK VINA RESULT:      -6.2      0.673      1.343
REMARK  Name = 
REMARK  5 active torsions:
REMARK  status: ('A' for Active; 'I' for Inactive)
REMARK    1  A    between atoms: C_1  and  C_2
REMARK    2  A    between atoms: C_6  and  C_7
REMARK    3  A    between atoms: C_7  and  N_8
REMARK    4  A    between atoms: N_18  and  C_19
REMARK    5  A    between atoms: N_18  and  C_20
REMARK                            x       y       z     vdW  Elec       q    Type
REMARK                         _______ _______ _______ _____ _____    ______ ____
ROOT
ATOM      1  N   UNL     1       5.737   4.427  14.923  0.00  0.00    +0.000 N 
ATOM      2  C   UNL     1       5.287   3.201  15.527  0.00  0.00    +0.000 C 
ATOM      3  C   UNL     1       5.164   3.549  16.997  0.00  0.00    +0.000 C 
ATOM      4  C   UNL     1       4.902   5.074  17.032  0.00  0.00    +0.000 C 
ATOM      5  C   UNL     1       5.775   5.768  18.096  0.00  0.00    +0.000 C 
ATOM      6  C   UNL     1       5.248   5.520  19.512  0.00  0.00    +0.000 C 
ATOM      7  C   UNL     1       3.793   5.976  19.574  0.00  0.00    +0.000 C 
ATOM      8  N   UNL     1       3.004   5.164  18.654  0.00  0.00    +0.000 N 
ATOM      9  C   UNL     1       2.080   4.163  18.880  0.00  0.00    +0.000 C 
ATOM     10  O   UNL     1       1.549   3.636  17.891  0.00  0.00    +0.000 OA
ATOM     11  N   UNL     1       1.727   3.701  20.135  0.00  0.00    +0.000 N 
ATOM     12  C   UNL     1       2.161   4.076  21.472  0.00  0.00    +0.000 C 
ATOM     13  C   UNL     1       0.685   2.673  20.180  0.00  0.00    +0.000 C 
ATOM     14  C   UNL     1       3.414   5.409  17.243  0.00  0.00    +0.000 C 
ATOM     15  C   UNL     1       5.393   5.541  15.669  0.00  0.00    +0.000 C 
ATOM     16  O   UNL     1       5.512   6.698  15.311  0.00  0.00    +0.000 OA
ENDROOT
BRANCH   1  17
ATOM     17  C   UNL     1       6.466   4.469  13.672  0.00  0.00    +0.000 C 
BRANCH  17  23
ATOM     18  C   UNL     1       6.479   0.352  11.024  0.00  0.00    +0.000 C 
ATOM     19  C   UNL     1       5.798   1.647  11.352  0.00  0.00    +0.000 A 
ATOM     20  C   UNL     1       4.623   2.014  10.702  0.00  0.00    +0.000 A 
ATOM     21  C   UNL     1       4.064   3.252  10.989  0.00  0.00    +0.000 A 
ATOM     22  C   UNL     1       4.675   4.082  11.930  0.00  0.00    +0.000 A 
ATOM     23  C   UNL     1       5.824   3.628  12.580  0.00  0.00    +0.000 A 
ATOM     24  N   UNL     1       6.395   2.431  12.286  0.00  0.00    +0.000 NA
ENDBRANCH  17  23
ENDBRANCH   1  17
TORSDOF 2
ENDMDL
MODEL 3
REMARK VINA RESULT:      -6.1      9.553     11.730
REMARK  Name = 
REMARK  5 active torsions:
REMARK  status: ('A' for Active; 'I' for Inactive)
REMARK    1  A    between atoms: C_1  and  C_2
REMARK    2  A    between atoms: C_6  and  C_7
REMARK    3  A    between atoms: C_7  and  N_8
REMARK    4  A    between atoms: N_18  and  C_19
REMARK    5  A    between atoms: N_18  and  C_20
REMARK                            x       y       z     vdW  Elec       q    Type
REMARK                         _______ _______ _______ _____ _____    ______ ____
ROOT
ATOM      1  N   UNL     1      -0.507  11.402  19.451  0.00  0.00    +0.000 N 
ATOM      2  C   UNL     1       0.875  11.269  19.072  0.00  0.00    +0.000 C 
ATOM      3  C   UNL     1       1.322  12.698  18.836  0.00  0.00    +0.000 C 
ATOM      4  C   UNL     1       0.396  13.563  19.725  0.00  0.00    +0.000 C 
ATOM      5  C   UNL     1      -0.132  14.790  18.955  0.00  0.00    +0.000 C 
ATOM      6  C   UNL     1       0.940  15.872  18.806  0.00  0.00    +0.000 C 
ATOM      7  C   UNL     1       1.454  16.240  20.195  0.00  0.00    +0.000 C 
ATOM      8  N   UNL     1       2.081  15.067  20.794  0.00  0.00    +0.000 N 
ATOM      9  C   UNL     1       3.405  14.761  21.035  0.00  0.00    +0.000 C 
ATOM     10  O   UNL     1       3.656  13.671  21.570  0.00  0.00    +0.000 OA
ATOM     11  N   UNL     1       4.466  15.584  20.698  0.00  0.00    +0.000 N 
ATOM     12  C   UNL     1       4.525  16.889  20.058  0.00  0.00    +0.000 C 
ATOM     13  C   UNL     1       5.798  15.117  21.086  0.00  0.00    +0.000 C 
ATOM     14  C   UNL     1       1.077  13.994  21.037  0.00  0.00    +0.000 C 
ATOM     15  C   UNL     1      -0.791  12.647  19.985  0.00  0.00    +0.000 C 
ATOM     16  O   UNL     1      -1.834  12.964  20.525  0.00  0.00    +0.000 OA
ENDROOT
BRANCH   1  17
ATOM     17  C   UNL     1      -1.475  10.337  19.286  0.00  0.00    +0.000 C 
BRANCH  17  23
ATOM     18  C   UNL     1      -5.494  12.152  17.160  0.00  0.00    +0.000 C 
ATOM     19  C   UNL     1      -4.209  11.395  17.005  0.00  0.00    +0.000 A 
ATOM     20  C   UNL     1      -3.821  10.903  15.762  0.00  0.00    +0.000 A 
ATOM     21  C   UNL     1      -2.658  10.150  15.679  0.00  0.00    +0.000 A 
ATOM     22  C   UNL     1      -1.900   9.925  16.828  0.00  0.00    +0.000 A 
ATOM     23  C   UNL     1      -2.322  10.490  18.032  0.00  0.00    +0.000 A 
ATOM     24  N   UNL     1      -3.473  11.204  18.131  0.00  0.00    +0.000 NA
ENDBRANCH  17  23
ENDBRANCH   1  17
TORSDOF 2
ENDMDL
MODEL 4
REMARK VINA RESULT:      -6.1      5.821      8.725
REMARK  Name = 
REMARK  5 active torsions:
REMARK  status: ('A' for Active; 'I' for Inactive)
REMARK    1  A    between atoms: C_1  and  C_2
REMARK    2  A    between atoms: C_6  and  C_7
REMARK    3  A    between atoms: C_7  and  N_8
REMARK    4  A    between atoms: N_18  and  C_19
REMARK    5  A    between atoms: N_18  and  C_20
REMARK                            x       y       z     vdW  Elec       q    Type
REMARK                         _______ _______ _______ _____ _____    ______ ____
ROOT
ATOM      1  N   UNL     1       1.498   7.898  20.202  0.00  0.00    +0.000 N 
ATOM      2  C   UNL     1       2.115   8.609  19.113  0.00  0.00    +0.000 C 
ATOM      3  C   UNL     1       1.136   9.726  18.813  0.00  0.00    +0.000 C 
ATOM      4  C   UNL     1       0.390   9.978  20.146  0.00  0.00    +0.000 C 
ATOM      5  C   UNL     1      -1.130  10.107  19.921  0.00  0.00    +0.000 C 
ATOM      6  C   UNL     1      -1.502  11.461  19.312  0.00  0.00    +0.000 C 
ATOM      7  C   UNL     1      -0.958  12.564  20.217  0.00  0.00    +0.000 C 
ATOM      8  N   UNL     1       0.497  12.473  20.251  0.00  0.00    +0.000 N 
ATOM      9  C   UNL     1       1.477  13.268  19.691  0.00  0.00    +0.000 C 
ATOM     10  O   UNL     1       2.659  12.950  19.889  0.00  0.00    +0.000 OA
ATOM     11  N   UNL     1       1.220  14.380  18.909  0.00  0.00    +0.000 N 
ATOM     12  C   UNL     1      -0.020  15.005  18.475  0.00  0.00    +0.000 C 
ATOM     13  C   UNL     1       2.389  15.134  18.449  0.00  0.00    +0.000 C 
ATOM     14  C   UNL     1       0.935  11.206  20.900  0.00  0.00    +0.000 C 
ATOM     15  C   UNL     1       0.625   8.692  20.924  0.00  0.00    +0.000 C 
ATOM     16  O   UNL     1       0.097   8.389  21.979  0.00  0.00    +0.000 OA
ENDROOT
BRANCH   1  17
ATOM     17  C   UNL     1       1.777   6.507  20.494  0.00  0.00    +0.000 C 
BRANCH  17  23
ATOM     18  C   UNL     1       6.259   5.278  18.956  0.00  0.00    +0.000 C 
ATOM     19  C   UNL     1       4.778   5.209  18.732  0.00  0.00    +0.000 A 
ATOM     20  C   UNL     1       4.257   4.532  17.633  0.00  0.00    +0.000 A 
ATOM     21  C   UNL     1       2.885   4.551  17.430  0.00  0.00    +0.000 A 
ATOM     22  C   UNL     1       2.064   5.224  18.335  0.00  0.00    +0.000 A 
ATOM     23  C   UNL     1       2.649   5.839  19.442  0.00  0.00    +0.000 A 
ATOM     24  N   UNL     1       3.993   5.851  19.636  0.00  0.00    +0.000 NA
ENDBRANCH  17  23
ENDBRANCH   1  17
TORSDOF 2
ENDMDL
MODEL 5
REMARK VINA RESULT:      -5.9      7.322      9.439
REMARK  Name = 
REMARK  5 active torsions:
REMARK  status: ('A' for Active; 'I' for Inactive)
REMARK    1  A    between atoms: C_1  and  C_2
REMARK    2  A    between atoms: C_6  and  C_7
REMARK    3  A    between atoms: C_7  and  N_8
REMARK    4  A    between atoms: N_18  and  C_19
REMARK    5  A    between atoms: N_18  and  C_20
REMARK                            x       y       z     vdW  Elec       q    Type
REMARK                         _______ _______ _______ _____ _____    ______ ____
ROOT
ATOM      1  N   UNL     1       0.874  10.372  18.607  0.00  0.00    +0.000 N 
ATOM      2  C   UNL     1      -0.409   9.722  18.655  0.00  0.00    +0.000 C 
ATOM      3  C   UNL     1      -1.010  10.209  19.958  0.00  0.00    +0.000 C 
ATOM      4  C   UNL     1      -0.347  11.582  20.221  0.00  0.00    +0.000 C 
ATOM      5  C   UNL     1       0.111  11.711  21.687  0.00  0.00    +0.000 C 
ATOM      6  C   UNL     1      -1.068  11.961  22.631  0.00  0.00    +0.000 C 
ATOM      7  C   UNL     1      -1.818  13.201  22.151  0.00  0.00    +0.000 C 
ATOM      8  N   UNL     1      -2.356  12.941  20.820  0.00  0.00    +0.000 N 
ATOM      9  C   UNL     1      -3.647  12.718  20.383  0.00  0.00    +0.000 C 
ATOM     10  O   UNL     1      -3.818  12.525  19.170  0.00  0.00    +0.000 OA
ATOM     11  N   UNL     1      -4.752  12.678  21.214  0.00  0.00    +0.000 N 
ATOM     12  C   UNL     1      -4.899  12.842  22.652  0.00  0.00    +0.000 C 
ATOM     13  C   UNL     1      -6.049  12.488  20.561  0.00  0.00    +0.000 C 
ATOM     14  C   UNL     1      -1.259  12.759  19.829  0.00  0.00    +0.000 C 
ATOM     15  C   UNL     1       0.907  11.534  19.359  0.00  0.00    +0.000 C 
ATOM     16  O   UNL     1       1.809  12.350  19.363  0.00  0.00    +0.000 OA
ENDROOT
BRANCH   1  17
ATOM     17  C   UNL     1       1.993   9.853  17.848  0.00  0.00    +0.000 C 
BRANCH  17  23
ATOM     18  C   UNL     1       4.536   5.780  16.894  0.00  0.00    +0.000 C 
ATOM     19  C   UNL     1       3.654   6.531  17.846  0.00  0.00    +0.000 A 
ATOM     20  C   UNL     1       3.281   5.966  19.063  0.00  0.00    +0.000 A 
ATOM     21  C   UNL     1       2.409   6.670  19.882  0.00  0.00    +0.000 A 
ATOM     22  C   UNL     1       1.950   7.925  19.482  0.00  0.00    +0.000 A 
ATOM     23  C   UNL     1       2.405   8.452  18.273  0.00  0.00    +0.000 A 
ATOM     24  N   UNL     1       3.235   7.761  17.450  0.00  0.00    +0.000 NA
ENDBRANCH  17  23
ENDBRANCH   1  17
TORSDOF 2
ENDMDL
MODEL 6
REMARK VINA RESULT:      -5.9      6.005      8.554
REMARK  Name = 
REMARK  5 active torsions:
REMARK  status: ('A' for Active; 'I' for Inactive)
REMARK    1  A    between atoms: C_1  and  C_2
REMARK    2  A    between atoms: C_6  and  C_7
REMARK    3  A    between atoms: C_7  and  N_8
REMARK    4  A    between atoms: N_18  and  C_19
REMARK    5  A    between atoms: N_18  and  C_20
REMARK                            x       y       z     vdW  Elec       q    Type
REMARK                         _______ _______ _______ _____ _____    ______ ____
ROOT
ATOM      1  N   UNL     1       1.441   8.286  19.618  0.00  0.00    +0.000 N 
ATOM      2  C   UNL     1       0.202   8.139  20.336  0.00  0.00    +0.000 C 
ATOM      3  C   UNL     1      -0.414   9.522  20.275  0.00  0.00    +0.000 C 
ATOM      4  C   UNL     1       0.164  10.167  18.992  0.00  0.00    +0.000 C 
ATOM      5  C   UNL     1       0.628  11.614  19.253  0.00  0.00    +0.000 C 
ATOM      6  C   UNL     1      -0.554  12.581  19.355  0.00  0.00    +0.000 C 
ATOM      7  C   UNL     1      -1.387  12.464  18.081  0.00  0.00    +0.000 C 
ATOM      8  N   UNL     1      -1.922  11.110  17.988  0.00  0.00    +0.000 N 
ATOM      9  C   UNL     1      -3.200  10.618  18.161  0.00  0.00    +0.000 C 
ATOM     10  O   UNL     1      -3.372   9.398  18.015  0.00  0.00    +0.000 OA
ATOM     11  N   UNL     1      -4.291  11.396  18.504  0.00  0.00    +0.000 N 
ATOM     12  C   UNL     1      -4.433  12.820  18.762  0.00  0.00    +0.000 C 
ATOM     13  C   UNL     1      -5.581  10.706  18.585  0.00  0.00    +0.000 C 
ATOM     14  C   UNL     1      -0.826  10.116  17.813  0.00  0.00    +0.000 C 
ATOM     15  C   UNL     1       1.408   9.336  18.716  0.00  0.00    +0.000 C 
ATOM     16  O   UNL     1       2.257   9.577  17.878  0.00  0.00    +0.000 OA
ENDROOT
BRANCH   1  17
ATOM     17  C   UNL     1       2.583   7.420  19.830  0.00  0.00    +0.000 C 
BRANCH  17  23
ATOM     18  C   UNL     1       1.544   2.896  21.383  0.00  0.00    +0.000 C 
ATOM     19  C   UNL     1       1.755   3.821  20.223  0.00  0.00    +0.000 A 
ATOM     20  C   UNL     1       1.654   3.353  18.915  0.00  0.00    +0.000 A 
ATOM     21  C   UNL     1       1.924   4.229  17.873  0.00  0.00    +0.000 A 
ATOM     22  C   UNL     1       2.266   5.552  18.157  0.00  0.00    +0.000 A 
ATOM     23  C   UNL     1       2.299   5.966  19.489  0.00  0.00    +0.000 A 
ATOM     24  N   UNL     1       2.065   5.110  20.518  0.00  0.00    +0.000 NA
ENDBRANCH  17  23
ENDBRANCH   1  17
TORSDOF 2
ENDMDL
MODEL 7
REMARK VINA RESULT:      -5.8      5.622      8.267
REMARK  Name = 
REMARK  5 active torsions:
REMARK  status: ('A' for Active; 'I' for Inactive)
REMARK    1  A    between atoms: C_1  and  C_2
REMARK    2  A    between atoms: C_6  and  C_7
REMARK    3  A    between atoms: C_7  and  N_8
REMARK    4  A    between atoms: N_18  and  C_19
REMARK    5  A    between atoms: N_18  and  C_20
REMARK                            x       y       z     vdW  Elec       q    Type
REMARK                         _______ _______ _______ _____ _____    ______ ____
ROOT
ATOM      1  N   UNL     1       2.182   7.888  19.054  0.00  0.00    +0.000 N 
ATOM      2  C   UNL     1       2.463   8.845  18.016  0.00  0.00    +0.000 C 
ATOM      3  C   UNL     1       1.342   9.856  18.146  0.00  0.00    +0.000 C 
ATOM      4  C   UNL     1       0.902   9.784  19.628  0.00  0.00    +0.000 C 
ATOM      5  C   UNL     1      -0.634   9.744  19.755  0.00  0.00    +0.000 C 
ATOM      6  C   UNL     1      -1.260  11.119  19.508  0.00  0.00    +0.000 C 
ATOM      7  C   UNL     1      -0.628  12.120  20.472  0.00  0.00    +0.000 C 
ATOM      8  N   UNL     1       0.799  12.218  20.182  0.00  0.00    +0.000 N 
ATOM      9  C   UNL     1       1.545  13.218  19.591  0.00  0.00    +0.000 C 
ATOM     10  O   UNL     1       2.765  13.032  19.472  0.00  0.00    +0.000 OA
ATOM     11  N   UNL     1       1.013  14.400  19.107  0.00  0.00    +0.000 N 
ATOM     12  C   UNL     1      -0.346  14.917  19.070  0.00  0.00    +0.000 C 
ATOM     13  C   UNL     1       1.969  15.368  18.565  0.00  0.00    +0.000 C 
ATOM     14  C   UNL     1       1.490  10.931  20.471  0.00  0.00    +0.000 C 
ATOM     15  C   UNL     1       1.428   8.429  20.081  0.00  0.00    +0.000 C 
ATOM     16  O   UNL     1       1.188   7.889  21.145  0.00  0.00    +0.000 OA
ENDROOT
BRANCH   1  17
ATOM     17  C   UNL     1       2.649   6.518  19.010  0.00  0.00    +0.000 C 
BRANCH  17  23
ATOM     18  C   UNL     1       7.457   5.637  19.268  0.00  0.00    +0.000 C 
ATOM     19  C   UNL     1       6.259   5.894  18.404  0.00  0.00    +0.000 A 
ATOM     20  C   UNL     1       6.382   5.944  17.018  0.00  0.00    +0.000 A 
ATOM     21  C   UNL     1       5.260   6.251  16.262  0.00  0.00    +0.000 A 
ATOM     22  C   UNL     1       4.040   6.479  16.900  0.00  0.00    +0.000 A 
ATOM     23  C   UNL     1       3.978   6.362  18.289  0.00  0.00    +0.000 A 
ATOM     24  N   UNL     1       5.076   6.090  19.042  0.00  0.00    +0.000 NA
ENDBRANCH  17  23
ENDBRANCH   1  17
TORSDOF 2
ENDMDL
MODEL 8
REMARK VINA RESULT:      -5.8      5.522      8.209
REMARK  Name = 
REMARK  5 active torsions:
REMARK  status: ('A' for Active; 'I' for Inactive)
REMARK    1  A    between atoms: C_1  and  C_2
REMARK    2  A    between atoms: C_6  and  C_7
REMARK    3  A    between atoms: C_7  and  N_8
REMARK    4  A    between atoms: N_18  and  C_19
REMARK    5  A    between atoms: N_18  and  C_20
REMARK                            x       y       z     vdW  Elec       q    Type
REMARK                         _______ _______ _______ _____ _____    ______ ____
ROOT
ATOM      1  N   UNL     1       2.251   7.867  19.194  0.00  0.00    +0.000 N 
ATOM      2  C   UNL     1       1.457   8.138  20.364  0.00  0.00    +0.000 C 
ATOM      3  C   UNL     1       1.246   9.638  20.316  0.00  0.00    +0.000 C 
ATOM      4  C   UNL     1       1.348  10.013  18.818  0.00  0.00    +0.000 C 
ATOM      5  C   UNL     1       2.227  11.262  18.613  0.00  0.00    +0.000 C 
ATOM      6  C   UNL     1       1.494  12.545  19.012  0.00  0.00    +0.000 C 
ATOM      7  C   UNL     1       0.189  12.623  18.222  0.00  0.00    +0.000 C 
ATOM      8  N   UNL     1      -0.654  11.491  18.591  0.00  0.00    +0.000 N 
ATOM      9  C   UNL     1      -1.807  11.418  19.347  0.00  0.00    +0.000 C 
ATOM     10  O   UNL     1      -2.326  10.302  19.499  0.00  0.00    +0.000 OA
ATOM     11  N   UNL     1      -2.404  12.506  19.959  0.00  0.00    +0.000 N 
ATOM     12  C   UNL     1      -2.055  13.918  20.000  0.00  0.00    +0.000 C 
ATOM     13  C   UNL     1      -3.656  12.244  20.672  0.00  0.00    +0.000 C 
ATOM     14  C   UNL     1      -0.034  10.205  18.167  0.00  0.00    +0.000 C 
ATOM     15  C   UNL     1       2.093   8.831  18.214  0.00  0.00    +0.000 C 
ATOM     16  O   UNL     1       2.522   8.763  17.077  0.00  0.00    +0.000 OA
ENDROOT
BRANCH   1  17
ATOM     17  C   UNL     1       3.111   6.708  19.076  0.00  0.00    +0.000 C 
BRANCH  17  23
ATOM     18  C   UNL     1       1.369   2.923  21.645  0.00  0.00    +0.000 C 
ATOM     19  C   UNL     1       1.473   3.615  20.320  0.00  0.00    +0.000 A 
ATOM     20  C   UNL     1       0.861   3.080  19.190  0.00  0.00    +0.000 A 
ATOM     21  C   UNL     1       1.039   3.720  17.971  0.00  0.00    +0.000 A 
ATOM     22  C   UNL     1       1.803   4.885  17.911  0.00  0.00    +0.000 A 
ATOM     23  C   UNL     1       2.347   5.394  19.091  0.00  0.00    +0.000 A 
ATOM     24  N   UNL     1       2.202   4.761  20.285  0.00  0.00    +0.000 NA
ENDBRANCH  17  23
ENDBRANCH   1  17
TORSDOF 2
ENDMDL
MODEL 9
REMARK VINA RESULT:      -5.8      9.546     11.838
REMARK  Name = 
REMARK  5 active torsions:
REMARK  status: ('A' for Active; 'I' for Inactive)
REMARK    1  A    between atoms: C_1  and  C_2
REMARK    2  A    between atoms: C_6  and  C_7
REMARK    3  A    between atoms: C_7  and  N_8
REMARK    4  A    between atoms: N_18  and  C_19
REMARK    5  A    between atoms: N_18  and  C_20
REMARK                            x       y       z     vdW  Elec       q    Type
REMARK                         _______ _______ _______ _____ _____    ______ ____
ROOT
ATOM      1  N   UNL     1       0.098  11.698  19.437  0.00  0.00    +0.000 N 
ATOM      2  C   UNL     1       0.460  12.657  18.428  0.00  0.00    +0.000 C 
ATOM      3  C   UNL     1       0.742  13.920  19.217  0.00  0.00    +0.000 C 
ATOM      4  C   UNL     1       1.171  13.432  20.621  0.00  0.00    +0.000 C 
ATOM      5  C   UNL     1       0.470  14.240  21.732  0.00  0.00    +0.000 C 
ATOM      6  C   UNL     1       1.082  15.633  21.894  0.00  0.00    +0.000 C 
ATOM      7  C   UNL     1       2.579  15.478  22.151  0.00  0.00    +0.000 C 
ATOM      8  N   UNL     1       3.196  14.850  20.988  0.00  0.00    +0.000 N 
ATOM      9  C   UNL     1       4.020  15.358  20.004  0.00  0.00    +0.000 C 
ATOM     10  O   UNL     1       4.406  14.580  19.119  0.00  0.00    +0.000 OA
ATOM     11  N   UNL     1       4.423  16.680  19.935  0.00  0.00    +0.000 N 
ATOM     12  C   UNL     1       4.145  17.831  20.779  0.00  0.00    +0.000 C 
ATOM     13  C   UNL     1       5.347  17.021  18.851  0.00  0.00    +0.000 C 
ATOM     14  C   UNL     1       2.699  13.457  20.810  0.00  0.00    +0.000 C 
ATOM     15  C   UNL     1       0.622  12.014  20.679  0.00  0.00    +0.000 C 
ATOM     16  O   UNL     1       0.601  11.295  21.661  0.00  0.00    +0.000 OA
ENDROOT
BRANCH   1  17
ATOM     17  C   UNL     1      -0.723  10.536  19.163  0.00  0.00    +0.000 C 
BRANCH  17  23
ATOM     18  C   UNL     1      -2.937  10.101  14.819  0.00  0.00    +0.000 C 
ATOM     19  C   UNL     1      -3.002  10.600  16.231  0.00  0.00    +0.000 A 
ATOM     20  C   UNL     1      -4.128  11.275  16.694  0.00  0.00    +0.000 A 
ATOM     21  C   UNL     1      -4.117  11.777  17.987  0.00  0.00    +0.000 A 
ATOM     22  C   UNL     1      -2.997  11.577  18.794  0.00  0.00    +0.000 A 
ATOM     23  C   UNL     1      -1.923  10.848  18.283  0.00  0.00    +0.000 A 
ATOM     24  N   UNL     1      -1.911  10.376  17.009  0.00  0.00    +0.000 NA
ENDBRANCH  17  23
ENDBRANCH   1  17
TORSDOF 2
ENDMDL
