MODEL 1
REMARK VINA RESULT:      -8.7      0.000      0.000
REMARK  Name = 
REMARK  7 active torsions:
REMARK  status: ('A' for Active; 'I' for Inactive)
REMARK    1  A    between atoms: C_2  and  C_24
REMARK    2  A    between atoms: N_3  and  C_4
REMARK    3  A    between atoms: C_4  and  C_5
REMARK    4  A    between atoms: C_5  and  C_6
REMARK    5  A    between atoms: N_14  and  C_15
REMARK    6  A    between atoms: C_15  and  C_16
REMARK    7  A    between atoms: C_17  and  C_18
REMARK                            x       y       z     vdW  Elec       q    Type
REMARK                         _______ _______ _______ _____ _____    ______ ____
ROOT
ATOM      1  C   UNL     1       7.593   6.652  17.623  0.00  0.00    +0.000 A 
ATOM      2  N   UNL     1       7.826   6.619  16.338  0.00  0.00    +0.000 NA
ATOM      3  C   UNL     1       7.046   5.624  15.817  0.00  0.00    +0.000 A 
ATOM      4  C   UNL     1       6.953   5.193  14.482  0.00  0.00    +0.000 A 
ATOM      5  C   UNL     1       6.097   4.151  14.138  0.00  0.00    +0.000 A 
ATOM      6  C   UNL     1       5.331   3.535  15.123  0.00  0.00    +0.000 A 
ATOM      7  C   UNL     1       5.410   3.946  16.469  0.00  0.00    +0.000 A 
ATOM      8  C   UNL     1       6.278   5.004  16.816  0.00  0.00    +0.000 A 
ATOM      9  N   UNL     1       6.621   5.704  17.977  0.00  0.00    +0.000 N 
ENDROOT
BRANCH   1  10
ATOM     10  C   UNL     1       8.333   7.548  18.585  0.00  0.00    +0.000 C 
BRANCH  10  11
ATOM     11  C   UNL     1       8.376   9.026  18.146  0.00  0.00    +0.000 C 
BRANCH  11  14
ATOM     12  O   UNL     1      10.309  10.973  17.706  0.00  0.00    +0.000 OA
ATOM     13  C   UNL     1       9.894  10.831  18.873  0.00  0.00    +0.000 C 
ATOM     14  N   UNL     1       8.914   9.912  19.176  0.00  0.00    +0.000 N 
ATOM     15  H   UNL     1       8.609   9.806  20.141  0.00  0.00    +0.000 HD
BRANCH  13  16
ATOM     16  C   UNL     1      10.358  11.704  20.029  0.00  0.00    +0.000 C 
ATOM     17  C   UNL     1      11.844  12.084  19.938  0.00  0.00    +0.000 C 
ATOM     18  C   UNL     1      12.143  13.153  18.886  0.00  0.00    +0.000 C 
ATOM     19  C   UNL     1      11.248  14.377  19.045  0.00  0.00    +0.000 C 
ATOM     20  C   UNL     1       9.774  13.993  19.075  0.00  0.00    +0.000 C 
ATOM     21  C   UNL     1       9.484  12.961  20.167  0.00  0.00    +0.000 C 
ENDBRANCH  13  16
ENDBRANCH  11  14
ENDBRANCH  10  11
ENDBRANCH   1  10
BRANCH   9  22
ATOM     22  C   UNL     1       6.157   5.475  19.356  0.00  0.00    +0.000 C 
BRANCH  22  23
ATOM     23  C   UNL     1       4.813   4.796  19.483  0.00  0.00    +0.000 C 
ATOM     24  C   UNL     1       3.575   5.316  19.538  0.00  0.00    +0.000 C 
BRANCH  24  25
ATOM     25  C   UNL     1       2.446   4.372  19.588  0.00  0.00    +0.000 A 
ATOM     26  C   UNL     1       1.877   3.979  20.810  0.00  0.00    +0.000 A 
ATOM     27  C   UNL     1       0.895   2.982  20.856  0.00  0.00    +0.000 A 
ATOM     28  C   UNL     1       0.453   2.389  19.676  0.00  0.00    +0.000 A 
ATOM     29  C   UNL     1       0.996   2.786  18.457  0.00  0.00    +0.000 A 
ATOM     30  C   UNL     1       2.002   3.758  18.411  0.00  0.00    +0.000 A 
ENDBRANCH  24  25
ENDBRANCH  22  23
ENDBRANCH   9  22
TORSDOF 7
ENDMDL
MODEL 2
REMARK VINA RESULT:      -8.5      5.223      7.882
REMARK  Name = 
REMARK  7 active torsions:
REMARK  status: ('A' for Active; 'I' for Inactive)
REMARK    1  A    between atoms: C_2  and  C_24
REMARK    2  A    between atoms: N_3  and  C_4
REMARK    3  A    between atoms: C_4  and  C_5
REMARK    4  A    between atoms: C_5  and  C_6
REMARK    5  A    between atoms: N_14  and  C_15
REMARK    6  A    between atoms: C_15  and  C_16
REMARK    7  A    between atoms: C_17  and  C_18
REMARK                            x       y       z     vdW  Elec       q    Type
REMARK                         _______ _______ _______ _____ _____    ______ ____
ROOT
ATOM      1  C   UNL     1       2.857   6.563  18.271  0.00  0.00    +0.000 A 
ATOM      2  N   UNL     1       1.782   5.907  18.620  0.00  0.00    +0.000 NA
ATOM      3  C   UNL     1       2.080   4.576  18.529  0.00  0.00    +0.000 A 
ATOM      4  C   UNL     1       1.248   3.473  18.788  0.00  0.00    +0.000 A 
ATOM      5  C   UNL     1       1.732   2.176  18.635  0.00  0.00    +0.000 A 
ATOM      6  C   UNL     1       3.046   1.976  18.225  0.00  0.00    +0.000 A 
ATOM      7  C   UNL     1       3.898   3.065  17.955  0.00  0.00    +0.000 A 
ATOM      8  C   UNL     1       3.406   4.380  18.112  0.00  0.00    +0.000 A 
ATOM      9  N   UNL     1       3.906   5.679  17.979  0.00  0.00    +0.000 N 
ENDROOT
BRANCH   1  10
ATOM     10  C   UNL     1       2.915   8.065  18.139  0.00  0.00    +0.000 C 
BRANCH  10  11
ATOM     11  C   UNL     1       1.561   8.706  17.769  0.00  0.00    +0.000 C 
BRANCH  11  14
ATOM     12  O   UNL     1      -0.901   9.993  17.699  0.00  0.00    +0.000 OA
ATOM     13  C   UNL     1      -0.123  10.294  18.625  0.00  0.00    +0.000 C 
ATOM     14  N   UNL     1       1.104   9.683  18.755  0.00  0.00    +0.000 N 
ATOM     15  H   UNL     1       1.725   9.964  19.510  0.00  0.00    +0.000 HD
BRANCH  13  16
ATOM     16  C   UNL     1      -0.488  11.279  19.725  0.00  0.00    +0.000 C 
ATOM     17  C   UNL     1       0.732  11.782  20.512  0.00  0.00    +0.000 C 
ATOM     18  C   UNL     1       1.580  12.800  19.750  0.00  0.00    +0.000 C 
ATOM     19  C   UNL     1       0.740  13.948  19.203  0.00  0.00    +0.000 C 
ATOM     20  C   UNL     1      -0.434  13.439  18.375  0.00  0.00    +0.000 C 
ATOM     21  C   UNL     1      -1.300  12.461  19.170  0.00  0.00    +0.000 C 
ENDBRANCH  13  16
ENDBRANCH  11  14
ENDBRANCH  10  11
ENDBRANCH   1  10
BRANCH   9  22
ATOM     22  C   UNL     1       5.242   6.106  17.530  0.00  0.00    +0.000 C 
BRANCH  22  23
ATOM     23  C   UNL     1       5.617   5.690  16.127  0.00  0.00    +0.000 C 
ATOM     24  C   UNL     1       6.565   4.841  15.692  0.00  0.00    +0.000 C 
BRANCH  24  25
ATOM     25  C   UNL     1       6.633   4.587  14.244  0.00  0.00    +0.000 A 
ATOM     26  C   UNL     1       5.793   3.646  13.627  0.00  0.00    +0.000 A 
ATOM     27  C   UNL     1       5.955   3.316  12.276  0.00  0.00    +0.000 A 
ATOM     28  C   UNL     1       6.943   3.946  11.522  0.00  0.00    +0.000 A 
ATOM     29  C   UNL     1       7.767   4.897  12.119  0.00  0.00    +0.000 A 
ATOM     30  C   UNL     1       7.629   5.203  13.477  0.00  0.00    +0.000 A 
ENDBRANCH  24  25
ENDBRANCH  22  23
ENDBRANCH   9  22
TORSDOF 7
ENDMDL
MODEL 3
REMARK VINA RESULT:      -8.4      2.147      2.861
REMARK  Name = 
REMARK  7 active torsions:
REMARK  status: ('A' for Active; 'I' for Inactive)
REMARK    1  A    between atoms: C_2  and  C_24
REMARK    2  A    between atoms: N_3  and  C_4
REMARK    3  A    between atoms: C_4  and  C_5
REMARK    4  A    between atoms: C_5  and  C_6
REMARK    5  A    between atoms: N_14  and  C_15
REMARK    6  A    between atoms: C_15  and  C_16
REMARK    7  A    between atoms: C_17  and  C_18
REMARK                            x       y       z     vdW  Elec       q    Type
REMARK                         _______ _______ _______ _____ _____    ______ ____
ROOT
ATOM      1  C   UNL     1       7.171   6.166  17.078  0.00  0.00    +0.000 A 
ATOM      2  N   UNL     1       7.675   6.123  15.873  0.00  0.00    +0.000 NA
ATOM      3  C   UNL     1       6.943   5.209  15.167  0.00  0.00    +0.000 A 
ATOM      4  C   UNL     1       7.107   4.800  13.832  0.00  0.00    +0.000 A 
ATOM      5  C   UNL     1       6.257   3.845  13.281  0.00  0.00    +0.000 A 
ATOM      6  C   UNL     1       5.242   3.294  14.058  0.00  0.00    +0.000 A 
ATOM      7  C   UNL     1       5.062   3.684  15.400  0.00  0.00    +0.000 A 
ATOM      8  C   UNL     1       5.924   4.654  15.957  0.00  0.00    +0.000 A 
ATOM      9  N   UNL     1       6.065   5.310  17.185  0.00  0.00    +0.000 N 
ENDROOT
BRANCH   1  10
ATOM     10  C   UNL     1       7.760   6.981  18.203  0.00  0.00    +0.000 C 
BRANCH  10  11
ATOM     11  C   UNL     1       7.741   8.501  17.941  0.00  0.00    +0.000 C 
BRANCH  11  14
ATOM     12  O   UNL     1       8.288  11.209  17.635  0.00  0.00    +0.000 OA
ATOM     13  C   UNL     1       9.061  10.545  18.353  0.00  0.00    +0.000 C 
ATOM     14  N   UNL     1       8.849   9.205  18.585  0.00  0.00    +0.000 N 
ATOM     15  H   UNL     1       9.508   8.686  19.161  0.00  0.00    +0.000 HD
BRANCH  13  16
ATOM     16  C   UNL     1      10.237  11.163  19.096  0.00  0.00    +0.000 C 
ATOM     17  C   UNL     1      11.325  11.703  18.157  0.00  0.00    +0.000 C 
ATOM     18  C   UNL     1      10.948  13.015  17.466  0.00  0.00    +0.000 C 
ATOM     19  C   UNL     1      10.477  14.069  18.461  0.00  0.00    +0.000 C 
ATOM     20  C   UNL     1       9.357  13.541  19.349  0.00  0.00    +0.000 C 
ATOM     21  C   UNL     1       9.769  12.257  20.070  0.00  0.00    +0.000 C 
ENDBRANCH  13  16
ENDBRANCH  11  14
ENDBRANCH  10  11
ENDBRANCH   1  10
BRANCH   9  22
ATOM     22  C   UNL     1       5.293   5.113  18.423  0.00  0.00    +0.000 C 
BRANCH  22  23
ATOM     23  C   UNL     1       4.253   6.170  18.713  0.00  0.00    +0.000 C 
ATOM     24  C   UNL     1       3.282   6.675  17.932  0.00  0.00    +0.000 C 
BRANCH  24  25
ATOM     25  C   UNL     1       2.369   7.657  18.539  0.00  0.00    +0.000 A 
ATOM     26  C   UNL     1       1.898   8.763  17.813  0.00  0.00    +0.000 A 
ATOM     27  C   UNL     1       1.138   9.760  18.436  0.00  0.00    +0.000 A 
ATOM     28  C   UNL     1       0.819   9.646  19.788  0.00  0.00    +0.000 A 
ATOM     29  C   UNL     1       1.263   8.542  20.512  0.00  0.00    +0.000 A 
ATOM     30  C   UNL     1       2.051   7.562  19.899  0.00  0.00    +0.000 A 
ENDBRANCH  24  25
ENDBRANCH  22  23
ENDBRANCH   9  22
TORSDOF 7
ENDMDL
MODEL 4
REMARK VINA RESULT:      -8.4      5.169      8.803
REMARK  Name = 
REMARK  7 active torsions:
REMARK  status: ('A' for Active; 'I' for Inactive)
REMARK    1  A    between atoms: C_2  and  C_24
REMARK    2  A    between atoms: N_3  and  C_4
REMARK    3  A    between atoms: C_4  and  C_5
REMARK    4  A    between atoms: C_5  and  C_6
REMARK    5  A    between atoms: N_14  and  C_15
REMARK    6  A    between atoms: C_15  and  C_16
REMARK    7  A    between atoms: C_17  and  C_18
REMARK                            x       y       z     vdW  Elec       q    Type
REMARK                         _______ _______ _______ _____ _____    ______ ____
ROOT
ATOM      1  C   UNL     1       2.912   6.580  18.356  0.00  0.00    +0.000 A 
ATOM      2  N   UNL     1       1.899   5.883  18.799  0.00  0.00    +0.000 NA
ATOM      3  C   UNL     1       2.346   4.605  18.986  0.00  0.00    +0.000 A 
ATOM      4  C   UNL     1       1.628   3.483  19.437  0.00  0.00    +0.000 A 
ATOM      5  C   UNL     1       2.258   2.249  19.563  0.00  0.00    +0.000 A 
ATOM      6  C   UNL     1       3.607   2.128  19.240  0.00  0.00    +0.000 A 
ATOM      7  C   UNL     1       4.346   3.236  18.781  0.00  0.00    +0.000 A 
ATOM      8  C   UNL     1       3.705   4.488  18.655  0.00  0.00    +0.000 A 
ATOM      9  N   UNL     1       4.065   5.786  18.278  0.00  0.00    +0.000 N 
ENDROOT
BRANCH   1  10
ATOM     10  C   UNL     1       2.810   8.023  17.925  0.00  0.00    +0.000 C 
BRANCH  10  11
ATOM     11  C   UNL     1       1.761   8.832  18.716  0.00  0.00    +0.000 C 
BRANCH  11  14
ATOM     12  O   UNL     1      -0.569  10.073  19.582  0.00  0.00    +0.000 OA
ATOM     13  C   UNL     1      -0.310  10.126  18.364  0.00  0.00    +0.000 C 
ATOM     14  N   UNL     1       0.838   9.566  17.852  0.00  0.00    +0.000 N 
ATOM     15  H   UNL     1       1.013   9.609  16.851  0.00  0.00    +0.000 HD
BRANCH  13  16
ATOM     16  C   UNL     1      -1.178  10.877  17.365  0.00  0.00    +0.000 C 
ATOM     17  C   UNL     1      -2.251   9.992  16.715  0.00  0.00    +0.000 C 
ATOM     18  C   UNL     1      -3.426   9.669  17.638  0.00  0.00    +0.000 C 
ATOM     19  C   UNL     1      -4.023  10.924  18.264  0.00  0.00    +0.000 C 
ATOM     20  C   UNL     1      -2.958  11.766  18.956  0.00  0.00    +0.000 C 
ATOM     21  C   UNL     1      -1.816  12.122  18.004  0.00  0.00    +0.000 C 
ENDBRANCH  13  16
ENDBRANCH  11  14
ENDBRANCH  10  11
ENDBRANCH   1  10
BRANCH   9  22
ATOM     22  C   UNL     1       5.368   6.271  17.791  0.00  0.00    +0.000 C 
BRANCH  22  23
ATOM     23  C   UNL     1       5.844   5.657  16.495  0.00  0.00    +0.000 C 
ATOM     24  C   UNL     1       5.150   5.100  15.487  0.00  0.00    +0.000 C 
BRANCH  24  25
ATOM     25  C   UNL     1       5.911   4.652  14.309  0.00  0.00    +0.000 A 
ATOM     26  C   UNL     1       7.156   5.215  13.987  0.00  0.00    +0.000 A 
ATOM     27  C   UNL     1       7.809   4.878  12.795  0.00  0.00    +0.000 A 
ATOM     28  C   UNL     1       7.234   3.953  11.927  0.00  0.00    +0.000 A 
ATOM     29  C   UNL     1       6.009   3.373  12.247  0.00  0.00    +0.000 A 
ATOM     30  C   UNL     1       5.339   3.733  13.421  0.00  0.00    +0.000 A 
ENDBRANCH  24  25
ENDBRANCH  22  23
ENDBRANCH   9  22
TORSDOF 7
ENDMDL
MODEL 5
REMARK VINA RESULT:      -8.4      5.122      7.972
REMARK  Name = 
REMARK  7 active torsions:
REMARK  status: ('A' for Active; 'I' for Inactive)
REMARK    1  A    between atoms: C_2  and  C_24
REMARK    2  A    between atoms: N_3  and  C_4
REMARK    3  A    between atoms: C_4  and  C_5
REMARK    4  A    between atoms: C_5  and  C_6
REMARK    5  A    between atoms: N_14  and  C_15
REMARK    6  A    between atoms: C_15  and  C_16
REMARK    7  A    between atoms: C_17  and  C_18
REMARK                            x       y       z     vdW  Elec       q    Type
REMARK                         _______ _______ _______ _____ _____    ______ ____
ROOT
ATOM      1  C   UNL     1       3.218   6.157  18.480  0.00  0.00    +0.000 A 
ATOM      2  N   UNL     1       2.018   5.769  18.822  0.00  0.00    +0.000 NA
ATOM      3  C   UNL     1       2.055   4.406  18.929  0.00  0.00    +0.000 A 
ATOM      4  C   UNL     1       1.011   3.525  19.258  0.00  0.00    +0.000 A 
ATOM      5  C   UNL     1       1.240   2.153  19.316  0.00  0.00    +0.000 A 
ATOM      6  C   UNL     1       2.512   1.656  19.046  0.00  0.00    +0.000 A 
ATOM      7  C   UNL     1       3.573   2.518  18.708  0.00  0.00    +0.000 A 
ATOM      8  C   UNL     1       3.339   3.910  18.651  0.00  0.00    +0.000 A 
ATOM      9  N   UNL     1       4.089   5.061  18.393  0.00  0.00    +0.000 N 
ENDROOT
BRANCH   1  10
ATOM     10  C   UNL     1       3.575   7.588  18.159  0.00  0.00    +0.000 C 
BRANCH  10  11
ATOM     11  C   UNL     1       2.420   8.384  17.517  0.00  0.00    +0.000 C 
BRANCH  11  14
ATOM     12  O   UNL     1       2.253  11.129  17.920  0.00  0.00    +0.000 OA
ATOM     13  C   UNL     1       1.558  10.398  18.654  0.00  0.00    +0.000 C 
ATOM     14  N   UNL     1       1.555   9.030  18.503  0.00  0.00    +0.000 N 
ATOM     15  H   UNL     1       0.992   8.459  19.129  0.00  0.00    +0.000 HD
BRANCH  13  16
ATOM     16  C   UNL     1       0.602  10.948  19.702  0.00  0.00    +0.000 C 
ATOM     17  C   UNL     1       0.321  12.448  19.533  0.00  0.00    +0.000 C 
ATOM     18  C   UNL     1      -0.617  12.772  18.369  0.00  0.00    +0.000 C 
ATOM     19  C   UNL     1      -1.901  11.952  18.426  0.00  0.00    +0.000 C 
ATOM     20  C   UNL     1      -1.609  10.461  18.535  0.00  0.00    +0.000 C 
ATOM     21  C   UNL     1      -0.712  10.150  19.733  0.00  0.00    +0.000 C 
ENDBRANCH  13  16
ENDBRANCH  11  14
ENDBRANCH  10  11
ENDBRANCH   1  10
BRANCH   9  22
ATOM     22  C   UNL     1       5.506   5.164  18.005  0.00  0.00    +0.000 C 
BRANCH  22  23
ATOM     23  C   UNL     1       5.804   4.856  16.556  0.00  0.00    +0.000 C 
ATOM     24  C   UNL     1       6.713   5.389  15.720  0.00  0.00    +0.000 C 
BRANCH  24  25
ATOM     25  C   UNL     1       6.808   4.813  14.369  0.00  0.00    +0.000 A 
ATOM     26  C   UNL     1       7.729   5.304  13.429  0.00  0.00    +0.000 A 
ATOM     27  C   UNL     1       7.721   4.842  12.108  0.00  0.00    +0.000 A 
ATOM     28  C   UNL     1       6.808   3.862  11.721  0.00  0.00    +0.000 A 
ATOM     29  C   UNL     1       5.905   3.354  12.650  0.00  0.00    +0.000 A 
ATOM     30  C   UNL     1       5.888   3.839  13.962  0.00  0.00    +0.000 A 
ENDBRANCH  24  25
ENDBRANCH  22  23
ENDBRANCH   9  22
TORSDOF 7
ENDMDL
MODEL 6
REMARK VINA RESULT:      -8.4      6.896     10.403
REMARK  Name = 
REMARK  7 active torsions:
REMARK  status: ('A' for Active; 'I' for Inactive)
REMARK    1  A    between atoms: C_2  and  C_24
REMARK    2  A    between atoms: N_3  and  C_4
REMARK    3  A    between atoms: C_4  and  C_5
REMARK    4  A    between atoms: C_5  and  C_6
REMARK    5  A    between atoms: N_14  and  C_15
REMARK    6  A    between atoms: C_15  and  C_16
REMARK    7  A    between atoms: C_17  and  C_18
REMARK                            x       y       z     vdW  Elec       q    Type
REMARK                         _______ _______ _______ _____ _____    ______ ____
ROOT
ATOM      1  C   UNL     1       1.354   8.919  19.150  0.00  0.00    +0.000 A 
ATOM      2  N   UNL     1       1.809   8.521  20.308  0.00  0.00    +0.000 NA
ATOM      3  C   UNL     1       1.010   9.082  21.264  0.00  0.00    +0.000 A 
ATOM      4  C   UNL     1       1.104   8.964  22.663  0.00  0.00    +0.000 A 
ATOM      5  C   UNL     1       0.192   9.619  23.486  0.00  0.00    +0.000 A 
ATOM      6  C   UNL     1      -0.816  10.392  22.918  0.00  0.00    +0.000 A 
ATOM      7  C   UNL     1      -0.927  10.530  21.520  0.00  0.00    +0.000 A 
ATOM      8  C   UNL     1      -0.002   9.865  20.687  0.00  0.00    +0.000 A 
ATOM      9  N   UNL     1       0.215   9.722  19.313  0.00  0.00    +0.000 N 
ENDROOT
BRANCH   1  10
ATOM     10  C   UNL     1       2.022   8.603  17.834  0.00  0.00    +0.000 C 
BRANCH  10  11
ATOM     11  C   UNL     1       2.843   7.297  17.855  0.00  0.00    +0.000 C 
BRANCH  11  14
ATOM     12  O   UNL     1       3.489   4.638  17.374  0.00  0.00    +0.000 OA
ATOM     13  C   UNL     1       2.459   4.866  18.039  0.00  0.00    +0.000 C 
ATOM     14  N   UNL     1       2.081   6.153  18.351  0.00  0.00    +0.000 N 
ATOM     15  H   UNL     1       1.226   6.308  18.880  0.00  0.00    +0.000 HD
BRANCH  13  16
ATOM     16  C   UNL     1       1.593   3.764  18.629  0.00  0.00    +0.000 C 
ATOM     17  C   UNL     1       2.320   2.414  18.728  0.00  0.00    +0.000 C 
ATOM     18  C   UNL     1       3.345   2.348  19.861  0.00  0.00    +0.000 C 
ATOM     19  C   UNL     1       2.747   2.774  21.197  0.00  0.00    +0.000 C 
ATOM     20  C   UNL     1       2.079   4.140  21.101  0.00  0.00    +0.000 C 
ATOM     21  C   UNL     1       1.022   4.173  19.997  0.00  0.00    +0.000 C 
ENDBRANCH  13  16
ENDBRANCH  11  14
ENDBRANCH  10  11
ENDBRANCH   1  10
BRANCH   9  22
ATOM     22  C   UNL     1      -0.518  10.349  18.199  0.00  0.00    +0.000 C 
BRANCH  22  23
ATOM     23  C   UNL     1      -1.958  10.700  18.488  0.00  0.00    +0.000 C 
ATOM     24  C   UNL     1      -2.711  11.725  18.050  0.00  0.00    +0.000 C 
BRANCH  24  25
ATOM     25  C   UNL     1      -4.124  11.750  18.460  0.00  0.00    +0.000 A 
ATOM     26  C   UNL     1      -4.529  12.380  19.648  0.00  0.00    +0.000 A 
ATOM     27  C   UNL     1      -5.851  12.284  20.096  0.00  0.00    +0.000 A 
ATOM     28  C   UNL     1      -6.789  11.579  19.345  0.00  0.00    +0.000 A 
ATOM     29  C   UNL     1      -6.403  10.968  18.155  0.00  0.00    +0.000 A 
ATOM     30  C   UNL     1      -5.074  11.034  17.722  0.00  0.00    +0.000 A 
ENDBRANCH  24  25
ENDBRANCH  22  23
ENDBRANCH   9  22
TORSDOF 7
ENDMDL
MODEL 7
REMARK VINA RESULT:      -8.4      5.202      8.035
REMARK  Name = 
REMARK  7 active torsions:
REMARK  status: ('A' for Active; 'I' for Inactive)
REMARK    1  A    between atoms: C_2  and  C_24
REMARK    2  A    between atoms: N_3  and  C_4
REMARK    3  A    between atoms: C_4  and  C_5
REMARK    4  A    between atoms: C_5  and  C_6
REMARK    5  A    between atoms: N_14  and  C_15
REMARK    6  A    between atoms: C_15  and  C_16
REMARK    7  A    between atoms: C_17  and  C_18
REMARK                            x       y       z     vdW  Elec       q    Type
REMARK                         _______ _______ _______ _____ _____    ______ ____
ROOT
ATOM      1  C   UNL     1       3.035   6.489  18.250  0.00  0.00    +0.000 A 
ATOM      2  N   UNL     1       1.938   5.871  18.599  0.00  0.00    +0.000 NA
ATOM      3  C   UNL     1       2.266   4.559  18.797  0.00  0.00    +0.000 A 
ATOM      4  C   UNL     1       1.427   3.493  19.169  0.00  0.00    +0.000 A 
ATOM      5  C   UNL     1       1.946   2.210  19.320  0.00  0.00    +0.000 A 
ATOM      6  C   UNL     1       3.302   1.985  19.102  0.00  0.00    +0.000 A 
ATOM      7  C   UNL     1       4.161   3.036  18.723  0.00  0.00    +0.000 A 
ATOM      8  C   UNL     1       3.634   4.337  18.571  0.00  0.00    +0.000 A 
ATOM      9  N   UNL     1       4.125   5.606  18.249  0.00  0.00    +0.000 N 
ENDROOT
BRANCH   1  10
ATOM     10  C   UNL     1       3.084   7.941  17.841  0.00  0.00    +0.000 C 
BRANCH  10  11
ATOM     11  C   UNL     1       1.695   8.606  17.755  0.00  0.00    +0.000 C 
BRANCH  11  14
ATOM     12  O   UNL     1      -0.578  10.193  17.950  0.00  0.00    +0.000 OA
ATOM     13  C   UNL     1       0.467  10.620  18.480  0.00  0.00    +0.000 C 
ATOM     14  N   UNL     1       1.631   9.886  18.458  0.00  0.00    +0.000 N 
ATOM     15  H   UNL     1       2.472  10.269  18.883  0.00  0.00    +0.000 HD
BRANCH  13  16
ATOM     16  C   UNL     1       0.526  11.926  19.259  0.00  0.00    +0.000 C 
ATOM     17  C   UNL     1      -0.814  12.677  19.279  0.00  0.00    +0.000 C 
ATOM     18  C   UNL     1      -1.855  12.057  20.211  0.00  0.00    +0.000 C 
ATOM     19  C   UNL     1      -1.304  11.834  21.615  0.00  0.00    +0.000 C 
ATOM     20  C   UNL     1      -0.005  11.038  21.587  0.00  0.00    +0.000 C 
ATOM     21  C   UNL     1       1.041  11.700  20.690  0.00  0.00    +0.000 C 
ENDBRANCH  13  16
ENDBRANCH  11  14
ENDBRANCH  10  11
ENDBRANCH   1  10
BRANCH   9  22
ATOM     22  C   UNL     1       5.497   5.990  17.875  0.00  0.00    +0.000 C 
BRANCH  22  23
ATOM     23  C   UNL     1       5.968   5.482  16.532  0.00  0.00    +0.000 C 
ATOM     24  C   UNL     1       5.317   4.781  15.587  0.00  0.00    +0.000 C 
BRANCH  24  25
ATOM     25  C   UNL     1       6.041   4.496  14.338  0.00  0.00    +0.000 A 
ATOM     26  C   UNL     1       7.211   5.194  13.996  0.00  0.00    +0.000 A 
ATOM     27  C   UNL     1       7.817   5.011  12.748  0.00  0.00    +0.000 A 
ATOM     28  C   UNL     1       7.273   4.107  11.838  0.00  0.00    +0.000 A 
ATOM     29  C   UNL     1       6.125   3.394  12.175  0.00  0.00    +0.000 A 
ATOM     30  C   UNL     1       5.498   3.601  13.409  0.00  0.00    +0.000 A 
ENDBRANCH  24  25
ENDBRANCH  22  23
ENDBRANCH   9  22
TORSDOF 7
ENDMDL
MODEL 8
REMARK VINA RESULT:      -8.3      1.188      1.364
REMARK  Name = 
REMARK  7 active torsions:
REMARK  status: ('A' for Active; 'I' for Inactive)
REMARK    1  A    between atoms: C_2  and  C_24
REMARK    2  A    between atoms: N_3  and  C_4
REMARK    3  A    between atoms: C_4  and  C_5
REMARK    4  A    between atoms: C_5  and  C_6
REMARK    5  A    between atoms: N_14  and  C_15
REMARK    6  A    between atoms: C_15  and  C_16
REMARK    7  A    between atoms: C_17  and  C_18
REMARK                            x       y       z     vdW  Elec       q    Type
REMARK                         _______ _______ _______ _____ _____    ______ ____
ROOT
ATOM      1  C   UNL     1       6.844   7.024  17.033  0.00  0.00    +0.000 A 
ATOM      2  N   UNL     1       7.716   6.417  16.273  0.00  0.00    +0.000 NA
ATOM      3  C   UNL     1       7.012   5.601  15.432  0.00  0.00    +0.000 A 
ATOM      4  C   UNL     1       7.503   4.733  14.440  0.00  0.00    +0.000 A 
ATOM      5  C   UNL     1       6.624   3.970  13.676  0.00  0.00    +0.000 A 
ATOM      6  C   UNL     1       5.254   4.069  13.899  0.00  0.00    +0.000 A 
ATOM      7  C   UNL     1       4.738   4.927  14.891  0.00  0.00    +0.000 A 
ATOM      8  C   UNL     1       5.631   5.701  15.663  0.00  0.00    +0.000 A 
ATOM      9  N   UNL     1       5.537   6.653  16.684  0.00  0.00    +0.000 N 
ENDROOT
BRANCH   1  10
ATOM     10  C   UNL     1       7.220   7.940  18.171  0.00  0.00    +0.000 C 
BRANCH  10  11
ATOM     11  C   UNL     1       8.230   9.037  17.774  0.00  0.00    +0.000 C 
BRANCH  11  14
ATOM     12  O   UNL     1       9.586  11.462  17.816  0.00  0.00    +0.000 OA
ATOM     13  C   UNL     1       9.665  10.743  18.832  0.00  0.00    +0.000 C 
ATOM     14  N   UNL     1       9.000   9.540  18.910  0.00  0.00    +0.000 N 
ATOM     15  H   UNL     1       9.098   8.968  19.745  0.00  0.00    +0.000 HD
BRANCH  13  16
ATOM     16  C   UNL     1      10.416  11.163  20.087  0.00  0.00    +0.000 C 
ATOM     17  C   UNL     1      11.586  12.116  19.798  0.00  0.00    +0.000 C 
ATOM     18  C   UNL     1      11.151  13.543  19.466  0.00  0.00    +0.000 C 
ATOM     19  C   UNL     1      10.198  14.108  20.513  0.00  0.00    +0.000 C 
ATOM     20  C   UNL     1       9.012  13.182  20.749  0.00  0.00    +0.000 C 
ATOM     21  C   UNL     1       9.465  11.773  21.130  0.00  0.00    +0.000 C 
ENDBRANCH  13  16
ENDBRANCH  11  14
ENDBRANCH  10  11
ENDBRANCH   1  10
BRANCH   9  22
ATOM     22  C   UNL     1       4.330   7.144  17.370  0.00  0.00    +0.000 C 
BRANCH  22  23
ATOM     23  C   UNL     1       3.607   6.125  18.219  0.00  0.00    +0.000 C 
ATOM     24  C   UNL     1       2.352   5.649  18.132  0.00  0.00    +0.000 C 
BRANCH  24  25
ATOM     25  C   UNL     1       1.964   4.590  19.077  0.00  0.00    +0.000 A 
ATOM     26  C   UNL     1       2.092   4.767  20.465  0.00  0.00    +0.000 A 
ATOM     27  C   UNL     1       1.845   3.710  21.348  0.00  0.00    +0.000 A 
ATOM     28  C   UNL     1       1.442   2.471  20.853  0.00  0.00    +0.000 A 
ATOM     29  C   UNL     1       1.292   2.291  19.480  0.00  0.00    +0.000 A 
ATOM     30  C   UNL     1       1.570   3.337  18.593  0.00  0.00    +0.000 A 
ENDBRANCH  24  25
ENDBRANCH  22  23
ENDBRANCH   9  22
TORSDOF 7
ENDMDL
MODEL 9
REMARK VINA RESULT:      -8.3      6.790     10.364
REMARK  Name = 
REMARK  7 active torsions:
REMARK  status: ('A' for Active; 'I' for Inactive)
REMARK    1  A    between atoms: C_2  and  C_24
REMARK    2  A    between atoms: N_3  and  C_4
REMARK    3  A    between atoms: C_4  and  C_5
REMARK    4  A    between atoms: C_5  and  C_6
REMARK    5  A    between atoms: N_14  and  C_15
REMARK    6  A    between atoms: C_15  and  C_16
REMARK    7  A    between atoms: C_17  and  C_18
REMARK                            x       y       z     vdW  Elec       q    Type
REMARK                         _______ _______ _______ _____ _____    ______ ____
ROOT
ATOM      1  C   UNL     1       1.399   8.764  19.163  0.00  0.00    +0.000 A 
ATOM      2  N   UNL     1       1.675   8.219  20.318  0.00  0.00    +0.000 NA
ATOM      3  C   UNL     1       0.950   8.894  21.260  0.00  0.00    +0.000 A 
ATOM      4  C   UNL     1       0.917   8.690  22.652  0.00  0.00    +0.000 A 
ATOM      5  C   UNL     1       0.111   9.487  23.460  0.00  0.00    +0.000 A 
ATOM      6  C   UNL     1      -0.665  10.489  22.884  0.00  0.00    +0.000 A 
ATOM      7  C   UNL     1      -0.645  10.716  21.494  0.00  0.00    +0.000 A 
ATOM      8  C   UNL     1       0.172   9.906  20.675  0.00  0.00    +0.000 A 
ATOM      9  N   UNL     1       0.451   9.787  19.310  0.00  0.00    +0.000 N 
ENDROOT
BRANCH   1  10
ATOM     10  C   UNL     1       2.074   8.374  17.871  0.00  0.00    +0.000 C 
BRANCH  10  11
ATOM     11  C   UNL     1       3.181   7.315  18.048  0.00  0.00    +0.000 C 
BRANCH  11  14
ATOM     12  O   UNL     1       4.494   5.153  19.201  0.00  0.00    +0.000 OA
ATOM     13  C   UNL     1       3.396   4.932  18.654  0.00  0.00    +0.000 C 
ATOM     14  N   UNL     1       2.662   5.949  18.085  0.00  0.00    +0.000 N 
ATOM     15  H   UNL     1       1.779   5.734  17.629  0.00  0.00    +0.000 HD
BRANCH  13  16
ATOM     16  C   UNL     1       2.738   3.560  18.643  0.00  0.00    +0.000 C 
ATOM     17  C   UNL     1       3.336   2.597  19.680  0.00  0.00    +0.000 C 
ATOM     18  C   UNL     1       2.909   2.897  21.117  0.00  0.00    +0.000 C 
ATOM     19  C   UNL     1       1.395   3.012  21.251  0.00  0.00    +0.000 C 
ATOM     20  C   UNL     1       0.820   4.013  20.257  0.00  0.00    +0.000 C 
ATOM     21  C   UNL     1       1.215   3.669  18.820  0.00  0.00    +0.000 C 
ENDBRANCH  13  16
ENDBRANCH  11  14
ENDBRANCH  10  11
ENDBRANCH   1  10
BRANCH   9  22
ATOM     22  C   UNL     1      -0.050  10.612  18.197  0.00  0.00    +0.000 C 
BRANCH  22  23
ATOM     23  C   UNL     1      -1.541  10.859  18.194  0.00  0.00    +0.000 C 
ATOM     24  C   UNL     1      -2.272  11.792  18.829  0.00  0.00    +0.000 C 
BRANCH  24  25
ATOM     25  C   UNL     1      -3.718  11.817  18.559  0.00  0.00    +0.000 A 
ATOM     26  C   UNL     1      -4.236  11.420  17.315  0.00  0.00    +0.000 A 
ATOM     27  C   UNL     1      -5.596  11.572  17.022  0.00  0.00    +0.000 A 
ATOM     28  C   UNL     1      -6.458  12.098  17.983  0.00  0.00    +0.000 A 
ATOM     29  C   UNL     1      -5.959  12.475  19.227  0.00  0.00    +0.000 A 
ATOM     30  C   UNL     1      -4.594  12.355  19.509  0.00  0.00    +0.000 A 
ENDBRANCH  24  25
ENDBRANCH  22  23
ENDBRANCH   9  22
TORSDOF 7
ENDMDL
