MODEL 1
REMARK VINA RESULT:      -7.5      0.000      0.000
REMARK  Name = 
REMARK  6 active torsions:
REMARK  status: ('A' for Active; 'I' for Inactive)
REMARK    1  A    between atoms: C_1  and  O_2
REMARK    2  A    between atoms: O_2  and  C_3
REMARK    3  A    between atoms: C_8  and  O_9
REMARK    4  A    between atoms: O_9  and  C_10
REMARK    5  A    between atoms: N_17  and  C_18
REMARK    6  A    between atoms: C_22  and  C_23
REMARK                            x       y       z     vdW  Elec       q    Type
REMARK                         _______ _______ _______ _____ _____    ______ ____
ROOT
ATOM      1  C   UNL     1       7.400   5.039  14.046  0.00  0.00    +0.000 A 
ATOM      2  C   UNL     1       7.279   5.644  15.308  0.00  0.00    +0.000 A 
ATOM      3  C   UNL     1       6.407   5.132  16.270  0.00  0.00    +0.000 A 
ATOM      4  C   UNL     1       5.549   4.100  15.915  0.00  0.00    +0.000 A 
ATOM      5  C   UNL     1       5.616   3.523  14.650  0.00  0.00    +0.000 A 
ATOM      6  C   UNL     1       6.546   3.977  13.704  0.00  0.00    +0.000 A 
ATOM      7  O   UNL     1       4.686   3.560  16.832  0.00  0.00    +0.000 OA
ATOM      8  C   UNL     1       3.696   4.388  17.321  0.00  0.00    +0.000 A 
ATOM      9  N   UNL     1       2.501   3.764  17.343  0.00  0.00    +0.000 NA
ATOM     10  C   UNL     1       1.483   4.462  17.849  0.00  0.00    +0.000 A 
ATOM     11  N   UNL     1       1.547   5.702  18.324  0.00  0.00    +0.000 NA
ATOM     12  C   UNL     1       2.753   6.300  18.300  0.00  0.00    +0.000 A 
ATOM     13  N   UNL     1       2.879   7.642  18.777  0.00  0.00    +0.000 N 
ATOM     14  C   UNL     1       3.923   5.668  17.844  0.00  0.00    +0.000 A 
ATOM     15  N   UNL     1       5.134   6.393  17.870  0.00  0.00    +0.000 N 
ATOM     16  C   UNL     1       6.366   5.662  17.669  0.00  0.00    +0.000 C 
ATOM     17  H   UNL     1       3.285   8.199  18.030  0.00  0.00    +0.000 HD
ATOM     18  H   UNL     1       5.149   6.970  18.713  0.00  0.00    +0.000 HD
ENDROOT
BRANCH  13  19
ATOM     19  C   UNL     1       1.852   8.304  19.484  0.00  0.00    +0.000 A 
ATOM     20  C   UNL     1       1.543   7.909  20.792  0.00  0.00    +0.000 A 
ATOM     21  C   UNL     1       0.469   8.468  21.476  0.00  0.00    +0.000 A 
ATOM     22  C   UNL     1      -0.314   9.437  20.858  0.00  0.00    +0.000 A 
ATOM     23  C   UNL     1      -0.013   9.869  19.559  0.00  0.00    +0.000 A 
ATOM     24  C   UNL     1      -0.879  10.888  18.880  0.00  0.00    +0.000 C 
ATOM     25  C   UNL     1       1.090   9.315  18.886  0.00  0.00    +0.000 A 
ENDBRANCH  13  19
BRANCH   1  27
ATOM     26  C   UNL     1       7.824   5.932  11.891  0.00  0.00    +0.000 C 
ATOM     27  O   UNL     1       8.333   5.485  13.148  0.00  0.00    +0.000 OA
ENDBRANCH   1  27
BRANCH   6  28
ATOM     28  O   UNL     1       6.485   3.258  12.542  0.00  0.00    +0.000 OA
ATOM     29  C   UNL     1       5.245   3.131  11.867  0.00  0.00    +0.000 C 
ENDBRANCH   6  28
TORSDOF 3
ENDMDL
MODEL 2
REMARK VINA RESULT:      -7.4      5.071     10.022
REMARK  Name = 
REMARK  6 active torsions:
REMARK  status: ('A' for Active; 'I' for Inactive)
REMARK    1  A    between atoms: C_1  and  O_2
REMARK    2  A    between atoms: O_2  and  C_3
REMARK    3  A    between atoms: C_8  and  O_9
REMARK    4  A    between atoms: O_9  and  C_10
REMARK    5  A    between atoms: N_17  and  C_18
REMARK    6  A    between atoms: C_22  and  C_23
REMARK                            x       y       z     vdW  Elec       q    Type
REMARK                         _______ _______ _______ _____ _____    ______ ____
ROOT
ATOM      1  C   UNL     1      -2.328  11.715  22.710  0.00  0.00    +0.000 A 
ATOM      2  C   UNL     1      -1.244  10.891  23.056  0.00  0.00    +0.000 A 
ATOM      3  C   UNL     1      -0.132  10.777  22.220  0.00  0.00    +0.000 A 
ATOM      4  C   UNL     1      -0.171  11.374  20.967  0.00  0.00    +0.000 A 
ATOM      5  C   UNL     1      -1.262  12.150  20.584  0.00  0.00    +0.000 A 
ATOM      6  C   UNL     1      -2.347  12.338  21.450  0.00  0.00    +0.000 A 
ATOM      7  O   UNL     1       0.902  11.296  20.121  0.00  0.00    +0.000 OA
ATOM      8  C   UNL     1       1.240  10.042  19.654  0.00  0.00    +0.000 A 
ATOM      9  N   UNL     1       1.490  10.061  18.329  0.00  0.00    +0.000 NA
ATOM     10  C   UNL     1       1.876   8.906  17.786  0.00  0.00    +0.000 A 
ATOM     11  N   UNL     1       2.033   7.754  18.433  0.00  0.00    +0.000 NA
ATOM     12  C   UNL     1       1.788   7.763  19.756  0.00  0.00    +0.000 A 
ATOM     13  N   UNL     1       1.918   6.549  20.500  0.00  0.00    +0.000 N 
ATOM     14  C   UNL     1       1.423   8.917  20.470  0.00  0.00    +0.000 A 
ATOM     15  N   UNL     1       1.195   8.806  21.859  0.00  0.00    +0.000 N 
ATOM     16  C   UNL     1       1.097  10.028  22.629  0.00  0.00    +0.000 C 
ATOM     17  H   UNL     1       1.033   6.379  20.972  0.00  0.00    +0.000 HD
ATOM     18  H   UNL     1       1.870   8.147  22.248  0.00  0.00    +0.000 HD
ENDROOT
BRANCH  13  19
ATOM     19  C   UNL     1       2.508   5.382  19.967  0.00  0.00    +0.000 A 
ATOM     20  C   UNL     1       3.875   5.376  19.657  0.00  0.00    +0.000 A 
ATOM     21  C   UNL     1       4.464   4.281  19.033  0.00  0.00    +0.000 A 
ATOM     22  C   UNL     1       3.690   3.171  18.713  0.00  0.00    +0.000 A 
ATOM     23  C   UNL     1       2.327   3.140  19.033  0.00  0.00    +0.000 A 
ATOM     24  C   UNL     1       1.486   1.957  18.655  0.00  0.00    +0.000 C 
ATOM     25  C   UNL     1       1.747   4.242  19.686  0.00  0.00    +0.000 A 
ENDBRANCH  13  19
BRANCH   1  27
ATOM     26  C   UNL     1      -3.442  13.193  24.191  0.00  0.00    +0.000 C 
ATOM     27  O   UNL     1      -3.365  11.903  23.584  0.00  0.00    +0.000 OA
ENDBRANCH   1  27
BRANCH   6  28
ATOM     28  O   UNL     1      -3.295  13.164  20.910  0.00  0.00    +0.000 OA
ATOM     29  C   UNL     1      -4.247  12.631  20.003  0.00  0.00    +0.000 C 
ENDBRANCH   6  28
TORSDOF 3
ENDMDL
MODEL 3
REMARK VINA RESULT:      -7.4      2.509      4.429
REMARK  Name = 
REMARK  6 active torsions:
REMARK  status: ('A' for Active; 'I' for Inactive)
REMARK    1  A    between atoms: C_1  and  O_2
REMARK    2  A    between atoms: O_2  and  C_3
REMARK    3  A    between atoms: C_8  and  O_9
REMARK    4  A    between atoms: O_9  and  C_10
REMARK    5  A    between atoms: N_17  and  C_18
REMARK    6  A    between atoms: C_22  and  C_23
REMARK                            x       y       z     vdW  Elec       q    Type
REMARK                         _______ _______ _______ _____ _____    ______ ____
ROOT
ATOM      1  C   UNL     1       6.141   5.309  18.579  0.00  0.00    +0.000 A 
ATOM      2  C   UNL     1       5.051   5.342  19.463  0.00  0.00    +0.000 A 
ATOM      3  C   UNL     1       3.812   5.843  19.059  0.00  0.00    +0.000 A 
ATOM      4  C   UNL     1       3.707   6.446  17.813  0.00  0.00    +0.000 A 
ATOM      5  C   UNL     1       4.793   6.472  16.943  0.00  0.00    +0.000 A 
ATOM      6  C   UNL     1       6.018   5.898  17.308  0.00  0.00    +0.000 A 
ATOM      7  O   UNL     1       2.508   6.940  17.373  0.00  0.00    +0.000 OA
ATOM      8  C   UNL     1       1.974   8.001  18.074  0.00  0.00    +0.000 A 
ATOM      9  N   UNL     1       1.516   8.959  17.243  0.00  0.00    +0.000 NA
ATOM     10  C   UNL     1       0.932  10.009  17.821  0.00  0.00    +0.000 A 
ATOM     11  N   UNL     1       0.767  10.188  19.129  0.00  0.00    +0.000 NA
ATOM     12  C   UNL     1       1.223   9.214  19.937  0.00  0.00    +0.000 A 
ATOM     13  N   UNL     1       1.095   9.362  21.354  0.00  0.00    +0.000 N 
ATOM     14  C   UNL     1       1.814   8.029  19.466  0.00  0.00    +0.000 A 
ATOM     15  N   UNL     1       2.252   7.074  20.410  0.00  0.00    +0.000 N 
ATOM     16  C   UNL     1       2.597   5.754  19.927  0.00  0.00    +0.000 C 
ATOM     17  H   UNL     1       2.022   9.271  21.760  0.00  0.00    +0.000 HD
ATOM     18  H   UNL     1       1.586   7.051  21.183  0.00  0.00    +0.000 HD
ENDROOT
BRANCH  13  19
ATOM     19  C   UNL     1       0.311  10.372  21.951  0.00  0.00    +0.000 A 
ATOM     20  C   UNL     1      -0.678  10.025  22.882  0.00  0.00    +0.000 A 
ATOM     21  C   UNL     1      -1.537  10.984  23.408  0.00  0.00    +0.000 A 
ATOM     22  C   UNL     1      -1.416  12.311  23.010  0.00  0.00    +0.000 A 
ATOM     23  C   UNL     1      -0.421  12.691  22.100  0.00  0.00    +0.000 A 
ATOM     24  C   UNL     1      -0.314  14.116  21.644  0.00  0.00    +0.000 C 
ATOM     25  C   UNL     1       0.458  11.717  21.593  0.00  0.00    +0.000 A 
ENDBRANCH  13  19
BRANCH   1  27
ATOM     26  C   UNL     1       8.203   5.530  19.727  0.00  0.00    +0.000 C 
ATOM     27  O   UNL     1       7.321   4.720  18.950  0.00  0.00    +0.000 OA
ENDBRANCH   1  27
BRANCH   6  28
ATOM     28  O   UNL     1       6.944   5.987  16.305  0.00  0.00    +0.000 OA
ATOM     29  C   UNL     1       7.100   4.903  15.404  0.00  0.00    +0.000 C 
ENDBRANCH   6  28
TORSDOF 3
ENDMDL
MODEL 4
REMARK VINA RESULT:      -7.4      0.438      1.290
REMARK  Name = 
REMARK  6 active torsions:
REMARK  status: ('A' for Active; 'I' for Inactive)
REMARK    1  A    between atoms: C_1  and  O_2
REMARK    2  A    between atoms: O_2  and  C_3
REMARK    3  A    between atoms: C_8  and  O_9
REMARK    4  A    between atoms: O_9  and  C_10
REMARK    5  A    between atoms: N_17  and  C_18
REMARK    6  A    between atoms: C_22  and  C_23
REMARK                            x       y       z     vdW  Elec       q    Type
REMARK                         _______ _______ _______ _____ _____    ______ ____
ROOT
ATOM      1  C   UNL     1       7.425   5.089  14.066  0.00  0.00    +0.000 A 
ATOM      2  C   UNL     1       7.261   5.784  15.276  0.00  0.00    +0.000 A 
ATOM      3  C   UNL     1       6.391   5.315  16.262  0.00  0.00    +0.000 A 
ATOM      4  C   UNL     1       5.575   4.229  15.975  0.00  0.00    +0.000 A 
ATOM      5  C   UNL     1       5.685   3.561  14.759  0.00  0.00    +0.000 A 
ATOM      6  C   UNL     1       6.614   3.974  13.794  0.00  0.00    +0.000 A 
ATOM      7  O   UNL     1       4.717   3.730  16.917  0.00  0.00    +0.000 OA
ATOM      8  C   UNL     1       3.690   4.556  17.327  0.00  0.00    +0.000 A 
ATOM      9  N   UNL     1       2.517   3.894  17.379  0.00  0.00    +0.000 NA
ATOM     10  C   UNL     1       1.467   4.591  17.815  0.00  0.00    +0.000 A 
ATOM     11  N   UNL     1       1.480   5.866  18.194  0.00  0.00    +0.000 NA
ATOM     12  C   UNL     1       2.665   6.502  18.143  0.00  0.00    +0.000 A 
ATOM     13  N   UNL     1       2.736   7.881  18.517  0.00  0.00    +0.000 N 
ATOM     14  C   UNL     1       3.863   5.880  17.754  0.00  0.00    +0.000 A 
ATOM     15  N   UNL     1       5.047   6.648  17.742  0.00  0.00    +0.000 N 
ATOM     16  C   UNL     1       6.308   5.948  17.615  0.00  0.00    +0.000 C 
ATOM     17  H   UNL     1       3.135   8.394  17.735  0.00  0.00    +0.000 HD
ATOM     18  H   UNL     1       5.028   7.288  18.537  0.00  0.00    +0.000 HD
ENDROOT
BRANCH  13  19
ATOM     19  C   UNL     1       1.674   8.558  19.155  0.00  0.00    +0.000 A 
ATOM     20  C   UNL     1       0.858   9.423  18.415  0.00  0.00    +0.000 A 
ATOM     21  C   UNL     1      -0.128  10.186  19.033  0.00  0.00    +0.000 A 
ATOM     22  C   UNL     1      -0.313  10.089  20.409  0.00  0.00    +0.000 A 
ATOM     23  C   UNL     1       0.472   9.213  21.170  0.00  0.00    +0.000 A 
ATOM     24  C   UNL     1       0.295   9.136  22.657  0.00  0.00    +0.000 C 
ATOM     25  C   UNL     1       1.449   8.430  20.531  0.00  0.00    +0.000 A 
ENDBRANCH  13  19
BRANCH   1  27
ATOM     26  C   UNL     1       7.841   5.999  11.917  0.00  0.00    +0.000 C 
ATOM     27  O   UNL     1       8.358   5.499  13.150  0.00  0.00    +0.000 OA
ENDBRANCH   1  27
BRANCH   6  28
ATOM     28  O   UNL     1       6.599   3.167  12.690  0.00  0.00    +0.000 OA
ATOM     29  C   UNL     1       5.424   3.093  11.899  0.00  0.00    +0.000 C 
ENDBRANCH   6  28
TORSDOF 3
ENDMDL
MODEL 5
REMARK VINA RESULT:      -7.3      5.000      9.811
REMARK  Name = 
REMARK  6 active torsions:
REMARK  status: ('A' for Active; 'I' for Inactive)
REMARK    1  A    between atoms: C_1  and  O_2
REMARK    2  A    between atoms: O_2  and  C_3
REMARK    3  A    between atoms: C_8  and  O_9
REMARK    4  A    between atoms: O_9  and  C_10
REMARK    5  A    between atoms: N_17  and  C_18
REMARK    6  A    between atoms: C_22  and  C_23
REMARK                            x       y       z     vdW  Elec       q    Type
REMARK                         _______ _______ _______ _____ _____    ______ ____
ROOT
ATOM      1  C   UNL     1      -0.277  14.887  19.366  0.00  0.00    +0.000 A 
ATOM      2  C   UNL     1      -0.394  13.770  18.523  0.00  0.00    +0.000 A 
ATOM      3  C   UNL     1      -0.627  12.497  19.045  0.00  0.00    +0.000 A 
ATOM      4  C   UNL     1      -0.598  12.321  20.422  0.00  0.00    +0.000 A 
ATOM      5  C   UNL     1      -0.428  13.409  21.274  0.00  0.00    +0.000 A 
ATOM      6  C   UNL     1      -0.276  14.704  20.760  0.00  0.00    +0.000 A 
ATOM      7  O   UNL     1      -0.833  11.091  20.976  0.00  0.00    +0.000 OA
ATOM      8  C   UNL     1       0.082  10.096  20.700  0.00  0.00    +0.000 A 
ATOM      9  N   UNL     1       0.408   9.406  21.812  0.00  0.00    +0.000 NA
ATOM     10  C   UNL     1       1.250   8.385  21.645  0.00  0.00    +0.000 A 
ATOM     11  N   UNL     1       1.788   7.998  20.492  0.00  0.00    +0.000 NA
ATOM     12  C   UNL     1       1.439   8.696  19.395  0.00  0.00    +0.000 A 
ATOM     13  N   UNL     1       2.004   8.340  18.130  0.00  0.00    +0.000 N 
ATOM     14  C   UNL     1       0.524   9.762  19.413  0.00  0.00    +0.000 A 
ATOM     15  N   UNL     1       0.232  10.419  18.198  0.00  0.00    +0.000 N 
ATOM     16  C   UNL     1      -0.903  11.316  18.168  0.00  0.00    +0.000 C 
ATOM     17  H   UNL     1       2.454   9.168  17.749  0.00  0.00    +0.000 HD
ATOM     18  H   UNL     1       0.206   9.723  17.450  0.00  0.00    +0.000 HD
ENDROOT
BRANCH  13  19
ATOM     19  C   UNL     1       2.737   7.151  17.925  0.00  0.00    +0.000 A 
ATOM     20  C   UNL     1       4.079   7.223  17.530  0.00  0.00    +0.000 A 
ATOM     21  C   UNL     1       4.798   6.074  17.216  0.00  0.00    +0.000 A 
ATOM     22  C   UNL     1       4.180   4.831  17.297  0.00  0.00    +0.000 A 
ATOM     23  C   UNL     1       2.846   4.727  17.714  0.00  0.00    +0.000 A 
ATOM     24  C   UNL     1       2.171   3.389  17.767  0.00  0.00    +0.000 C 
ATOM     25  C   UNL     1       2.137   5.893  18.051  0.00  0.00    +0.000 A 
ENDBRANCH  13  19
BRANCH   1  27
ATOM     26  C   UNL     1       1.179  16.575  18.558  0.00  0.00    +0.000 C 
ATOM     27  O   UNL     1      -0.154  16.146  18.840  0.00  0.00    +0.000 OA
ENDBRANCH   1  27
BRANCH   6  28
ATOM     28  O   UNL     1      -0.166  15.638  21.753  0.00  0.00    +0.000 OA
ATOM     29  C   UNL     1       1.109  15.921  22.306  0.00  0.00    +0.000 C 
ENDBRANCH   6  28
TORSDOF 3
ENDMDL
MODEL 6
REMARK VINA RESULT:      -7.2      3.794      8.928
REMARK  Name = 
REMARK  6 active torsions:
REMARK  status: ('A' for Active; 'I' for Inactive)
REMARK    1  A    between atoms: C_1  and  O_2
REMARK    2  A    between atoms: O_2  and  C_3
REMARK    3  A    between atoms: C_8  and  O_9
REMARK    4  A    between atoms: O_9  and  C_10
REMARK    5  A    between atoms: N_17  and  C_18
REMARK    6  A    between atoms: C_22  and  C_23
REMARK                            x       y       z     vdW  Elec       q    Type
REMARK                         _______ _______ _______ _____ _____    ______ ____
ROOT
ATOM      1  C   UNL     1       0.566  12.308  20.343  0.00  0.00    +0.000 A 
ATOM      2  C   UNL     1       0.880  11.628  19.155  0.00  0.00    +0.000 A 
ATOM      3  C   UNL     1       0.778  10.238  19.074  0.00  0.00    +0.000 A 
ATOM      4  C   UNL     1       0.502   9.518  20.229  0.00  0.00    +0.000 A 
ATOM      5  C   UNL     1       0.241  10.173  21.429  0.00  0.00    +0.000 A 
ATOM      6  C   UNL     1       0.260  11.572  21.501  0.00  0.00    +0.000 A 
ATOM      7  O   UNL     1       0.382   8.154  20.190  0.00  0.00    +0.000 OA
ATOM      8  C   UNL     1       1.513   7.436  19.860  0.00  0.00    +0.000 A 
ATOM      9  N   UNL     1       1.682   6.381  20.681  0.00  0.00    +0.000 NA
ATOM     10  C   UNL     1       2.722   5.589  20.414  0.00  0.00    +0.000 A 
ATOM     11  N   UNL     1       3.592   5.752  19.421  0.00  0.00    +0.000 NA
ATOM     12  C   UNL     1       3.395   6.807  18.609  0.00  0.00    +0.000 A 
ATOM     13  N   UNL     1       4.311   7.046  17.537  0.00  0.00    +0.000 N 
ATOM     14  C   UNL     1       2.314   7.695  18.739  0.00  0.00    +0.000 A 
ATOM     15  N   UNL     1       2.207   8.765  17.824  0.00  0.00    +0.000 N 
ATOM     16  C   UNL     1       0.962   9.501  17.785  0.00  0.00    +0.000 C 
ATOM     17  H   UNL     1       4.672   7.991  17.643  0.00  0.00    +0.000 HD
ATOM     18  H   UNL     1       2.502   8.436  16.904  0.00  0.00    +0.000 HD
ENDROOT
BRANCH  13  19
ATOM     19  C   UNL     1       5.289   6.108  17.141  0.00  0.00    +0.000 A 
ATOM     20  C   UNL     1       6.429   5.916  17.934  0.00  0.00    +0.000 A 
ATOM     21  C   UNL     1       7.460   5.080  17.520  0.00  0.00    +0.000 A 
ATOM     22  C   UNL     1       7.363   4.418  16.300  0.00  0.00    +0.000 A 
ATOM     23  C   UNL     1       6.224   4.572  15.498  0.00  0.00    +0.000 A 
ATOM     24  C   UNL     1       6.136   3.885  14.168  0.00  0.00    +0.000 C 
ATOM     25  C   UNL     1       5.177   5.401  15.938  0.00  0.00    +0.000 A 
ENDBRANCH  13  19
BRANCH   1  27
ATOM     26  C   UNL     1      -0.096  14.331  19.300  0.00  0.00    +0.000 C 
ATOM     27  O   UNL     1       0.567  13.677  20.382  0.00  0.00    +0.000 OA
ENDBRANCH   1  27
BRANCH   6  28
ATOM     28  O   UNL     1      -0.063  12.024  22.750  0.00  0.00    +0.000 OA
ATOM     29  C   UNL     1      -1.408  12.368  23.041  0.00  0.00    +0.000 C 
ENDBRANCH   6  28
TORSDOF 3
ENDMDL
MODEL 7
REMARK VINA RESULT:      -7.1      4.942     10.141
REMARK  Name = 
REMARK  6 active torsions:
REMARK  status: ('A' for Active; 'I' for Inactive)
REMARK    1  A    between atoms: C_1  and  O_2
REMARK    2  A    between atoms: O_2  and  C_3
REMARK    3  A    between atoms: C_8  and  O_9
REMARK    4  A    between atoms: O_9  and  C_10
REMARK    5  A    between atoms: N_17  and  C_18
REMARK    6  A    between atoms: C_22  and  C_23
REMARK                            x       y       z     vdW  Elec       q    Type
REMARK                         _______ _______ _______ _____ _____    ______ ____
ROOT
ATOM      1  C   UNL     1      -2.575  11.877  22.667  0.00  0.00    +0.000 A 
ATOM      2  C   UNL     1      -1.511  11.052  23.066  0.00  0.00    +0.000 A 
ATOM      3  C   UNL     1      -0.368  10.919  22.275  0.00  0.00    +0.000 A 
ATOM      4  C   UNL     1      -0.354  11.499  21.014  0.00  0.00    +0.000 A 
ATOM      5  C   UNL     1      -1.424  12.276  20.578  0.00  0.00    +0.000 A 
ATOM      6  C   UNL     1      -2.541  12.483  21.400  0.00  0.00    +0.000 A 
ATOM      7  O   UNL     1       0.750  11.403  20.211  0.00  0.00    +0.000 OA
ATOM      8  C   UNL     1       1.098  10.141  19.775  0.00  0.00    +0.000 A 
ATOM      9  N   UNL     1       1.398  10.141  18.461  0.00  0.00    +0.000 NA
ATOM     10  C   UNL     1       1.798   8.976  17.949  0.00  0.00    +0.000 A 
ATOM     11  N   UNL     1       1.922   7.832  18.616  0.00  0.00    +0.000 NA
ATOM     12  C   UNL     1       1.626   7.860  19.929  0.00  0.00    +0.000 A 
ATOM     13  N   UNL     1       1.719   6.656  20.694  0.00  0.00    +0.000 N 
ATOM     14  C   UNL     1       1.242   9.027  20.612  0.00  0.00    +0.000 A 
ATOM     15  N   UNL     1       0.959   8.936  21.992  0.00  0.00    +0.000 N 
ATOM     16  C   UNL     1       0.839  10.168  22.742  0.00  0.00    +0.000 C 
ATOM     17  H   UNL     1       0.816   6.498  21.133  0.00  0.00    +0.000 HD
ATOM     18  H   UNL     1       1.615   8.278  22.416  0.00  0.00    +0.000 HD
ENDROOT
BRANCH  13  19
ATOM     19  C   UNL     1       2.322   5.478  20.200  0.00  0.00    +0.000 A 
ATOM     20  C   UNL     1       1.672   4.247  20.357  0.00  0.00    +0.000 A 
ATOM     21  C   UNL     1       2.286   3.058  19.979  0.00  0.00    +0.000 A 
ATOM     22  C   UNL     1       3.564   3.085  19.431  0.00  0.00    +0.000 A 
ATOM     23  C   UNL     1       4.228   4.304  19.239  0.00  0.00    +0.000 A 
ATOM     24  C   UNL     1       5.620   4.329  18.682  0.00  0.00    +0.000 C 
ATOM     25  C   UNL     1       3.588   5.502  19.604  0.00  0.00    +0.000 A 
ENDBRANCH  13  19
BRANCH   1  27
ATOM     26  C   UNL     1      -3.590  13.263  24.300  0.00  0.00    +0.000 C 
ATOM     27  O   UNL     1      -3.644  12.083  23.498  0.00  0.00    +0.000 OA
ENDBRANCH   1  27
BRANCH   6  28
ATOM     28  O   UNL     1      -3.462  13.307  20.812  0.00  0.00    +0.000 OA
ATOM     29  C   UNL     1      -4.493  12.744  20.018  0.00  0.00    +0.000 C 
ENDBRANCH   6  28
TORSDOF 3
ENDMDL
MODEL 8
REMARK VINA RESULT:      -7.0      4.961      9.783
REMARK  Name = 
REMARK  6 active torsions:
REMARK  status: ('A' for Active; 'I' for Inactive)
REMARK    1  A    between atoms: C_1  and  O_2
REMARK    2  A    between atoms: O_2  and  C_3
REMARK    3  A    between atoms: C_8  and  O_9
REMARK    4  A    between atoms: O_9  and  C_10
REMARK    5  A    between atoms: N_17  and  C_18
REMARK    6  A    between atoms: C_22  and  C_23
REMARK                            x       y       z     vdW  Elec       q    Type
REMARK                         _______ _______ _______ _____ _____    ______ ____
ROOT
ATOM      1  C   UNL     1      -0.318  14.827  19.345  0.00  0.00    +0.000 A 
ATOM      2  C   UNL     1      -0.434  13.713  18.497  0.00  0.00    +0.000 A 
ATOM      3  C   UNL     1      -0.644  12.434  19.015  0.00  0.00    +0.000 A 
ATOM      4  C   UNL     1      -0.592  12.251  20.390  0.00  0.00    +0.000 A 
ATOM      5  C   UNL     1      -0.423  13.336  21.245  0.00  0.00    +0.000 A 
ATOM      6  C   UNL     1      -0.294  14.636  20.737  0.00  0.00    +0.000 A 
ATOM      7  O   UNL     1      -0.805  11.015  20.940  0.00  0.00    +0.000 OA
ATOM      8  C   UNL     1       0.118  10.033  20.646  0.00  0.00    +0.000 A 
ATOM      9  N   UNL     1       0.468   9.341  21.748  0.00  0.00    +0.000 NA
ATOM     10  C   UNL     1       1.319   8.331  21.564  0.00  0.00    +0.000 A 
ATOM     11  N   UNL     1       1.845   7.957  20.400  0.00  0.00    +0.000 NA
ATOM     12  C   UNL     1       1.472   8.657  19.313  0.00  0.00    +0.000 A 
ATOM     13  N   UNL     1       2.022   8.315  18.038  0.00  0.00    +0.000 N 
ATOM     14  C   UNL     1       0.544   9.712  19.350  0.00  0.00    +0.000 A 
ATOM     15  N   UNL     1       0.226  10.371  18.143  0.00  0.00    +0.000 N 
ATOM     16  C   UNL     1      -0.919  11.256  18.135  0.00  0.00    +0.000 C 
ATOM     17  H   UNL     1       2.457   9.150  17.654  0.00  0.00    +0.000 HD
ATOM     18  H   UNL     1       0.198   9.680  17.392  0.00  0.00    +0.000 HD
ENDROOT
BRANCH  13  19
ATOM     19  C   UNL     1       2.766   7.135  17.815  0.00  0.00    +0.000 A 
ATOM     20  C   UNL     1       2.166   5.887  18.025  0.00  0.00    +0.000 A 
ATOM     21  C   UNL     1       2.901   4.710  17.918  0.00  0.00    +0.000 A 
ATOM     22  C   UNL     1       4.252   4.768  17.593  0.00  0.00    +0.000 A 
ATOM     23  C   UNL     1       4.872   6.002  17.353  0.00  0.00    +0.000 A 
ATOM     24  C   UNL     1       6.337   6.065  17.039  0.00  0.00    +0.000 C 
ATOM     25  C   UNL     1       4.114   7.183  17.441  0.00  0.00    +0.000 A 
ENDBRANCH  13  19
BRANCH   1  27
ATOM     26  C   UNL     1       1.107  16.544  18.545  0.00  0.00    +0.000 C 
ATOM     27  O   UNL     1      -0.217  16.090  18.824  0.00  0.00    +0.000 OA
ENDBRANCH   1  27
BRANCH   6  28
ATOM     28  O   UNL     1      -0.181  15.566  21.733  0.00  0.00    +0.000 OA
ATOM     29  C   UNL     1       1.100  15.866  22.264  0.00  0.00    +0.000 C 
ENDBRANCH   6  28
TORSDOF 3
ENDMDL
MODEL 9
REMARK VINA RESULT:      -7.0      5.187      9.798
REMARK  Name = 
REMARK  6 active torsions:
REMARK  status: ('A' for Active; 'I' for Inactive)
REMARK    1  A    between atoms: C_1  and  O_2
REMARK    2  A    between atoms: O_2  and  C_3
REMARK    3  A    between atoms: C_8  and  O_9
REMARK    4  A    between atoms: O_9  and  C_10
REMARK    5  A    between atoms: N_17  and  C_18
REMARK    6  A    between atoms: C_22  and  C_23
REMARK                            x       y       z     vdW  Elec       q    Type
REMARK                         _______ _______ _______ _____ _____    ______ ____
ROOT
ATOM      1  C   UNL     1      -1.857  11.504  22.492  0.00  0.00    +0.000 A 
ATOM      2  C   UNL     1      -0.915  10.525  22.849  0.00  0.00    +0.000 A 
ATOM      3  C   UNL     1       0.215  10.293  22.063  0.00  0.00    +0.000 A 
ATOM      4  C   UNL     1       0.325  10.941  20.840  0.00  0.00    +0.000 A 
ATOM      5  C   UNL     1      -0.628  11.874  20.443  0.00  0.00    +0.000 A 
ATOM      6  C   UNL     1      -1.723  12.175  21.264  0.00  0.00    +0.000 A 
ATOM      7  O   UNL     1       1.422  10.750  20.043  0.00  0.00    +0.000 OA
ATOM      8  C   UNL     1       1.611   9.482  19.533  0.00  0.00    +0.000 A 
ATOM      9  N   UNL     1       1.932   9.521  18.225  0.00  0.00    +0.000 NA
ATOM     10  C   UNL     1       2.188   8.347  17.646  0.00  0.00    +0.000 A 
ATOM     11  N   UNL     1       2.152   7.159  18.243  0.00  0.00    +0.000 NA
ATOM     12  C   UNL     1       1.839   7.147  19.552  0.00  0.00    +0.000 A 
ATOM     13  N   UNL     1       1.762   5.897  20.242  0.00  0.00    +0.000 N 
ATOM     14  C   UNL     1       1.596   8.310  20.302  0.00  0.00    +0.000 A 
ATOM     15  N   UNL     1       1.280   8.175  21.671  0.00  0.00    +0.000 N 
ATOM     16  C   UNL     1       1.307   9.365  22.494  0.00  0.00    +0.000 C 
ATOM     17  H   UNL     1       0.839   5.831  20.662  0.00  0.00    +0.000 HD
ATOM     18  H   UNL     1       1.838   7.413  22.060  0.00  0.00    +0.000 HD
ENDROOT
BRANCH  13  19
ATOM     19  C   UNL     1       2.217   4.683  19.682  0.00  0.00    +0.000 A 
ATOM     20  C   UNL     1       1.550   4.134  18.579  0.00  0.00    +0.000 A 
ATOM     21  C   UNL     1       1.905   2.889  18.071  0.00  0.00    +0.000 A 
ATOM     22  C   UNL     1       2.942   2.174  18.662  0.00  0.00    +0.000 A 
ATOM     23  C   UNL     1       3.643   2.710  19.750  0.00  0.00    +0.000 A 
ATOM     24  C   UNL     1       4.737   1.922  20.408  0.00  0.00    +0.000 C 
ATOM     25  C   UNL     1       3.291   3.979  20.240  0.00  0.00    +0.000 A 
ENDBRANCH  13  19
BRANCH   1  27
ATOM     26  C   UNL     1      -2.903  13.107  23.889  0.00  0.00    +0.000 C 
ATOM     27  O   UNL     1      -2.905  11.797  23.323  0.00  0.00    +0.000 OA
ENDBRANCH   1  27
BRANCH   6  28
ATOM     28  O   UNL     1      -2.520  13.145  20.720  0.00  0.00    +0.000 OA
ATOM     29  C   UNL     1      -3.797  12.793  20.213  0.00  0.00    +0.000 C 
ENDBRANCH   6  28
TORSDOF 3
ENDMDL
