MODEL 1
REMARK VINA RESULT:      -7.5      0.000      0.000
REMARK  Name = 
REMARK  11 active torsions:
REMARK  status: ('A' for Active; 'I' for Inactive)
REMARK    1  A    between atoms: C_1  and  O_2
REMARK    2  A    between atoms: O_2  and  C_3
REMARK    3  A    between atoms: C_8  and  N_9
REMARK    4  A    between atoms: N_12  and  C_13
REMARK    5  A    between atoms: N_12  and  C_21
REMARK    6  A    between atoms: C_13  and  C_14
REMARK    7  A    between atoms: C_14  and  N_15
REMARK    8  A    between atoms: C_21  and  C_22
REMARK    9  A    between atoms: C_26  and  C_27
REMARK   10  A    between atoms: C_29  and  C_30
REMARK   11  A    between atoms: C_33  and  O_34
REMARK                            x       y       z     vdW  Elec       q    Type
REMARK                         _______ _______ _______ _____ _____    ______ ____
ROOT
ATOM      1  N   UNL     1      -2.106  11.384  19.352  0.00  0.00    +0.000 N 
ATOM      2  C   UNL     1      -0.934  12.094  19.208  0.00  0.00    +0.000 C 
ATOM      3  O   UNL     1      -0.846  13.120  18.528  0.00  0.00    +0.000 OA
ATOM      4  N   UNL     1       0.195  11.590  19.856  0.00  0.00    +0.000 N 
ATOM      5  H   UNL     1      -2.102  10.530  19.884  0.00  0.00    +0.000 HD
ENDROOT
BRANCH   1  11
ATOM      6  C   UNL     1      -3.539  11.216  17.374  0.00  0.00    +0.000 A 
ATOM      7  C   UNL     1      -4.694  11.585  16.671  0.00  0.00    +0.000 A 
ATOM      8  C   UNL     1      -5.713  12.321  17.285  0.00  0.00    +0.000 A 
ATOM      9  C   UNL     1      -5.559  12.688  18.615  0.00  0.00    +0.000 A 
ATOM     10  C   UNL     1      -4.387  12.372  19.318  0.00  0.00    +0.000 A 
ATOM     11  C   UNL     1      -3.351  11.656  18.715  0.00  0.00    +0.000 A 
BRANCH   6  13
ATOM     12  C   UNL     1      -2.784   9.914  15.537  0.00  0.00    +0.000 C 
ATOM     13  O   UNL     1      -2.512  10.461  16.832  0.00  0.00    +0.000 OA
ENDBRANCH   6  13
ENDBRANCH   1  11
BRANCH   4  14
ATOM     14  C   UNL     1       1.477  12.315  19.651  0.00  0.00    +0.000 C 
BRANCH  14  15
ATOM     15  C   UNL     1       1.820  13.553  20.551  0.00  0.00    +0.000 C 
BRANCH  15  16
ATOM     16  N   UNL     1       3.196  14.084  20.326  0.00  0.00    +0.000 NA
ATOM     17  C   UNL     1       3.441  15.352  21.062  0.00  0.00    +0.000 C 
ATOM     18  C   UNL     1       2.755  16.591  20.449  0.00  0.00    +0.000 C 
ATOM     19  O   UNL     1       3.111  16.763  19.073  0.00  0.00    +0.000 OA
ATOM     20  C   UNL     1       2.795  15.585  18.321  0.00  0.00    +0.000 C 
ATOM     21  C   UNL     1       3.506  14.352  18.901  0.00  0.00    +0.000 C 
ENDBRANCH  15  16
ENDBRANCH  14  15
ENDBRANCH   4  14
BRANCH   4  22
ATOM     22  C   UNL     1       0.319  10.199  20.351  0.00  0.00    +0.000 C 
BRANCH  22  23
ATOM     23  C   UNL     1       1.166   9.235  19.564  0.00  0.00    +0.000 A 
ATOM     24  C   UNL     1       1.957   8.271  20.166  0.00  0.00    +0.000 A 
ATOM     25  C   UNL     1       2.499   7.278  19.344  0.00  0.00    +0.000 A 
ATOM     26  C   UNL     1       1.973   5.970  19.311  0.00  0.00    +0.000 A 
ATOM     27  C   UNL     1       2.270   5.118  18.229  0.00  0.00    +0.000 A 
ATOM     28  C   UNL     1       1.484   3.878  17.941  0.00  0.00    +0.000 C 
ATOM     29  C   UNL     1       3.350   5.460  17.426  0.00  0.00    +0.000 A 
ATOM     30  C   UNL     1       3.831   6.760  17.510  0.00  0.00    +0.000 A 
ATOM     31  C   UNL     1       5.321   6.972  17.411  0.00  0.00    +0.000 C 
ATOM     32  C   UNL     1       3.008   7.689  18.143  0.00  0.00    +0.000 A 
ATOM     33  N   UNL     1       2.225   8.568  17.484  0.00  0.00    +0.000 NA
ATOM     34  C   UNL     1       1.257   9.213  18.186  0.00  0.00    +0.000 A 
BRANCH  34  35
ATOM     35  O   UNL     1       0.141   9.509  17.455  0.00  0.00    +0.000 OA
ATOM     36  H   UNL     1       0.392   9.117  16.595  0.00  0.00    +0.000 HD
ENDBRANCH  34  35
ENDBRANCH  22  23
ENDBRANCH   4  22
TORSDOF 8
ENDMDL
MODEL 2
REMARK VINA RESULT:      -7.2      0.910      1.930
REMARK  Name = 
REMARK  11 active torsions:
REMARK  status: ('A' for Active; 'I' for Inactive)
REMARK    1  A    between atoms: C_1  and  O_2
REMARK    2  A    between atoms: O_2  and  C_3
REMARK    3  A    between atoms: C_8  and  N_9
REMARK    4  A    between atoms: N_12  and  C_13
REMARK    5  A    between atoms: N_12  and  C_21
REMARK    6  A    between atoms: C_13  and  C_14
REMARK    7  A    between atoms: C_14  and  N_15
REMARK    8  A    between atoms: C_21  and  C_22
REMARK    9  A    between atoms: C_26  and  C_27
REMARK   10  A    between atoms: C_29  and  C_30
REMARK   11  A    between atoms: C_33  and  O_34
REMARK                            x       y       z     vdW  Elec       q    Type
REMARK                         _______ _______ _______ _____ _____    ______ ____
ROOT
ATOM      1  N   UNL     1      -1.948  11.395  19.219  0.00  0.00    +0.000 N 
ATOM      2  C   UNL     1      -0.766  12.088  19.076  0.00  0.00    +0.000 C 
ATOM      3  O   UNL     1      -0.652  13.088  18.364  0.00  0.00    +0.000 OA
ATOM      4  N   UNL     1       0.344  11.594  19.765  0.00  0.00    +0.000 N 
ATOM      5  H   UNL     1      -1.965  10.560  19.781  0.00  0.00    +0.000 HD
ENDROOT
BRANCH   1  11
ATOM      6  C   UNL     1      -4.247  12.233  19.285  0.00  0.00    +0.000 A 
ATOM      7  C   UNL     1      -5.509  12.377  18.694  0.00  0.00    +0.000 A 
ATOM      8  C   UNL     1      -5.727  12.031  17.355  0.00  0.00    +0.000 A 
ATOM      9  C   UNL     1      -4.662  11.536  16.615  0.00  0.00    +0.000 A 
ATOM     10  C   UNL     1      -3.405  11.337  17.206  0.00  0.00    +0.000 A 
ATOM     11  C   UNL     1      -3.176  11.656  18.546  0.00  0.00    +0.000 A 
BRANCH   6  13
ATOM     12  C   UNL     1      -5.035  13.229  21.292  0.00  0.00    +0.000 C 
ATOM     13  O   UNL     1      -3.962  12.587  20.594  0.00  0.00    +0.000 OA
ENDBRANCH   6  13
ENDBRANCH   1  11
BRANCH   4  14
ATOM     14  C   UNL     1       1.638  12.300  19.564  0.00  0.00    +0.000 C 
BRANCH  14  15
ATOM     15  C   UNL     1       2.109  13.369  20.609  0.00  0.00    +0.000 C 
BRANCH  15  16
ATOM     16  N   UNL     1       1.743  14.766  20.231  0.00  0.00    +0.000 NA
ATOM     17  C   UNL     1       2.167  15.108  18.848  0.00  0.00    +0.000 C 
ATOM     18  C   UNL     1       3.681  15.355  18.685  0.00  0.00    +0.000 C 
ATOM     19  O   UNL     1       4.151  16.361  19.590  0.00  0.00    +0.000 OA
ATOM     20  C   UNL     1       3.838  16.007  20.942  0.00  0.00    +0.000 C 
ATOM     21  C   UNL     1       2.325  15.797  21.123  0.00  0.00    +0.000 C 
ENDBRANCH  15  16
ENDBRANCH  14  15
ENDBRANCH   4  14
BRANCH   4  22
ATOM     22  C   UNL     1       0.443  10.221  20.311  0.00  0.00    +0.000 C 
BRANCH  22  23
ATOM     23  C   UNL     1       1.254   9.208  19.549  0.00  0.00    +0.000 A 
ATOM     24  C   UNL     1       2.008   8.229  20.176  0.00  0.00    +0.000 A 
ATOM     25  C   UNL     1       2.513   7.198  19.378  0.00  0.00    +0.000 A 
ATOM     26  C   UNL     1       1.939   5.910  19.375  0.00  0.00    +0.000 A 
ATOM     27  C   UNL     1       2.205   5.022  18.313  0.00  0.00    +0.000 A 
ATOM     28  C   UNL     1       1.374   3.806  18.052  0.00  0.00    +0.000 C 
ATOM     29  C   UNL     1       3.299   5.305  17.506  0.00  0.00    +0.000 A 
ATOM     30  C   UNL     1       3.829   6.587  17.560  0.00  0.00    +0.000 A 
ATOM     31  C   UNL     1       5.326   6.742  17.460  0.00  0.00    +0.000 C 
ATOM     32  C   UNL     1       3.040   7.562  18.169  0.00  0.00    +0.000 A 
ATOM     33  N   UNL     1       2.291   8.453  17.488  0.00  0.00    +0.000 NA
ATOM     34  C   UNL     1       1.347   9.150  18.172  0.00  0.00    +0.000 A 
BRANCH  34  35
ATOM     35  O   UNL     1       0.244   9.471  17.431  0.00  0.00    +0.000 OA
ATOM     36  H   UNL     1       0.277   8.760  16.761  0.00  0.00    +0.000 HD
ENDBRANCH  34  35
ENDBRANCH  22  23
ENDBRANCH   4  22
TORSDOF 8
ENDMDL
MODEL 3
REMARK VINA RESULT:      -7.2      0.763      1.189
REMARK  Name = 
REMARK  11 active torsions:
REMARK  status: ('A' for Active; 'I' for Inactive)
REMARK    1  A    between atoms: C_1  and  O_2
REMARK    2  A    between atoms: O_2  and  C_3
REMARK    3  A    between atoms: C_8  and  N_9
REMARK    4  A    between atoms: N_12  and  C_13
REMARK    5  A    between atoms: N_12  and  C_21
REMARK    6  A    between atoms: C_13  and  C_14
REMARK    7  A    between atoms: C_14  and  N_15
REMARK    8  A    between atoms: C_21  and  C_22
REMARK    9  A    between atoms: C_26  and  C_27
REMARK   10  A    between atoms: C_29  and  C_30
REMARK   11  A    between atoms: C_33  and  O_34
REMARK                            x       y       z     vdW  Elec       q    Type
REMARK                         _______ _______ _______ _____ _____    ______ ____
ROOT
ATOM      1  N   UNL     1      -2.180  11.313  19.410  0.00  0.00    +0.000 N 
ATOM      2  C   UNL     1      -1.019  12.054  19.409  0.00  0.00    +0.000 C 
ATOM      3  O   UNL     1      -0.908  13.133  18.822  0.00  0.00    +0.000 OA
ATOM      4  N   UNL     1       0.075  11.518  20.092  0.00  0.00    +0.000 N 
ATOM      5  H   UNL     1      -2.193  10.418  19.870  0.00  0.00    +0.000 HD
ENDROOT
BRANCH   1  11
ATOM      6  C   UNL     1      -3.490  11.228  17.344  0.00  0.00    +0.000 A 
ATOM      7  C   UNL     1      -4.600  11.627  16.587  0.00  0.00    +0.000 A 
ATOM      8  C   UNL     1      -5.654  12.341  17.167  0.00  0.00    +0.000 A 
ATOM      9  C   UNL     1      -5.582  12.654  18.518  0.00  0.00    +0.000 A 
ATOM     10  C   UNL     1      -4.455  12.307  19.277  0.00  0.00    +0.000 A 
ATOM     11  C   UNL     1      -3.384  11.613  18.710  0.00  0.00    +0.000 A 
BRANCH   6  13
ATOM     12  C   UNL     1      -2.634   9.981  15.513  0.00  0.00    +0.000 C 
ATOM     13  O   UNL     1      -2.432  10.493  16.835  0.00  0.00    +0.000 OA
ENDBRANCH   6  13
ENDBRANCH   1  11
BRANCH   4  14
ATOM     14  C   UNL     1       1.349  12.282  20.039  0.00  0.00    +0.000 C 
BRANCH  14  15
ATOM     15  C   UNL     1       1.842  12.876  18.674  0.00  0.00    +0.000 C 
BRANCH  15  16
ATOM     16  N   UNL     1       2.031  14.355  18.707  0.00  0.00    +0.000 NA
ATOM     17  C   UNL     1       3.087  14.812  17.766  0.00  0.00    +0.000 C 
ATOM     18  C   UNL     1       4.529  14.518  18.229  0.00  0.00    +0.000 C 
ATOM     19  O   UNL     1       4.785  15.058  19.531  0.00  0.00    +0.000 OA
ATOM     20  C   UNL     1       3.835  14.556  20.479  0.00  0.00    +0.000 C 
ATOM     21  C   UNL     1       2.396  14.880  20.045  0.00  0.00    +0.000 C 
ENDBRANCH  15  16
ENDBRANCH  14  15
ENDBRANCH   4  14
BRANCH   4  22
ATOM     22  C   UNL     1       0.198  10.095  20.480  0.00  0.00    +0.000 C 
BRANCH  22  23
ATOM     23  C   UNL     1       1.088   9.205  19.654  0.00  0.00    +0.000 A 
ATOM     24  C   UNL     1       1.892   8.224  20.214  0.00  0.00    +0.000 A 
ATOM     25  C   UNL     1       2.479   7.301  19.344  0.00  0.00    +0.000 A 
ATOM     26  C   UNL     1       1.990   5.985  19.216  0.00  0.00    +0.000 A 
ATOM     27  C   UNL     1       2.334   5.211  18.089  0.00  0.00    +0.000 A 
ATOM     28  C   UNL     1       1.589   3.972  17.704  0.00  0.00    +0.000 C 
ATOM     29  C   UNL     1       3.422   5.631  17.336  0.00  0.00    +0.000 A 
ATOM     30  C   UNL     1       3.866   6.935  17.514  0.00  0.00    +0.000 A 
ATOM     31  C   UNL     1       5.351   7.192  17.465  0.00  0.00    +0.000 C 
ATOM     32  C   UNL     1       3.004   7.801  18.184  0.00  0.00    +0.000 A 
ATOM     33  N   UNL     1       2.212   8.699  17.563  0.00  0.00    +0.000 NA
ATOM     34  C   UNL     1       1.211   9.273  18.281  0.00  0.00    +0.000 A 
BRANCH  34  35
ATOM     35  O   UNL     1       0.105   9.587  17.543  0.00  0.00    +0.000 OA
ATOM     36  H   UNL     1      -0.063  10.495  17.865  0.00  0.00    +0.000 HD
ENDBRANCH  34  35
ENDBRANCH  22  23
ENDBRANCH   4  22
TORSDOF 8
ENDMDL
MODEL 4
REMARK VINA RESULT:      -7.1      0.793      1.672
REMARK  Name = 
REMARK  11 active torsions:
REMARK  status: ('A' for Active; 'I' for Inactive)
REMARK    1  A    between atoms: C_1  and  O_2
REMARK    2  A    between atoms: O_2  and  C_3
REMARK    3  A    between atoms: C_8  and  N_9
REMARK    4  A    between atoms: N_12  and  C_13
REMARK    5  A    between atoms: N_12  and  C_21
REMARK    6  A    between atoms: C_13  and  C_14
REMARK    7  A    between atoms: C_14  and  N_15
REMARK    8  A    between atoms: C_21  and  C_22
REMARK    9  A    between atoms: C_26  and  C_27
REMARK   10  A    between atoms: C_29  and  C_30
REMARK   11  A    between atoms: C_33  and  O_34
REMARK                            x       y       z     vdW  Elec       q    Type
REMARK                         _______ _______ _______ _____ _____    ______ ____
ROOT
ATOM      1  N   UNL     1      -2.091  11.346  19.265  0.00  0.00    +0.000 N 
ATOM      2  C   UNL     1      -0.912  12.053  19.174  0.00  0.00    +0.000 C 
ATOM      3  O   UNL     1      -0.793  13.084  18.507  0.00  0.00    +0.000 OA
ATOM      4  N   UNL     1       0.189  11.540  19.863  0.00  0.00    +0.000 N 
ATOM      5  H   UNL     1      -2.111  10.488  19.790  0.00  0.00    +0.000 HD
ENDROOT
BRANCH   1  11
ATOM      6  C   UNL     1      -4.356  12.273  19.293  0.00  0.00    +0.000 A 
ATOM      7  C   UNL     1      -5.612  12.440  18.695  0.00  0.00    +0.000 A 
ATOM      8  C   UNL     1      -5.843  12.049  17.371  0.00  0.00    +0.000 A 
ATOM      9  C   UNL     1      -4.797  11.484  16.653  0.00  0.00    +0.000 A 
ATOM     10  C   UNL     1      -3.549  11.262  17.254  0.00  0.00    +0.000 A 
ATOM     11  C   UNL     1      -3.308  11.626  18.580  0.00  0.00    +0.000 A 
BRANCH   6  13
ATOM     12  C   UNL     1      -4.673  13.895  21.000  0.00  0.00    +0.000 C 
ATOM     13  O   UNL     1      -4.058  12.668  20.587  0.00  0.00    +0.000 OA
ENDBRANCH   6  13
ENDBRANCH   1  11
BRANCH   4  14
ATOM     14  C   UNL     1       1.480  12.263  19.717  0.00  0.00    +0.000 C 
BRANCH  14  15
ATOM     15  C   UNL     1       1.817  13.451  20.683  0.00  0.00    +0.000 C 
BRANCH  15  16
ATOM     16  N   UNL     1       3.170  14.036  20.450  0.00  0.00    +0.000 NA
ATOM     17  C   UNL     1       3.450  15.189  21.345  0.00  0.00    +0.000 C 
ATOM     18  C   UNL     1       2.713  16.490  20.962  0.00  0.00    +0.000 C 
ATOM     19  O   UNL     1       2.976  16.865  19.605  0.00  0.00    +0.000 OA
ATOM     20  C   UNL     1       2.623  15.801  18.713  0.00  0.00    +0.000 C 
ATOM     21  C   UNL     1       3.383  14.511  19.062  0.00  0.00    +0.000 C 
ENDBRANCH  15  16
ENDBRANCH  14  15
ENDBRANCH   4  14
BRANCH   4  22
ATOM     22  C   UNL     1       0.289  10.145  20.352  0.00  0.00    +0.000 C 
BRANCH  22  23
ATOM     23  C   UNL     1       1.144   9.178  19.578  0.00  0.00    +0.000 A 
ATOM     24  C   UNL     1       1.915   8.204  20.192  0.00  0.00    +0.000 A 
ATOM     25  C   UNL     1       2.466   7.212  19.376  0.00  0.00    +0.000 A 
ATOM     26  C   UNL     1       1.931   5.908  19.326  0.00  0.00    +0.000 A 
ATOM     27  C   UNL     1       2.243   5.059  18.245  0.00  0.00    +0.000 A 
ATOM     28  C   UNL     1       1.454   3.827  17.934  0.00  0.00    +0.000 C 
ATOM     29  C   UNL     1       3.343   5.396  17.468  0.00  0.00    +0.000 A 
ATOM     30  C   UNL     1       3.833   6.692  17.568  0.00  0.00    +0.000 A 
ATOM     31  C   UNL     1       5.327   6.893  17.503  0.00  0.00    +0.000 C 
ATOM     32  C   UNL     1       3.004   7.625  18.188  0.00  0.00    +0.000 A 
ATOM     33  N   UNL     1       2.243   8.513  17.518  0.00  0.00    +0.000 NA
ATOM     34  C   UNL     1       1.265   9.162  18.202  0.00  0.00    +0.000 A 
BRANCH  34  35
ATOM     35  O   UNL     1       0.168   9.472  17.449  0.00  0.00    +0.000 OA
ATOM     36  H   UNL     1       0.507  10.251  16.965  0.00  0.00    +0.000 HD
ENDBRANCH  34  35
ENDBRANCH  22  23
ENDBRANCH   4  22
TORSDOF 8
ENDMDL
MODEL 5
REMARK VINA RESULT:      -7.1      2.912      7.209
REMARK  Name = 
REMARK  11 active torsions:
REMARK  status: ('A' for Active; 'I' for Inactive)
REMARK    1  A    between atoms: C_1  and  O_2
REMARK    2  A    between atoms: O_2  and  C_3
REMARK    3  A    between atoms: C_8  and  N_9
REMARK    4  A    between atoms: N_12  and  C_13
REMARK    5  A    between atoms: N_12  and  C_21
REMARK    6  A    between atoms: C_13  and  C_14
REMARK    7  A    between atoms: C_14  and  N_15
REMARK    8  A    between atoms: C_21  and  C_22
REMARK    9  A    between atoms: C_26  and  C_27
REMARK   10  A    between atoms: C_29  and  C_30
REMARK   11  A    between atoms: C_33  and  O_34
REMARK                            x       y       z     vdW  Elec       q    Type
REMARK                         _______ _______ _______ _____ _____    ______ ____
ROOT
ATOM      1  N   UNL     1      -0.934  11.726  21.829  0.00  0.00    +0.000 N 
ATOM      2  C   UNL     1      -0.200  10.617  22.187  0.00  0.00    +0.000 C 
ATOM      3  O   UNL     1      -0.100  10.220  23.351  0.00  0.00    +0.000 OA
ATOM      4  N   UNL     1       0.471   9.944  21.163  0.00  0.00    +0.000 N 
ATOM      5  H   UNL     1      -0.939  12.024  20.868  0.00  0.00    +0.000 HD
ENDROOT
BRANCH   1  11
ATOM      6  C   UNL     1      -0.951  13.790  23.145  0.00  0.00    +0.000 A 
ATOM      7  C   UNL     1      -1.540  14.613  24.114  0.00  0.00    +0.000 A 
ATOM      8  C   UNL     1      -2.819  14.343  24.613  0.00  0.00    +0.000 A 
ATOM      9  C   UNL     1      -3.502  13.234  24.131  0.00  0.00    +0.000 A 
ATOM     10  C   UNL     1      -2.904  12.372  23.200  0.00  0.00    +0.000 A 
ATOM     11  C   UNL     1      -1.621  12.613  22.706  0.00  0.00    +0.000 A 
BRANCH   6  13
ATOM     12  C   UNL     1       0.403  15.231  21.828  0.00  0.00    +0.000 C 
ATOM     13  O   UNL     1       0.297  14.022  22.590  0.00  0.00    +0.000 OA
ENDBRANCH   6  13
ENDBRANCH   1  11
BRANCH   4  14
ATOM     14  C   UNL     1       1.317   8.785  21.552  0.00  0.00    +0.000 C 
BRANCH  14  15
ATOM     15  C   UNL     1       1.042   7.377  20.920  0.00  0.00    +0.000 C 
BRANCH  15  16
ATOM     16  N   UNL     1       2.277   6.560  20.735  0.00  0.00    +0.000 NA
ATOM     17  C   UNL     1       2.853   6.705  19.372  0.00  0.00    +0.000 C 
ATOM     18  C   UNL     1       2.075   5.961  18.266  0.00  0.00    +0.000 C 
ATOM     19  O   UNL     1       1.923   4.570  18.574  0.00  0.00    +0.000 OA
ATOM     20  C   UNL     1       1.282   4.404  19.845  0.00  0.00    +0.000 C 
ATOM     21  C   UNL     1       2.071   5.109  20.959  0.00  0.00    +0.000 C 
ENDBRANCH  15  16
ENDBRANCH  14  15
ENDBRANCH   4  14
BRANCH   4  22
ATOM     22  C   UNL     1       0.758  10.528  19.833  0.00  0.00    +0.000 C 
BRANCH  22  23
ATOM     23  C   UNL     1      -0.386  10.704  18.870  0.00  0.00    +0.000 A 
ATOM     24  C   UNL     1      -1.191   9.652  18.465  0.00  0.00    +0.000 A 
ATOM     25  C   UNL     1      -2.365   9.971  17.775  0.00  0.00    +0.000 A 
ATOM     26  C   UNL     1      -3.630   9.916  18.394  0.00  0.00    +0.000 A 
ATOM     27  C   UNL     1      -4.726  10.592  17.820  0.00  0.00    +0.000 A 
ATOM     28  C   UNL     1      -5.982  10.881  18.579  0.00  0.00    +0.000 C 
ATOM     29  C   UNL     1      -4.611  10.977  16.491  0.00  0.00    +0.000 A 
ATOM     30  C   UNL     1      -3.340  11.000  15.932  0.00  0.00    +0.000 A 
ATOM     31  C   UNL     1      -3.189  10.569  14.495  0.00  0.00    +0.000 C 
ATOM     32  C   UNL     1      -2.268  10.946  16.821  0.00  0.00    +0.000 A 
ATOM     33  N   UNL     1      -1.560  12.027  17.207  0.00  0.00    +0.000 NA
ATOM     34  C   UNL     1      -0.744  11.903  18.286  0.00  0.00    +0.000 A 
BRANCH  34  35
ATOM     35  O   UNL     1      -0.610  13.049  19.018  0.00  0.00    +0.000 OA
ATOM     36  H   UNL     1       0.362  13.148  19.006  0.00  0.00    +0.000 HD
ENDBRANCH  34  35
ENDBRANCH  22  23
ENDBRANCH   4  22
TORSDOF 8
ENDMDL
MODEL 6
REMARK VINA RESULT:      -7.1      0.913      1.223
REMARK  Name = 
REMARK  11 active torsions:
REMARK  status: ('A' for Active; 'I' for Inactive)
REMARK    1  A    between atoms: C_1  and  O_2
REMARK    2  A    between atoms: O_2  and  C_3
REMARK    3  A    between atoms: C_8  and  N_9
REMARK    4  A    between atoms: N_12  and  C_13
REMARK    5  A    between atoms: N_12  and  C_21
REMARK    6  A    between atoms: C_13  and  C_14
REMARK    7  A    between atoms: C_14  and  N_15
REMARK    8  A    between atoms: C_21  and  C_22
REMARK    9  A    between atoms: C_26  and  C_27
REMARK   10  A    between atoms: C_29  and  C_30
REMARK   11  A    between atoms: C_33  and  O_34
REMARK                            x       y       z     vdW  Elec       q    Type
REMARK                         _______ _______ _______ _____ _____    ______ ____
ROOT
ATOM      1  N   UNL     1      -2.082  11.406  19.267  0.00  0.00    +0.000 N 
ATOM      2  C   UNL     1      -0.909  12.091  19.037  0.00  0.00    +0.000 C 
ATOM      3  O   UNL     1      -0.837  13.078  18.300  0.00  0.00    +0.000 OA
ATOM      4  N   UNL     1       0.241  11.605  19.663  0.00  0.00    +0.000 N 
ATOM      5  H   UNL     1      -2.066  10.582  19.844  0.00  0.00    +0.000 HD
ENDROOT
BRANCH   1  11
ATOM      6  C   UNL     1      -3.558  11.259  17.319  0.00  0.00    +0.000 A 
ATOM      7  C   UNL     1      -4.739  11.615  16.655  0.00  0.00    +0.000 A 
ATOM      8  C   UNL     1      -5.764  12.302  17.317  0.00  0.00    +0.000 A 
ATOM      9  C   UNL     1      -5.588  12.631  18.654  0.00  0.00    +0.000 A 
ATOM     10  C   UNL     1      -4.390  12.328  19.318  0.00  0.00    +0.000 A 
ATOM     11  C   UNL     1      -3.349  11.662  18.669  0.00  0.00    +0.000 A 
BRANCH   6  13
ATOM     12  C   UNL     1      -2.754  10.168  15.368  0.00  0.00    +0.000 C 
ATOM     13  O   UNL     1      -2.523  10.551  16.729  0.00  0.00    +0.000 OA
ENDBRANCH   6  13
ENDBRANCH   1  11
BRANCH   4  14
ATOM     14  C   UNL     1       1.521  12.301  19.367  0.00  0.00    +0.000 C 
BRANCH  14  15
ATOM     15  C   UNL     1       1.675  13.822  19.713  0.00  0.00    +0.000 C 
BRANCH  15  16
ATOM     16  N   UNL     1       1.455  14.125  21.158  0.00  0.00    +0.000 NA
ATOM     17  C   UNL     1       0.215  14.912  21.388  0.00  0.00    +0.000 C 
ATOM     18  C   UNL     1       0.318  16.400  20.990  0.00  0.00    +0.000 C 
ATOM     19  O   UNL     1       1.420  17.044  21.640  0.00  0.00    +0.000 OA
ATOM     20  C   UNL     1       2.644  16.357  21.354  0.00  0.00    +0.000 C 
ATOM     21  C   UNL     1       2.565  14.883  21.784  0.00  0.00    +0.000 C 
ENDBRANCH  15  16
ENDBRANCH  14  15
ENDBRANCH   4  14
BRANCH   4  22
ATOM     22  C   UNL     1       0.369  10.242  20.226  0.00  0.00    +0.000 C 
BRANCH  22  23
ATOM     23  C   UNL     1       1.209   9.239  19.482  0.00  0.00    +0.000 A 
ATOM     24  C   UNL     1       1.975   8.280  20.125  0.00  0.00    +0.000 A 
ATOM     25  C   UNL     1       2.510   7.253  19.342  0.00  0.00    +0.000 A 
ATOM     26  C   UNL     1       1.962   5.954  19.342  0.00  0.00    +0.000 A 
ATOM     27  C   UNL     1       2.258   5.063  18.291  0.00  0.00    +0.000 A 
ATOM     28  C   UNL     1       1.455   3.829  18.030  0.00  0.00    +0.000 C 
ATOM     29  C   UNL     1       3.356   5.362  17.494  0.00  0.00    +0.000 A 
ATOM     30  C   UNL     1       3.859   6.655  17.544  0.00  0.00    +0.000 A 
ATOM     31  C   UNL     1       5.354   6.839  17.461  0.00  0.00    +0.000 C 
ATOM     32  C   UNL     1       3.044   7.618  18.136  0.00  0.00    +0.000 A 
ATOM     33  N   UNL     1       2.286   8.489  17.439  0.00  0.00    +0.000 NA
ATOM     34  C   UNL     1       1.319   9.172  18.107  0.00  0.00    +0.000 A 
BRANCH  34  35
ATOM     35  O   UNL     1       0.220   9.465  17.351  0.00  0.00    +0.000 OA
ATOM     36  H   UNL     1      -0.372   9.823  18.042  0.00  0.00    +0.000 HD
ENDBRANCH  34  35
ENDBRANCH  22  23
ENDBRANCH   4  22
TORSDOF 8
ENDMDL
MODEL 7
REMARK VINA RESULT:      -7.1      3.206      8.637
REMARK  Name = 
REMARK  11 active torsions:
REMARK  status: ('A' for Active; 'I' for Inactive)
REMARK    1  A    between atoms: C_1  and  O_2
REMARK    2  A    between atoms: O_2  and  C_3
REMARK    3  A    between atoms: C_8  and  N_9
REMARK    4  A    between atoms: N_12  and  C_13
REMARK    5  A    between atoms: N_12  and  C_21
REMARK    6  A    between atoms: C_13  and  C_14
REMARK    7  A    between atoms: C_14  and  N_15
REMARK    8  A    between atoms: C_21  and  C_22
REMARK    9  A    between atoms: C_26  and  C_27
REMARK   10  A    between atoms: C_29  and  C_30
REMARK   11  A    between atoms: C_33  and  O_34
REMARK                            x       y       z     vdW  Elec       q    Type
REMARK                         _______ _______ _______ _____ _____    ______ ____
ROOT
ATOM      1  N   UNL     1       0.345  10.340  19.026  0.00  0.00    +0.000 N 
ATOM      2  C   UNL     1      -0.882  10.516  18.425  0.00  0.00    +0.000 C 
ATOM      3  O   UNL     1      -1.409   9.665  17.704  0.00  0.00    +0.000 OA
ATOM      4  N   UNL     1      -1.523  11.738  18.642  0.00  0.00    +0.000 N 
ATOM      5  H   UNL     1       0.741  11.090  19.566  0.00  0.00    +0.000 HD
ENDROOT
BRANCH   1  11
ATOM      6  C   UNL     1       1.365   8.322  19.966  0.00  0.00    +0.000 A 
ATOM      7  C   UNL     1       2.314   7.293  19.902  0.00  0.00    +0.000 A 
ATOM      8  C   UNL     1       3.076   7.081  18.749  0.00  0.00    +0.000 A 
ATOM      9  C   UNL     1       2.879   7.916  17.657  0.00  0.00    +0.000 A 
ATOM     10  C   UNL     1       1.970   8.982  17.723  0.00  0.00    +0.000 A 
ATOM     11  C   UNL     1       1.215   9.223  18.873  0.00  0.00    +0.000 A 
BRANCH   6  13
ATOM     12  C   UNL     1       1.262   8.852  22.279  0.00  0.00    +0.000 C 
ATOM     13  O   UNL     1       0.558   8.562  21.066  0.00  0.00    +0.000 OA
ENDBRANCH   6  13
ENDBRANCH   1  11
BRANCH   4  14
ATOM     14  C   UNL     1      -2.817  11.960  17.943  0.00  0.00    +0.000 C 
BRANCH  14  15
ATOM     15  C   UNL     1      -4.163  11.713  18.708  0.00  0.00    +0.000 C 
BRANCH  15  16
ATOM     16  N   UNL     1      -5.293  11.334  17.809  0.00  0.00    +0.000 NA
ATOM     17  C   UNL     1      -5.807  12.490  17.028  0.00  0.00    +0.000 C 
ATOM     18  C   UNL     1      -6.659  13.485  17.843  0.00  0.00    +0.000 C 
ATOM     19  O   UNL     1      -7.751  12.830  18.500  0.00  0.00    +0.000 OA
ATOM     20  C   UNL     1      -7.271  11.770  19.336  0.00  0.00    +0.000 C 
ATOM     21  C   UNL     1      -6.454  10.752  18.524  0.00  0.00    +0.000 C 
ENDBRANCH  15  16
ENDBRANCH  14  15
ENDBRANCH   4  14
BRANCH   4  22
ATOM     22  C   UNL     1      -0.844  12.958  19.133  0.00  0.00    +0.000 C 
BRANCH  22  23
ATOM     23  C   UNL     1      -1.112  13.403  20.546  0.00  0.00    +0.000 A 
ATOM     24  C   UNL     1      -2.200  14.192  20.888  0.00  0.00    +0.000 A 
ATOM     25  C   UNL     1      -2.488  14.334  22.249  0.00  0.00    +0.000 A 
ATOM     26  C   UNL     1      -3.555  13.644  22.859  0.00  0.00    +0.000 A 
ATOM     27  C   UNL     1      -3.592  13.499  24.261  0.00  0.00    +0.000 A 
ATOM     28  C   UNL     1      -4.469  12.499  24.945  0.00  0.00    +0.000 C 
ATOM     29  C   UNL     1      -2.782  14.343  25.009  0.00  0.00    +0.000 A 
ATOM     30  C   UNL     1      -1.754  15.004  24.351  0.00  0.00    +0.000 A 
ATOM     31  C   UNL     1      -1.438  16.418  24.768  0.00  0.00    +0.000 C 
ATOM     32  C   UNL     1      -1.421  14.532  23.083  0.00  0.00    +0.000 A 
ATOM     33  N   UNL     1      -0.371  13.724  22.835  0.00  0.00    +0.000 NA
ATOM     34  C   UNL     1      -0.317  13.095  21.632  0.00  0.00    +0.000 A 
BRANCH  34  35
ATOM     35  O   UNL     1       0.287  11.870  21.669  0.00  0.00    +0.000 OA
ATOM     36  H   UNL     1       1.222  12.144  21.748  0.00  0.00    +0.000 HD
ENDBRANCH  34  35
ENDBRANCH  22  23
ENDBRANCH   4  22
TORSDOF 8
ENDMDL
MODEL 8
REMARK VINA RESULT:      -7.0      2.990      7.101
REMARK  Name = 
REMARK  11 active torsions:
REMARK  status: ('A' for Active; 'I' for Inactive)
REMARK    1  A    between atoms: C_1  and  O_2
REMARK    2  A    between atoms: O_2  and  C_3
REMARK    3  A    between atoms: C_8  and  N_9
REMARK    4  A    between atoms: N_12  and  C_13
REMARK    5  A    between atoms: N_12  and  C_21
REMARK    6  A    between atoms: C_13  and  C_14
REMARK    7  A    between atoms: C_14  and  N_15
REMARK    8  A    between atoms: C_21  and  C_22
REMARK    9  A    between atoms: C_26  and  C_27
REMARK   10  A    between atoms: C_29  and  C_30
REMARK   11  A    between atoms: C_33  and  O_34
REMARK                            x       y       z     vdW  Elec       q    Type
REMARK                         _______ _______ _______ _____ _____    ______ ____
ROOT
ATOM      1  N   UNL     1       1.215   9.242  18.689  0.00  0.00    +0.000 N 
ATOM      2  C   UNL     1       1.471   8.472  19.802  0.00  0.00    +0.000 C 
ATOM      3  O   UNL     1       1.670   8.949  20.922  0.00  0.00    +0.000 OA
ATOM      4  N   UNL     1       1.526   7.089  19.616  0.00  0.00    +0.000 N 
ATOM      5  H   UNL     1       1.106   8.794  17.795  0.00  0.00    +0.000 HD
ENDROOT
BRANCH   1  11
ATOM      6  C   UNL     1      -0.031  11.345  18.819  0.00  0.00    +0.000 A 
ATOM      7  C   UNL     1      -0.107  12.731  18.624  0.00  0.00    +0.000 A 
ATOM      8  C   UNL     1       1.030  13.482  18.308  0.00  0.00    +0.000 A 
ATOM      9  C   UNL     1       2.248  12.827  18.186  0.00  0.00    +0.000 A 
ATOM     10  C   UNL     1       2.332  11.433  18.327  0.00  0.00    +0.000 A 
ATOM     11  C   UNL     1       1.204  10.665  18.622  0.00  0.00    +0.000 A 
BRANCH   6  13
ATOM     12  C   UNL     1      -2.100  10.397  18.138  0.00  0.00    +0.000 C 
ATOM     13  O   UNL     1      -1.113  10.553  19.165  0.00  0.00    +0.000 OA
ENDBRANCH   6  13
ENDBRANCH   1  11
BRANCH   4  14
ATOM     14  C   UNL     1       1.866   6.257  20.800  0.00  0.00    +0.000 C 
BRANCH  14  15
ATOM     15  C   UNL     1       2.704   4.945  20.612  0.00  0.00    +0.000 C 
BRANCH  15  16
ATOM     16  N   UNL     1       2.023   3.727  21.141  0.00  0.00    +0.000 NA
ATOM     17  C   UNL     1       2.889   2.520  21.076  0.00  0.00    +0.000 C 
ATOM     18  C   UNL     1       3.059   1.931  19.660  0.00  0.00    +0.000 C 
ATOM     19  O   UNL     1       1.794   1.643  19.053  0.00  0.00    +0.000 OA
ATOM     20  C   UNL     1       0.975   2.818  19.018  0.00  0.00    +0.000 C 
ATOM     21  C   UNL     1       0.767   3.390  20.430  0.00  0.00    +0.000 C 
ENDBRANCH  15  16
ENDBRANCH  14  15
ENDBRANCH   4  14
BRANCH   4  22
ATOM     22  C   UNL     1       1.704   6.432  18.301  0.00  0.00    +0.000 C 
BRANCH  22  23
ATOM     23  C   UNL     1       3.102   6.095  17.856  0.00  0.00    +0.000 A 
ATOM     24  C   UNL     1       3.558   4.791  17.749  0.00  0.00    +0.000 A 
ATOM     25  C   UNL     1       4.776   4.588  17.093  0.00  0.00    +0.000 A 
ATOM     26  C   UNL     1       4.838   4.083  15.778  0.00  0.00    +0.000 A 
ATOM     27  C   UNL     1       6.011   4.246  15.015  0.00  0.00    +0.000 A 
ATOM     28  C   UNL     1       6.037   4.070  13.529  0.00  0.00    +0.000 C 
ATOM     29  C   UNL     1       7.176   4.567  15.698  0.00  0.00    +0.000 A 
ATOM     30  C   UNL     1       7.053   5.049  16.995  0.00  0.00    +0.000 A 
ATOM     31  C   UNL     1       8.086   4.626  18.010  0.00  0.00    +0.000 C 
ATOM     32  C   UNL     1       5.783   5.467  17.386  0.00  0.00    +0.000 A 
ATOM     33  N   UNL     1       5.395   6.758  17.417  0.00  0.00    +0.000 NA
ATOM     34  C   UNL     1       4.067   7.025  17.525  0.00  0.00    +0.000 A 
BRANCH  34  35
ATOM     35  O   UNL     1       3.676   8.173  16.897  0.00  0.00    +0.000 OA
ATOM     36  H   UNL     1       2.863   7.858  16.455  0.00  0.00    +0.000 HD
ENDBRANCH  34  35
ENDBRANCH  22  23
ENDBRANCH   4  22
TORSDOF 8
ENDMDL
MODEL 9
REMARK VINA RESULT:      -7.0      1.249      2.127
REMARK  Name = 
REMARK  11 active torsions:
REMARK  status: ('A' for Active; 'I' for Inactive)
REMARK    1  A    between atoms: C_1  and  O_2
REMARK    2  A    between atoms: O_2  and  C_3
REMARK    3  A    between atoms: C_8  and  N_9
REMARK    4  A    between atoms: N_12  and  C_13
REMARK    5  A    between atoms: N_12  and  C_21
REMARK    6  A    between atoms: C_13  and  C_14
REMARK    7  A    between atoms: C_14  and  N_15
REMARK    8  A    between atoms: C_21  and  C_22
REMARK    9  A    between atoms: C_26  and  C_27
REMARK   10  A    between atoms: C_29  and  C_30
REMARK   11  A    between atoms: C_33  and  O_34
REMARK                            x       y       z     vdW  Elec       q    Type
REMARK                         _______ _______ _______ _____ _____    ______ ____
ROOT
ATOM      1  N   UNL     1      -1.954  11.417  19.165  0.00  0.00    +0.000 N 
ATOM      2  C   UNL     1      -0.771  12.074  18.904  0.00  0.00    +0.000 C 
ATOM      3  O   UNL     1      -0.688  13.032  18.132  0.00  0.00    +0.000 OA
ATOM      4  N   UNL     1       0.374  11.592  19.541  0.00  0.00    +0.000 N 
ATOM      5  H   UNL     1      -1.948  10.614  19.771  0.00  0.00    +0.000 HD
ENDROOT
BRANCH   1  11
ATOM      6  C   UNL     1      -4.240  12.271  19.357  0.00  0.00    +0.000 A 
ATOM      7  C   UNL     1      -5.537  12.410  18.843  0.00  0.00    +0.000 A 
ATOM      8  C   UNL     1      -5.839  12.036  17.529  0.00  0.00    +0.000 A 
ATOM      9  C   UNL     1      -4.826  11.518  16.734  0.00  0.00    +0.000 A 
ATOM     10  C   UNL     1      -3.535  11.325  17.250  0.00  0.00    +0.000 A 
ATOM     11  C   UNL     1      -3.220  11.672  18.565  0.00  0.00    +0.000 A 
BRANCH   6  13
ATOM     12  C   UNL     1      -4.959  12.807  21.557  0.00  0.00    +0.000 C 
ATOM     13  O   UNL     1      -3.872  12.652  20.637  0.00  0.00    +0.000 OA
ENDBRANCH   6  13
ENDBRANCH   1  11
BRANCH   4  14
ATOM     14  C   UNL     1       1.664  12.255  19.213  0.00  0.00    +0.000 C 
BRANCH  14  15
ATOM     15  C   UNL     1       1.970  13.682  19.785  0.00  0.00    +0.000 C 
BRANCH  15  16
ATOM     16  N   UNL     1       1.896  13.750  21.274  0.00  0.00    +0.000 NA
ATOM     17  C   UNL     1       0.526  14.065  21.759  0.00  0.00    +0.000 C 
ATOM     18  C   UNL     1       0.104  15.537  21.572  0.00  0.00    +0.000 C 
ATOM     19  O   UNL     1       1.042  16.436  22.176  0.00  0.00    +0.000 OA
ATOM     20  C   UNL     1       2.357  16.215  21.653  0.00  0.00    +0.000 C 
ATOM     21  C   UNL     1       2.803  14.760  21.871  0.00  0.00    +0.000 C 
ENDBRANCH  15  16
ENDBRANCH  14  15
ENDBRANCH   4  14
BRANCH   4  22
ATOM     22  C   UNL     1       0.483  10.248  20.152  0.00  0.00    +0.000 C 
BRANCH  22  23
ATOM     23  C   UNL     1       1.296   9.202  19.436  0.00  0.00    +0.000 A 
ATOM     24  C   UNL     1       2.021   8.230  20.106  0.00  0.00    +0.000 A 
ATOM     25  C   UNL     1       2.529   7.170  19.348  0.00  0.00    +0.000 A 
ATOM     26  C   UNL     1       1.936   5.892  19.365  0.00  0.00    +0.000 A 
ATOM     27  C   UNL     1       2.212   4.971  18.334  0.00  0.00    +0.000 A 
ATOM     28  C   UNL     1       1.369   3.761  18.086  0.00  0.00    +0.000 C 
ATOM     29  C   UNL     1       3.328   5.217  17.545  0.00  0.00    +0.000 A 
ATOM     30  C   UNL     1       3.876   6.493  17.578  0.00  0.00    +0.000 A 
ATOM     31  C   UNL     1       5.377   6.623  17.508  0.00  0.00    +0.000 C 
ATOM     32  C   UNL     1       3.088   7.494  18.142  0.00  0.00    +0.000 A 
ATOM     33  N   UNL     1       2.369   8.377  17.420  0.00  0.00    +0.000 NA
ATOM     34  C   UNL     1       1.419   9.106  18.064  0.00  0.00    +0.000 A 
BRANCH  34  35
ATOM     35  O   UNL     1       0.339   9.423  17.290  0.00  0.00    +0.000 OA
ATOM     36  H   UNL     1       0.033  10.231  17.747  0.00  0.00    +0.000 HD
ENDBRANCH  34  35
ENDBRANCH  22  23
ENDBRANCH   4  22
TORSDOF 8
ENDMDL
