MODEL 1
REMARK VINA RESULT:      -7.8      0.000      0.000
REMARK  Name = 
REMARK  10 active torsions:
REMARK  status: ('A' for Active; 'I' for Inactive)
REMARK    1  A    between atoms: C_1  and  C_2
REMARK    2  A    between atoms: C_2  and  C_3
REMARK    3  A    between atoms: C_3  and  O_4
REMARK    4  A    between atoms: O_4  and  C_5
REMARK    5  A    between atoms: C_5  and  C_7
REMARK    6  A    between atoms: C_12  and  O_13
REMARK    7  A    between atoms: O_13  and  S_14
REMARK    8  A    between atoms: S_14  and  N_17
REMARK    9  A    between atoms: C_26  and  O_27
REMARK   10  A    between atoms: O_27  and  C_28
REMARK                            x       y       z     vdW  Elec       q    Type
REMARK                         _______ _______ _______ _____ _____    ______ ____
ROOT
ATOM      1  S   UNL     1       6.917   5.431  16.676  0.00  0.00    +0.000 S 
ATOM      2  O   UNL     1       7.266   4.111  17.150  0.00  0.00    +0.000 OA
ATOM      3  O   UNL     1       7.600   5.972  15.515  0.00  0.00    +0.000 OA
ENDROOT
BRANCH   1   4
ATOM      4  N   UNL     1       7.380   6.448  17.912  0.00  0.00    +0.000 N 
ATOM      5  C   UNL     1       7.616   7.797  17.683  0.00  0.00    +0.000 C 
ATOM      6  O   UNL     1       7.173   8.342  16.689  0.00  0.00    +0.000 OA
ATOM      7  N   UNL     1       8.383   8.367  18.657  0.00  0.00    +0.000 N 
ATOM      8  C   UNL     1       8.708   9.714  18.668  0.00  0.00    +0.000 A 
ATOM      9  N   UNL     1       9.607  10.104  19.572  0.00  0.00    +0.000 NA
ATOM     10  C   UNL     1       9.938  11.409  19.520  0.00  0.00    +0.000 A 
ATOM     11 CL   UNL     1      11.141  11.873  20.654  0.00  0.00    +0.000 Cl
ATOM     12  C   UNL     1       9.412  12.332  18.654  0.00  0.00    +0.000 A 
ATOM     13  C   UNL     1       8.477  11.820  17.804  0.00  0.00    +0.000 A 
ATOM     14  N   UNL     1       8.122  10.533  17.801  0.00  0.00    +0.000 NA
ATOM     15  H   UNL     1       7.974   5.951  18.563  0.00  0.00    +0.000 HD
ATOM     16  H   UNL     1       8.792   7.828  19.403  0.00  0.00    +0.000 HD
BRANCH  13  17
ATOM     17  O   UNL     1       7.881  12.678  16.904  0.00  0.00    +0.000 OA
ATOM     18  C   UNL     1       7.025  13.631  17.540  0.00  0.00    +0.000 C 
ENDBRANCH  13  17
ENDBRANCH   1   4
BRANCH   1  19
ATOM     19  O   UNL     1       5.289   5.503  16.463  0.00  0.00    +0.000 OA
BRANCH  19  25
ATOM     20  C   UNL     1       4.107   5.077  18.559  0.00  0.00    +0.000 A 
ATOM     21  C   UNL     1       3.189   5.566  19.525  0.00  0.00    +0.000 A 
ATOM     22  C   UNL     1       2.663   6.856  19.465  0.00  0.00    +0.000 A 
ATOM     23  C   UNL     1       3.076   7.710  18.462  0.00  0.00    +0.000 A 
ATOM     24  C   UNL     1       3.988   7.259  17.511  0.00  0.00    +0.000 A 
ATOM     25  C   UNL     1       4.479   5.932  17.501  0.00  0.00    +0.000 A 
BRANCH  20  26
ATOM     26  C   UNL     1       4.579   3.678  18.837  0.00  0.00    +0.000 C 
ATOM     27  O   UNL     1       5.495   3.454  19.620  0.00  0.00    +0.000 OA
BRANCH  26  28
ATOM     28  O   UNL     1       4.018   2.741  18.035  0.00  0.00    +0.000 OA
BRANCH  28  29
ATOM     29  C   UNL     1       3.408   1.631  18.731  0.00  0.00    +0.000 C 
BRANCH  29  31
ATOM     30  C   UNL     1       1.093   2.666  18.545  0.00  0.00    +0.000 C 
ATOM     31  C   UNL     1       2.102   1.976  19.447  0.00  0.00    +0.000 C 
ENDBRANCH  29  31
ENDBRANCH  28  29
ENDBRANCH  26  28
ENDBRANCH  20  26
ENDBRANCH  19  25
ENDBRANCH   1  19
TORSDOF 8
ENDMDL
MODEL 2
REMARK VINA RESULT:      -7.7      4.911      6.852
REMARK  Name = 
REMARK  10 active torsions:
REMARK  status: ('A' for Active; 'I' for Inactive)
REMARK    1  A    between atoms: C_1  and  C_2
REMARK    2  A    between atoms: C_2  and  C_3
REMARK    3  A    between atoms: C_3  and  O_4
REMARK    4  A    between atoms: O_4  and  C_5
REMARK    5  A    between atoms: C_5  and  C_7
REMARK    6  A    between atoms: C_12  and  O_13
REMARK    7  A    between atoms: O_13  and  S_14
REMARK    8  A    between atoms: S_14  and  N_17
REMARK    9  A    between atoms: C_26  and  O_27
REMARK   10  A    between atoms: O_27  and  C_28
REMARK                            x       y       z     vdW  Elec       q    Type
REMARK                         _______ _______ _______ _____ _____    ______ ____
ROOT
ATOM      1  S   UNL     1       2.891   4.977  18.694  0.00  0.00    +0.000 S 
ATOM      2  O   UNL     1       1.769   4.391  17.994  0.00  0.00    +0.000 OA
ATOM      3  O   UNL     1       2.925   4.930  20.144  0.00  0.00    +0.000 OA
ENDROOT
BRANCH   1   4
ATOM      4  N   UNL     1       2.781   6.605  18.357  0.00  0.00    +0.000 N 
ATOM      5  C   UNL     1       2.153   7.479  19.233  0.00  0.00    +0.000 C 
ATOM      6  O   UNL     1       1.975   7.168  20.396  0.00  0.00    +0.000 OA
ATOM      7  N   UNL     1       1.775   8.643  18.629  0.00  0.00    +0.000 N 
ATOM      8  C   UNL     1       1.173   9.687  19.314  0.00  0.00    +0.000 A 
ATOM      9  N   UNL     1       0.692  10.687  18.576  0.00  0.00    +0.000 NA
ATOM     10  C   UNL     1       0.069  11.658  19.271  0.00  0.00    +0.000 A 
ATOM     11 CL   UNL     1      -0.594  12.906  18.293  0.00  0.00    +0.000 Cl
ATOM     12  C   UNL     1      -0.073  11.700  20.633  0.00  0.00    +0.000 A 
ATOM     13  C   UNL     1       0.492  10.641  21.280  0.00  0.00    +0.000 A 
ATOM     14  N   UNL     1       1.108   9.643  20.641  0.00  0.00    +0.000 NA
ATOM     15  H   UNL     1       2.668   6.744  17.361  0.00  0.00    +0.000 HD
ATOM     16  H   UNL     1       1.873   8.791  17.638  0.00  0.00    +0.000 HD
BRANCH  13  17
ATOM     17  O   UNL     1       0.412  10.603  22.655  0.00  0.00    +0.000 OA
ATOM     18  C   UNL     1      -0.676   9.797  23.118  0.00  0.00    +0.000 C 
ENDBRANCH  13  17
ENDBRANCH   1   4
BRANCH   1  19
ATOM     19  O   UNL     1       4.281   4.361  18.071  0.00  0.00    +0.000 OA
BRANCH  19  25
ATOM     20  C   UNL     1       5.990   5.750  17.010  0.00  0.00    +0.000 A 
ATOM     21  C   UNL     1       7.246   6.396  17.145  0.00  0.00    +0.000 A 
ATOM     22  C   UNL     1       7.946   6.418  18.351  0.00  0.00    +0.000 A 
ATOM     23  C   UNL     1       7.387   5.832  19.470  0.00  0.00    +0.000 A 
ATOM     24  C   UNL     1       6.148   5.205  19.367  0.00  0.00    +0.000 A 
ATOM     25  C   UNL     1       5.450   5.100  18.141  0.00  0.00    +0.000 A 
BRANCH  20  26
ATOM     26  C   UNL     1       5.391   5.885  15.639  0.00  0.00    +0.000 C 
ATOM     27  O   UNL     1       5.060   6.975  15.188  0.00  0.00    +0.000 OA
BRANCH  26  28
ATOM     28  O   UNL     1       5.113   4.698  15.044  0.00  0.00    +0.000 OA
BRANCH  28  29
ATOM     29  C   UNL     1       6.270   3.947  14.617  0.00  0.00    +0.000 C 
BRANCH  29  31
ATOM     30  C   UNL     1       5.657   3.214  12.260  0.00  0.00    +0.000 C 
ATOM     31  C   UNL     1       6.579   4.058  13.123  0.00  0.00    +0.000 C 
ENDBRANCH  29  31
ENDBRANCH  28  29
ENDBRANCH  26  28
ENDBRANCH  20  26
ENDBRANCH  19  25
ENDBRANCH   1  19
TORSDOF 8
ENDMDL
MODEL 3
REMARK VINA RESULT:      -7.6      1.741      3.271
REMARK  Name = 
REMARK  10 active torsions:
REMARK  status: ('A' for Active; 'I' for Inactive)
REMARK    1  A    between atoms: C_1  and  C_2
REMARK    2  A    between atoms: C_2  and  C_3
REMARK    3  A    between atoms: C_3  and  O_4
REMARK    4  A    between atoms: O_4  and  C_5
REMARK    5  A    between atoms: C_5  and  C_7
REMARK    6  A    between atoms: C_12  and  O_13
REMARK    7  A    between atoms: O_13  and  S_14
REMARK    8  A    between atoms: S_14  and  N_17
REMARK    9  A    between atoms: C_26  and  O_27
REMARK   10  A    between atoms: O_27  and  C_28
REMARK                            x       y       z     vdW  Elec       q    Type
REMARK                         _______ _______ _______ _____ _____    ______ ____
ROOT
ATOM      1  S   UNL     1       6.781   5.679  17.161  0.00  0.00    +0.000 S 
ATOM      2  O   UNL     1       6.733   4.402  17.837  0.00  0.00    +0.000 OA
ATOM      3  O   UNL     1       7.595   5.819  15.967  0.00  0.00    +0.000 OA
ENDROOT
BRANCH   1   4
ATOM      4  N   UNL     1       7.515   6.698  18.257  0.00  0.00    +0.000 N 
ATOM      5  C   UNL     1       7.722   8.038  17.964  0.00  0.00    +0.000 C 
ATOM      6  O   UNL     1       7.089   8.583  17.078  0.00  0.00    +0.000 OA
ATOM      7  N   UNL     1       8.688   8.601  18.746  0.00  0.00    +0.000 N 
ATOM      8  C   UNL     1       9.033   9.942  18.669  0.00  0.00    +0.000 A 
ATOM      9  N   UNL     1      10.110  10.321  19.357  0.00  0.00    +0.000 NA
ATOM     10  C   UNL     1      10.447  11.618  19.218  0.00  0.00    +0.000 A 
ATOM     11 CL   UNL     1      11.871  12.068  20.066  0.00  0.00    +0.000 Cl
ATOM     12  C   UNL     1       9.767  12.543  18.470  0.00  0.00    +0.000 A 
ATOM     13  C   UNL     1       8.664  12.044  17.844  0.00  0.00    +0.000 A 
ATOM     14  N   UNL     1       8.293  10.764  17.934  0.00  0.00    +0.000 NA
ATOM     15  H   UNL     1       8.223   6.194  18.775  0.00  0.00    +0.000 HD
ATOM     16  H   UNL     1       9.235   8.062  19.396  0.00  0.00    +0.000 HD
BRANCH  13  17
ATOM     17  O   UNL     1       7.907  12.905  17.078  0.00  0.00    +0.000 OA
ATOM     18  C   UNL     1       7.505  14.072  17.802  0.00  0.00    +0.000 C 
ENDBRANCH  13  17
ENDBRANCH   1   4
BRANCH   1  19
ATOM     19  O   UNL     1       5.244   6.177  16.864  0.00  0.00    +0.000 OA
BRANCH  19  25
ATOM     20  C   UNL     1       3.098   5.769  17.960  0.00  0.00    +0.000 A 
ATOM     21  C   UNL     1       2.104   4.817  18.307  0.00  0.00    +0.000 A 
ATOM     22  C   UNL     1       2.161   3.492  17.875  0.00  0.00    +0.000 A 
ATOM     23  C   UNL     1       3.190   3.093  17.046  0.00  0.00    +0.000 A 
ATOM     24  C   UNL     1       4.170   4.012  16.679  0.00  0.00    +0.000 A 
ATOM     25  C   UNL     1       4.181   5.341  17.163  0.00  0.00    +0.000 A 
BRANCH  20  26
ATOM     26  C   UNL     1       2.821   7.146  18.493  0.00  0.00    +0.000 C 
ATOM     27  O   UNL     1       2.553   7.334  19.674  0.00  0.00    +0.000 OA
BRANCH  26  28
ATOM     28  O   UNL     1       2.737   8.099  17.533  0.00  0.00    +0.000 OA
BRANCH  28  29
ATOM     29  C   UNL     1       2.170   9.354  17.969  0.00  0.00    +0.000 C 
BRANCH  29  31
ATOM     30  C   UNL     1       0.020  10.263  18.977  0.00  0.00    +0.000 C 
ATOM     31  C   UNL     1       0.645   9.424  17.876  0.00  0.00    +0.000 C 
ENDBRANCH  29  31
ENDBRANCH  28  29
ENDBRANCH  26  28
ENDBRANCH  20  26
ENDBRANCH  19  25
ENDBRANCH   1  19
TORSDOF 8
ENDMDL
MODEL 4
REMARK VINA RESULT:      -7.5      6.526      9.171
REMARK  Name = 
REMARK  10 active torsions:
REMARK  status: ('A' for Active; 'I' for Inactive)
REMARK    1  A    between atoms: C_1  and  C_2
REMARK    2  A    between atoms: C_2  and  C_3
REMARK    3  A    between atoms: C_3  and  O_4
REMARK    4  A    between atoms: O_4  and  C_5
REMARK    5  A    between atoms: C_5  and  C_7
REMARK    6  A    between atoms: C_12  and  O_13
REMARK    7  A    between atoms: O_13  and  S_14
REMARK    8  A    between atoms: S_14  and  N_17
REMARK    9  A    between atoms: C_26  and  O_27
REMARK   10  A    between atoms: O_27  and  C_28
REMARK                            x       y       z     vdW  Elec       q    Type
REMARK                         _______ _______ _______ _____ _____    ______ ____
ROOT
ATOM      1  S   UNL     1       0.639   9.651  21.944  0.00  0.00    +0.000 S 
ATOM      2  O   UNL     1       1.793   9.380  22.770  0.00  0.00    +0.000 OA
ATOM      3  O   UNL     1      -0.579   8.890  22.153  0.00  0.00    +0.000 OA
ENDROOT
BRANCH   1   4
ATOM      4  N   UNL     1       1.118   9.209  20.410  0.00  0.00    +0.000 N 
ATOM      5  C   UNL     1       1.627   7.943  20.154  0.00  0.00    +0.000 C 
ATOM      6  O   UNL     1       1.424   7.026  20.928  0.00  0.00    +0.000 OA
ATOM      7  N   UNL     1       2.352   7.895  18.998  0.00  0.00    +0.000 N 
ATOM      8  C   UNL     1       2.917   6.727  18.511  0.00  0.00    +0.000 A 
ATOM      9  N   UNL     1       3.747   6.851  17.477  0.00  0.00    +0.000 NA
ATOM     10  C   UNL     1       4.317   5.703  17.063  0.00  0.00    +0.000 A 
ATOM     11 CL   UNL     1       5.428   5.899  15.767  0.00  0.00    +0.000 Cl
ATOM     12  C   UNL     1       4.088   4.461  17.594  0.00  0.00    +0.000 A 
ATOM     13  C   UNL     1       3.193   4.458  18.622  0.00  0.00    +0.000 A 
ATOM     14  N   UNL     1       2.610   5.567  19.084  0.00  0.00    +0.000 NA
ATOM     15  H   UNL     1       1.520  10.004  19.931  0.00  0.00    +0.000 HD
ATOM     16  H   UNL     1       2.554   8.719  18.457  0.00  0.00    +0.000 HD
BRANCH  13  17
ATOM     17  O   UNL     1       2.887   3.250  19.213  0.00  0.00    +0.000 OA
ATOM     18  C   UNL     1       1.479   3.068  19.390  0.00  0.00    +0.000 C 
ENDBRANCH  13  17
ENDBRANCH   1   4
BRANCH   1  19
ATOM     19  O   UNL     1       0.320  11.262  21.995  0.00  0.00    +0.000 OA
BRANCH  19  25
ATOM     20  C   UNL     1      -1.589  12.156  20.758  0.00  0.00    +0.000 A 
ATOM     21  C   UNL     1      -2.902  12.691  20.825  0.00  0.00    +0.000 A 
ATOM     22  C   UNL     1      -3.614  12.767  22.022  0.00  0.00    +0.000 A 
ATOM     23  C   UNL     1      -3.049  12.269  23.179  0.00  0.00    +0.000 A 
ATOM     24  C   UNL     1      -1.768  11.725  23.136  0.00  0.00    +0.000 A 
ATOM     25  C   UNL     1      -0.992  11.704  21.954  0.00  0.00    +0.000 A 
BRANCH  20  26
ATOM     26  C   UNL     1      -1.024  12.128  19.366  0.00  0.00    +0.000 C 
ATOM     27  O   UNL     1      -0.859  13.156  18.720  0.00  0.00    +0.000 OA
BRANCH  26  28
ATOM     28  O   UNL     1      -0.879  10.879  18.859  0.00  0.00    +0.000 OA
BRANCH  28  29
ATOM     29  C   UNL     1      -2.064  10.333  18.238  0.00  0.00    +0.000 C 
BRANCH  29  31
ATOM     30  C   UNL     1      -2.792   9.861  15.848  0.00  0.00    +0.000 C 
ATOM     31  C   UNL     1      -2.380  10.916  16.860  0.00  0.00    +0.000 C 
ENDBRANCH  29  31
ENDBRANCH  28  29
ENDBRANCH  26  28
ENDBRANCH  20  26
ENDBRANCH  19  25
ENDBRANCH   1  19
TORSDOF 8
ENDMDL
MODEL 5
REMARK VINA RESULT:      -7.5      1.167      1.409
REMARK  Name = 
REMARK  10 active torsions:
REMARK  status: ('A' for Active; 'I' for Inactive)
REMARK    1  A    between atoms: C_1  and  C_2
REMARK    2  A    between atoms: C_2  and  C_3
REMARK    3  A    between atoms: C_3  and  O_4
REMARK    4  A    between atoms: O_4  and  C_5
REMARK    5  A    between atoms: C_5  and  C_7
REMARK    6  A    between atoms: C_12  and  O_13
REMARK    7  A    between atoms: O_13  and  S_14
REMARK    8  A    between atoms: S_14  and  N_17
REMARK    9  A    between atoms: C_26  and  O_27
REMARK   10  A    between atoms: O_27  and  C_28
REMARK                            x       y       z     vdW  Elec       q    Type
REMARK                         _______ _______ _______ _____ _____    ______ ____
ROOT
ATOM      1  S   UNL     1       7.103   5.279  17.291  0.00  0.00    +0.000 S 
ATOM      2  O   UNL     1       8.227   4.403  17.041  0.00  0.00    +0.000 OA
ATOM      3  O   UNL     1       6.587   6.098  16.209  0.00  0.00    +0.000 OA
ENDROOT
BRANCH   1   4
ATOM      4  N   UNL     1       7.686   6.394  18.383  0.00  0.00    +0.000 N 
ATOM      5  C   UNL     1       7.827   7.731  18.038  0.00  0.00    +0.000 C 
ATOM      6  O   UNL     1       7.227   8.190  17.084  0.00  0.00    +0.000 OA
ATOM      7  N   UNL     1       8.694   8.394  18.858  0.00  0.00    +0.000 N 
ATOM      8  C   UNL     1       8.957   9.750  18.739  0.00  0.00    +0.000 A 
ATOM      9  N   UNL     1       9.952  10.232  19.481  0.00  0.00    +0.000 NA
ATOM     10  C   UNL     1      10.214  11.542  19.301  0.00  0.00    +0.000 A 
ATOM     11 CL   UNL     1      11.539  12.126  20.225  0.00  0.00    +0.000 Cl
ATOM     12  C   UNL     1       9.533  12.383  18.461  0.00  0.00    +0.000 A 
ATOM     13  C   UNL     1       8.514  11.782  17.784  0.00  0.00    +0.000 A 
ATOM     14  N   UNL     1       8.221  10.485  17.911  0.00  0.00    +0.000 NA
ATOM     15  H   UNL     1       8.385   5.965  18.975  0.00  0.00    +0.000 HD
ATOM     16  H   UNL     1       9.225   7.923  19.571  0.00  0.00    +0.000 HD
BRANCH  13  17
ATOM     17  O   UNL     1       7.762  12.553  16.924  0.00  0.00    +0.000 OA
ATOM     18  C   UNL     1       7.190  13.694  17.570  0.00  0.00    +0.000 C 
ENDBRANCH  13  17
ENDBRANCH   1   4
BRANCH   1  19
ATOM     19  O   UNL     1       5.891   4.401  17.968  0.00  0.00    +0.000 OA
BRANCH  19  25
ATOM     20  C   UNL     1       3.466   4.116  18.074  0.00  0.00    +0.000 A 
ATOM     21  C   UNL     1       2.194   4.744  18.039  0.00  0.00    +0.000 A 
ATOM     22  C   UNL     1       2.050   6.130  17.986  0.00  0.00    +0.000 A 
ATOM     23  C   UNL     1       3.176   6.930  18.013  0.00  0.00    +0.000 A 
ATOM     24  C   UNL     1       4.435   6.337  18.063  0.00  0.00    +0.000 A 
ATOM     25  C   UNL     1       4.615   4.934  18.039  0.00  0.00    +0.000 A 
BRANCH  20  26
ATOM     26  C   UNL     1       3.391   2.618  18.173  0.00  0.00    +0.000 C 
ATOM     27  O   UNL     1       3.717   1.897  17.238  0.00  0.00    +0.000 OA
BRANCH  26  28
ATOM     28  O   UNL     1       2.790   2.174  19.304  0.00  0.00    +0.000 OA
BRANCH  28  29
ATOM     29  C   UNL     1       3.472   2.518  20.531  0.00  0.00    +0.000 C 
BRANCH  29  31
ATOM     30  C   UNL     1       1.156   2.778  21.547  0.00  0.00    +0.000 C 
ATOM     31  C   UNL     1       2.601   3.246  21.555  0.00  0.00    +0.000 C 
ENDBRANCH  29  31
ENDBRANCH  28  29
ENDBRANCH  26  28
ENDBRANCH  20  26
ENDBRANCH  19  25
ENDBRANCH   1  19
TORSDOF 8
ENDMDL
MODEL 6
REMARK VINA RESULT:      -7.4      1.791      2.481
REMARK  Name = 
REMARK  10 active torsions:
REMARK  status: ('A' for Active; 'I' for Inactive)
REMARK    1  A    between atoms: C_1  and  C_2
REMARK    2  A    between atoms: C_2  and  C_3
REMARK    3  A    between atoms: C_3  and  O_4
REMARK    4  A    between atoms: O_4  and  C_5
REMARK    5  A    between atoms: C_5  and  C_7
REMARK    6  A    between atoms: C_12  and  O_13
REMARK    7  A    between atoms: O_13  and  S_14
REMARK    8  A    between atoms: S_14  and  N_17
REMARK    9  A    between atoms: C_26  and  O_27
REMARK   10  A    between atoms: O_27  and  C_28
REMARK                            x       y       z     vdW  Elec       q    Type
REMARK                         _______ _______ _______ _____ _____    ______ ____
ROOT
ATOM      1  S   UNL     1       7.394   6.150  17.773  0.00  0.00    +0.000 S 
ATOM      2  O   UNL     1       7.719   4.888  18.399  0.00  0.00    +0.000 OA
ATOM      3  O   UNL     1       7.875   6.422  16.431  0.00  0.00    +0.000 OA
ENDROOT
BRANCH   1   4
ATOM      4  N   UNL     1       8.177   7.286  18.707  0.00  0.00    +0.000 N 
ATOM      5  C   UNL     1       8.225   8.620  18.327  0.00  0.00    +0.000 C 
ATOM      6  O   UNL     1       7.433   9.060  17.514  0.00  0.00    +0.000 OA
ATOM      7  N   UNL     1       9.235   9.303  18.940  0.00  0.00    +0.000 N 
ATOM      8  C   UNL     1       9.449  10.660  18.753  0.00  0.00    +0.000 A 
ATOM      9  N   UNL     1      10.571  11.163  19.265  0.00  0.00    +0.000 NA
ATOM     10  C   UNL     1      10.772  12.472  19.021  0.00  0.00    +0.000 A 
ATOM     11 CL   UNL     1      12.253  13.083  19.640  0.00  0.00    +0.000 Cl
ATOM     12  C   UNL     1       9.919  13.296  18.333  0.00  0.00    +0.000 A 
ATOM     13  C   UNL     1       8.789  12.674  17.891  0.00  0.00    +0.000 A 
ATOM     14  N   UNL     1       8.546  11.376  18.091  0.00  0.00    +0.000 NA
ATOM     15  H   UNL     1       8.990   6.872  19.144  0.00  0.00    +0.000 HD
ATOM     16  H   UNL     1       9.910   8.847  19.531  0.00  0.00    +0.000 HD
BRANCH  13  17
ATOM     17  O   UNL     1       7.864  13.426  17.199  0.00  0.00    +0.000 OA
ATOM     18  C   UNL     1       7.304  14.474  17.997  0.00  0.00    +0.000 C 
ENDBRANCH  13  17
ENDBRANCH   1   4
BRANCH   1  19
ATOM     19  O   UNL     1       5.768   6.375  17.852  0.00  0.00    +0.000 OA
BRANCH  19  25
ATOM     20  C   UNL     1       3.641   5.183  18.026  0.00  0.00    +0.000 A 
ATOM     21  C   UNL     1       2.875   4.057  17.626  0.00  0.00    +0.000 A 
ATOM     22  C   UNL     1       3.334   3.145  16.676  0.00  0.00    +0.000 A 
ATOM     23  C   UNL     1       4.554   3.357  16.066  0.00  0.00    +0.000 A 
ATOM     24  C   UNL     1       5.318   4.463  16.431  0.00  0.00    +0.000 A 
ATOM     25  C   UNL     1       4.915   5.362  17.445  0.00  0.00    +0.000 A 
BRANCH  20  26
ATOM     26  C   UNL     1       2.942   6.058  19.027  0.00  0.00    +0.000 C 
ATOM     27  O   UNL     1       2.514   7.165  18.721  0.00  0.00    +0.000 OA
BRANCH  26  28
ATOM     28  O   UNL     1       2.981   5.581  20.295  0.00  0.00    +0.000 OA
BRANCH  28  29
ATOM     29  C   UNL     1       1.689   5.340  20.894  0.00  0.00    +0.000 C 
BRANCH  29  31
ATOM     30  C   UNL     1       1.732   2.876  21.523  0.00  0.00    +0.000 C 
ATOM     31  C   UNL     1       1.121   3.944  20.632  0.00  0.00    +0.000 C 
ENDBRANCH  29  31
ENDBRANCH  28  29
ENDBRANCH  26  28
ENDBRANCH  20  26
ENDBRANCH  19  25
ENDBRANCH   1  19
TORSDOF 8
ENDMDL
MODEL 7
REMARK VINA RESULT:      -7.3      6.424      8.987
REMARK  Name = 
REMARK  10 active torsions:
REMARK  status: ('A' for Active; 'I' for Inactive)
REMARK    1  A    between atoms: C_1  and  C_2
REMARK    2  A    between atoms: C_2  and  C_3
REMARK    3  A    between atoms: C_3  and  O_4
REMARK    4  A    between atoms: O_4  and  C_5
REMARK    5  A    between atoms: C_5  and  C_7
REMARK    6  A    between atoms: C_12  and  O_13
REMARK    7  A    between atoms: O_13  and  S_14
REMARK    8  A    between atoms: S_14  and  N_17
REMARK    9  A    between atoms: C_26  and  O_27
REMARK   10  A    between atoms: O_27  and  C_28
REMARK                            x       y       z     vdW  Elec       q    Type
REMARK                         _______ _______ _______ _____ _____    ______ ____
ROOT
ATOM      1  S   UNL     1       0.736   9.030  21.508  0.00  0.00    +0.000 S 
ATOM      2  O   UNL     1       1.268   9.662  22.695  0.00  0.00    +0.000 OA
ATOM      3  O   UNL     1      -0.661   8.639  21.478  0.00  0.00    +0.000 OA
ENDROOT
BRANCH   1   4
ATOM      4  N   UNL     1       1.551   7.580  21.413  0.00  0.00    +0.000 N 
ATOM      5  C   UNL     1       2.160   7.175  20.234  0.00  0.00    +0.000 C 
ATOM      6  O   UNL     1       2.417   7.983  19.360  0.00  0.00    +0.000 OA
ATOM      7  N   UNL     1       2.388   5.829  20.199  0.00  0.00    +0.000 N 
ATOM      8  C   UNL     1       3.030   5.201  19.142  0.00  0.00    +0.000 A 
ATOM      9  N   UNL     1       3.027   3.869  19.150  0.00  0.00    +0.000 NA
ATOM     10  C   UNL     1       3.614   3.292  18.083  0.00  0.00    +0.000 A 
ATOM     11 CL   UNL     1       3.545   1.575  18.087  0.00  0.00    +0.000 Cl
ATOM     12  C   UNL     1       4.214   3.957  17.046  0.00  0.00    +0.000 A 
ATOM     13  C   UNL     1       4.185   5.314  17.170  0.00  0.00    +0.000 A 
ATOM     14  N   UNL     1       3.604   5.939  18.198  0.00  0.00    +0.000 NA
ATOM     15  H   UNL     1       1.092   6.888  21.990  0.00  0.00    +0.000 HD
ATOM     16  H   UNL     1       2.063   5.211  20.922  0.00  0.00    +0.000 HD
BRANCH  13  17
ATOM     17  O   UNL     1       4.778   6.069  16.181  0.00  0.00    +0.000 OA
ATOM     18  C   UNL     1       5.594   5.282  15.307  0.00  0.00    +0.000 C 
ENDBRANCH  13  17
ENDBRANCH   1   4
BRANCH   1  19
ATOM     19  O   UNL     1       1.092   9.968  20.206  0.00  0.00    +0.000 OA
BRANCH  19  25
ATOM     20  C   UNL     1      -0.462  11.829  19.900  0.00  0.00    +0.000 A 
ATOM     21  C   UNL     1      -1.579  12.338  19.187  0.00  0.00    +0.000 A 
ATOM     22  C   UNL     1      -2.148  11.657  18.111  0.00  0.00    +0.000 A 
ATOM     23  C   UNL     1      -1.587  10.468  17.689  0.00  0.00    +0.000 A 
ATOM     24  C   UNL     1      -0.481   9.955  18.363  0.00  0.00    +0.000 A 
ATOM     25  C   UNL     1       0.070  10.584  19.504  0.00  0.00    +0.000 A 
BRANCH  20  26
ATOM     26  C   UNL     1       0.018  12.742  20.992  0.00  0.00    +0.000 C 
ATOM     27  O   UNL     1       1.181  12.726  21.377  0.00  0.00    +0.000 OA
BRANCH  26  28
ATOM     28  O   UNL     1      -0.974  13.440  21.597  0.00  0.00    +0.000 OA
BRANCH  28  29
ATOM     29  C   UNL     1      -1.256  13.042  22.958  0.00  0.00    +0.000 C 
BRANCH  29  31
ATOM     30  C   UNL     1      -3.509  12.382  23.933  0.00  0.00    +0.000 C 
ATOM     31  C   UNL     1      -2.322  11.953  23.089  0.00  0.00    +0.000 C 
ENDBRANCH  29  31
ENDBRANCH  28  29
ENDBRANCH  26  28
ENDBRANCH  20  26
ENDBRANCH  19  25
ENDBRANCH   1  19
TORSDOF 8
ENDMDL
MODEL 8
REMARK VINA RESULT:      -7.2      4.312      6.876
REMARK  Name = 
REMARK  10 active torsions:
REMARK  status: ('A' for Active; 'I' for Inactive)
REMARK    1  A    between atoms: C_1  and  C_2
REMARK    2  A    between atoms: C_2  and  C_3
REMARK    3  A    between atoms: C_3  and  O_4
REMARK    4  A    between atoms: O_4  and  C_5
REMARK    5  A    between atoms: C_5  and  C_7
REMARK    6  A    between atoms: C_12  and  O_13
REMARK    7  A    between atoms: O_13  and  S_14
REMARK    8  A    between atoms: S_14  and  N_17
REMARK    9  A    between atoms: C_26  and  O_27
REMARK   10  A    between atoms: O_27  and  C_28
REMARK                            x       y       z     vdW  Elec       q    Type
REMARK                         _______ _______ _______ _____ _____    ______ ____
ROOT
ATOM      1  S   UNL     1       4.210   4.314  18.181  0.00  0.00    +0.000 S 
ATOM      2  O   UNL     1       3.714   3.058  17.663  0.00  0.00    +0.000 OA
ATOM      3  O   UNL     1       5.365   4.312  19.060  0.00  0.00    +0.000 OA
ENDROOT
BRANCH   1   4
ATOM      4  N   UNL     1       2.978   4.873  19.154  0.00  0.00    +0.000 N 
ATOM      5  C   UNL     1       2.636   6.218  19.179  0.00  0.00    +0.000 C 
ATOM      6  O   UNL     1       2.969   6.957  18.271  0.00  0.00    +0.000 OA
ATOM      7  N   UNL     1       1.943   6.560  20.303  0.00  0.00    +0.000 N 
ATOM      8  C   UNL     1       1.453   7.838  20.526  0.00  0.00    +0.000 A 
ATOM      9  N   UNL     1       0.955   8.083  21.737  0.00  0.00    +0.000 NA
ATOM     10  C   UNL     1       0.535   9.348  21.935  0.00  0.00    +0.000 A 
ATOM     11 CL   UNL     1      -0.048   9.654  23.522  0.00  0.00    +0.000 Cl
ATOM     12  C   UNL     1       0.560  10.352  21.003  0.00  0.00    +0.000 A 
ATOM     13  C   UNL     1       1.057   9.969  19.793  0.00  0.00    +0.000 A 
ATOM     14  N   UNL     1       1.501   8.734  19.546  0.00  0.00    +0.000 NA
ATOM     15  H   UNL     1       2.954   4.345  20.017  0.00  0.00    +0.000 HD
ATOM     16  H   UNL     1       1.786   5.911  21.056  0.00  0.00    +0.000 HD
BRANCH  13  17
ATOM     17  O   UNL     1       1.108  10.909  18.786  0.00  0.00    +0.000 OA
ATOM     18  C   UNL     1       0.322  12.069  19.079  0.00  0.00    +0.000 C 
ENDBRANCH  13  17
ENDBRANCH   1   4
BRANCH   1  19
ATOM     19  O   UNL     1       4.453   5.344  16.924  0.00  0.00    +0.000 OA
BRANCH  19  25
ATOM     20  C   UNL     1       6.647   5.307  15.849  0.00  0.00    +0.000 A 
ATOM     21  C   UNL     1       7.395   4.975  14.690  0.00  0.00    +0.000 A 
ATOM     22  C   UNL     1       6.825   4.319  13.599  0.00  0.00    +0.000 A 
ATOM     23  C   UNL     1       5.500   3.936  13.656  0.00  0.00    +0.000 A 
ATOM     24  C   UNL     1       4.748   4.237  14.789  0.00  0.00    +0.000 A 
ATOM     25  C   UNL     1       5.278   4.968  15.878  0.00  0.00    +0.000 A 
BRANCH  20  26
ATOM     26  C   UNL     1       7.465   5.971  16.920  0.00  0.00    +0.000 C 
ATOM     27  O   UNL     1       7.964   5.328  17.836  0.00  0.00    +0.000 OA
BRANCH  26  28
ATOM     28  O   UNL     1       7.453   7.325  16.858  0.00  0.00    +0.000 OA
BRANCH  28  29
ATOM     29  C   UNL     1       7.983   7.991  18.026  0.00  0.00    +0.000 C 
BRANCH  29  31
ATOM     30  C   UNL     1       9.167  10.114  18.773  0.00  0.00    +0.000 C 
ATOM     31  C   UNL     1       8.085   9.511  17.894  0.00  0.00    +0.000 C 
ENDBRANCH  29  31
ENDBRANCH  28  29
ENDBRANCH  26  28
ENDBRANCH  20  26
ENDBRANCH  19  25
ENDBRANCH   1  19
TORSDOF 8
ENDMDL
MODEL 9
REMARK VINA RESULT:      -7.2      5.960      8.825
REMARK  Name = 
REMARK  10 active torsions:
REMARK  status: ('A' for Active; 'I' for Inactive)
REMARK    1  A    between atoms: C_1  and  C_2
REMARK    2  A    between atoms: C_2  and  C_3
REMARK    3  A    between atoms: C_3  and  O_4
REMARK    4  A    between atoms: O_4  and  C_5
REMARK    5  A    between atoms: C_5  and  C_7
REMARK    6  A    between atoms: C_12  and  O_13
REMARK    7  A    between atoms: O_13  and  S_14
REMARK    8  A    between atoms: S_14  and  N_17
REMARK    9  A    between atoms: C_26  and  O_27
REMARK   10  A    between atoms: O_27  and  C_28
REMARK                            x       y       z     vdW  Elec       q    Type
REMARK                         _______ _______ _______ _____ _____    ______ ____
ROOT
ATOM      1  S   UNL     1       0.844   8.943  21.335  0.00  0.00    +0.000 S 
ATOM      2  O   UNL     1       1.461   9.704  22.398  0.00  0.00    +0.000 OA
ATOM      3  O   UNL     1      -0.547   8.545  21.461  0.00  0.00    +0.000 OA
ENDROOT
BRANCH   1   4
ATOM      4  N   UNL     1       1.667   7.494  21.335  0.00  0.00    +0.000 N 
ATOM      5  C   UNL     1       2.244   6.995  20.176  0.00  0.00    +0.000 C 
ATOM      6  O   UNL     1       2.469   7.730  19.231  0.00  0.00    +0.000 OA
ATOM      7  N   UNL     1       2.481   5.653  20.245  0.00  0.00    +0.000 N 
ATOM      8  C   UNL     1       3.097   4.943  19.225  0.00  0.00    +0.000 A 
ATOM      9  N   UNL     1       3.104   3.616  19.342  0.00  0.00    +0.000 NA
ATOM     10  C   UNL     1       3.664   2.956  18.310  0.00  0.00    +0.000 A 
ATOM     11 CL   UNL     1       3.608   1.245  18.457  0.00  0.00    +0.000 Cl
ATOM     12  C   UNL     1       4.229   3.536  17.204  0.00  0.00    +0.000 A 
ATOM     13  C   UNL     1       4.193   4.899  17.217  0.00  0.00    +0.000 A 
ATOM     14  N   UNL     1       3.637   5.603  18.206  0.00  0.00    +0.000 NA
ATOM     15  H   UNL     1       1.230   6.849  21.981  0.00  0.00    +0.000 HD
ATOM     16  H   UNL     1       2.182   5.094  21.026  0.00  0.00    +0.000 HD
BRANCH  13  17
ATOM     17  O   UNL     1       4.751   5.572  16.151  0.00  0.00    +0.000 OA
ATOM     18  C   UNL     1       5.037   6.940  16.458  0.00  0.00    +0.000 C 
ENDBRANCH  13  17
ENDBRANCH   1   4
BRANCH   1  19
ATOM     19  O   UNL     1       1.084   9.731  19.913  0.00  0.00    +0.000 OA
BRANCH  19  25
ATOM     20  C   UNL     1      -0.556  11.540  19.800  0.00  0.00    +0.000 A 
ATOM     21  C   UNL     1      -1.711  12.057  19.158  0.00  0.00    +0.000 A 
ATOM     22  C   UNL     1      -2.277  11.445  18.039  0.00  0.00    +0.000 A 
ATOM     23  C   UNL     1      -1.676  10.322  17.505  0.00  0.00    +0.000 A 
ATOM     24  C   UNL     1      -0.533   9.804  18.108  0.00  0.00    +0.000 A 
ATOM     25  C   UNL     1       0.019  10.358  19.288  0.00  0.00    +0.000 A 
BRANCH  20  26
ATOM     26  C   UNL     1      -0.089  12.377  20.957  0.00  0.00    +0.000 C 
ATOM     27  O   UNL     1      -0.858  12.737  21.840  0.00  0.00    +0.000 OA
BRANCH  26  28
ATOM     28  O   UNL     1       1.189  12.814  20.836  0.00  0.00    +0.000 OA
BRANCH  28  29
ATOM     29  C   UNL     1       1.367  13.931  19.936  0.00  0.00    +0.000 C 
BRANCH  29  31
ATOM     30  C   UNL     1       2.536  12.694  18.047  0.00  0.00    +0.000 C 
ATOM     31  C   UNL     1       2.608  13.834  19.047  0.00  0.00    +0.000 C 
ENDBRANCH  29  31
ENDBRANCH  28  29
ENDBRANCH  26  28
ENDBRANCH  20  26
ENDBRANCH  19  25
ENDBRANCH   1  19
TORSDOF 8
ENDMDL
