MODEL 1
REMARK VINA RESULT:      -6.8      0.000      0.000
REMARK  Name = 
REMARK  5 active torsions:
REMARK  status: ('A' for Active; 'I' for Inactive)
REMARK    1  A    between atoms: C_2  and  O_3
REMARK    2  A    between atoms: C_2  and  C_4
REMARK    3  A    between atoms: C_4  and  C_5
REMARK    4  A    between atoms: C_10  and  C_11
REMARK    5  A    between atoms: N_21  and  C_22
REMARK                            x       y       z     vdW  Elec       q    Type
REMARK                         _______ _______ _______ _____ _____    ______ ____
ROOT
ATOM      1  C   UNL     1       1.847   7.799  19.430  0.00  0.00    +0.000 C 
ATOM      2  O   UNL     1       2.340   7.168  20.372  0.00  0.00    +0.000 OA
ATOM      3  N   UNL     1       1.047   8.912  19.675  0.00  0.00    +0.000 N 
ATOM      4  C   UNL     1       1.147   9.467  21.029  0.00  0.00    +0.000 C 
ATOM      5  C   UNL     1      -0.127  10.155  21.485  0.00  0.00    +0.000 C 
ATOM      6  C   UNL     1      -0.587  11.222  20.471  0.00  0.00    +0.000 C 
ATOM      7  C   UNL     1      -0.883  10.456  19.170  0.00  0.00    +0.000 C 
ATOM      8  C   UNL     1       0.389   9.744  18.651  0.00  0.00    +0.000 C 
ATOM      9  C   UNL     1       0.457  12.326  20.198  0.00  0.00    +0.000 C 
ATOM     10  C   UNL     1       0.355  13.189  21.435  0.00  0.00    +0.000 C 
ATOM     11  N   UNL     1      -1.091  13.280  21.604  0.00  0.00    +0.000 N 
ATOM     12  C   UNL     1      -1.752  12.052  21.096  0.00  0.00    +0.000 C 
ENDROOT
BRANCH   1  18
ATOM     13  C   UNL     1       5.005   4.254  17.575  0.00  0.00    +0.000 C 
ATOM     14  O   UNL     1       4.570   3.182  17.140  0.00  0.00    +0.000 OA
ATOM     15  N   UNL     1       4.188   5.250  18.078  0.00  0.00    +0.000 N 
ATOM     16  C   UNL     1       2.795   4.934  18.376  0.00  0.00    +0.000 C 
ATOM     17  C   UNL     1       1.848   5.932  17.712  0.00  0.00    +0.000 C 
ATOM     18  C   UNL     1       2.199   7.406  17.998  0.00  0.00    +0.000 C 
ATOM     19  C   UNL     1       3.696   7.648  17.725  0.00  0.00    +0.000 C 
ATOM     20  C   UNL     1       4.599   6.617  18.412  0.00  0.00    +0.000 C 
BRANCH  13  21
ATOM     21  C   UNL     1       6.485   4.484  17.499  0.00  0.00    +0.000 C 
BRANCH  21  23
ATOM     22  O   UNL     1       7.470   5.987  15.915  0.00  0.00    +0.000 OA
ATOM     23  C   UNL     1       6.906   4.924  16.136  0.00  0.00    +0.000 C 
BRANCH  23  24
ATOM     24  O   UNL     1       6.629   4.032  15.158  0.00  0.00    +0.000 OA
ATOM     25  H   UNL     1       5.768   4.191  14.710  0.00  0.00    +0.000 HD
ENDBRANCH  23  24
ENDBRANCH  21  23
ENDBRANCH  13  21
ENDBRANCH   1  18
BRANCH  11  26
ATOM     26  C   UNL     1      -1.560  13.913  22.745  0.00  0.00    +0.000 A 
ATOM     27  C   UNL     1      -0.747  14.843  23.392  0.00  0.00    +0.000 A 
ATOM     28  C   UNL     1      -1.167  15.386  24.599  0.00  0.00    +0.000 A 
ATOM     29  N   UNL     1      -2.341  15.088  25.193  0.00  0.00    +0.000 NA
ATOM     30  C   UNL     1      -3.122  14.199  24.549  0.00  0.00    +0.000 A 
ATOM     31  C   UNL     1      -2.780  13.598  23.346  0.00  0.00    +0.000 A 
ENDBRANCH  11  26
TORSDOF 5
ENDMDL
MODEL 2
REMARK VINA RESULT:      -6.8      0.673      1.088
REMARK  Name = 
REMARK  5 active torsions:
REMARK  status: ('A' for Active; 'I' for Inactive)
REMARK    1  A    between atoms: C_2  and  O_3
REMARK    2  A    between atoms: C_2  and  C_4
REMARK    3  A    between atoms: C_4  and  C_5
REMARK    4  A    between atoms: C_10  and  C_11
REMARK    5  A    between atoms: N_21  and  C_22
REMARK                            x       y       z     vdW  Elec       q    Type
REMARK                         _______ _______ _______ _____ _____    ______ ____
ROOT
ATOM      1  C   UNL     1       1.950   7.636  19.377  0.00  0.00    +0.000 C 
ATOM      2  O   UNL     1       2.444   7.011  20.322  0.00  0.00    +0.000 OA
ATOM      3  N   UNL     1       1.289   8.840  19.602  0.00  0.00    +0.000 N 
ATOM      4  C   UNL     1       1.545   9.459  20.907  0.00  0.00    +0.000 C 
ATOM      5  C   UNL     1       0.386  10.304  21.402  0.00  0.00    +0.000 C 
ATOM      6  C   UNL     1      -0.036  11.354  20.354  0.00  0.00    +0.000 C 
ATOM      7  C   UNL     1      -0.505  10.550  19.130  0.00  0.00    +0.000 C 
ATOM      8  C   UNL     1       0.645   9.677  18.573  0.00  0.00    +0.000 C 
ATOM      9  C   UNL     1       1.092  12.322  19.940  0.00  0.00    +0.000 C 
ATOM     10  C   UNL     1       1.171  13.261  21.122  0.00  0.00    +0.000 C 
ATOM     11  N   UNL     1      -0.241  13.515  21.382  0.00  0.00    +0.000 N 
ATOM     12  C   UNL     1      -1.061  12.338  21.001  0.00  0.00    +0.000 C 
ENDROOT
BRANCH   1  18
ATOM     13  C   UNL     1       5.118   4.133  17.459  0.00  0.00    +0.000 C 
ATOM     14  O   UNL     1       4.715   2.997  17.182  0.00  0.00    +0.000 OA
ATOM     15  N   UNL     1       4.295   5.119  17.970  0.00  0.00    +0.000 N 
ATOM     16  C   UNL     1       2.977   4.746  18.473  0.00  0.00    +0.000 C 
ATOM     17  C   UNL     1       1.883   5.610  17.849  0.00  0.00    +0.000 C 
ATOM     18  C   UNL     1       2.153   7.125  17.953  0.00  0.00    +0.000 C 
ATOM     19  C   UNL     1       3.581   7.434  17.468  0.00  0.00    +0.000 C 
ATOM     20  C   UNL     1       4.639   6.536  18.122  0.00  0.00    +0.000 C 
BRANCH  13  21
ATOM     21  C   UNL     1       6.555   4.448  17.171  0.00  0.00    +0.000 C 
BRANCH  21  23
ATOM     22  O   UNL     1       7.419   5.498  15.198  0.00  0.00    +0.000 OA
ATOM     23  C   UNL     1       6.813   4.564  15.705  0.00  0.00    +0.000 C 
BRANCH  23  24
ATOM     24  O   UNL     1       6.334   3.528  14.978  0.00  0.00    +0.000 OA
ATOM     25  H   UNL     1       5.584   3.771  14.390  0.00  0.00    +0.000 HD
ENDBRANCH  23  24
ENDBRANCH  21  23
ENDBRANCH  13  21
ENDBRANCH   1  18
BRANCH  11  26
ATOM     26  C   UNL     1      -0.556  14.260  22.508  0.00  0.00    +0.000 A 
ATOM     27  C   UNL     1      -1.582  13.826  23.348  0.00  0.00    +0.000 A 
ATOM     28  C   UNL     1      -1.978  14.632  24.407  0.00  0.00    +0.000 A 
ATOM     29  N   UNL     1      -1.415  15.823  24.701  0.00  0.00    +0.000 NA
ATOM     30  C   UNL     1      -0.416  16.222  23.890  0.00  0.00    +0.000 A 
ATOM     31  C   UNL     1       0.038  15.488  22.804  0.00  0.00    +0.000 A 
ENDBRANCH  11  26
TORSDOF 5
ENDMDL
MODEL 3
REMARK VINA RESULT:      -6.6      0.948      1.409
REMARK  Name = 
REMARK  5 active torsions:
REMARK  status: ('A' for Active; 'I' for Inactive)
REMARK    1  A    between atoms: C_2  and  O_3
REMARK    2  A    between atoms: C_2  and  C_4
REMARK    3  A    between atoms: C_4  and  C_5
REMARK    4  A    between atoms: C_10  and  C_11
REMARK    5  A    between atoms: N_21  and  C_22
REMARK                            x       y       z     vdW  Elec       q    Type
REMARK                         _______ _______ _______ _____ _____    ______ ____
ROOT
ATOM      1  C   UNL     1       1.679   7.892  19.483  0.00  0.00    +0.000 C 
ATOM      2  O   UNL     1       2.219   7.243  20.386  0.00  0.00    +0.000 OA
ATOM      3  N   UNL     1       0.901   9.005  19.788  0.00  0.00    +0.000 N 
ATOM      4  C   UNL     1       1.079   9.539  21.142  0.00  0.00    +0.000 C 
ATOM      5  C   UNL     1      -0.163  10.228  21.678  0.00  0.00    +0.000 C 
ATOM      6  C   UNL     1      -0.671  11.313  20.708  0.00  0.00    +0.000 C 
ATOM      7  C   UNL     1      -1.044  10.569  19.414  0.00  0.00    +0.000 C 
ATOM      8  C   UNL     1       0.193   9.857  18.814  0.00  0.00    +0.000 C 
ATOM      9  C   UNL     1       0.363  12.414  20.394  0.00  0.00    +0.000 C 
ATOM     10  C   UNL     1       0.336  13.258  21.647  0.00  0.00    +0.000 C 
ATOM     11  N   UNL     1      -1.098  13.355  21.897  0.00  0.00    +0.000 N 
ATOM     12  C   UNL     1      -1.794  12.140  21.408  0.00  0.00    +0.000 C 
ENDROOT
BRANCH   1  18
ATOM     13  C   UNL     1       5.281   4.984  17.349  0.00  0.00    +0.000 C 
ATOM     14  O   UNL     1       5.031   3.829  16.985  0.00  0.00    +0.000 OA
ATOM     15  N   UNL     1       4.335   5.814  17.922  0.00  0.00    +0.000 N 
ATOM     16  C   UNL     1       3.076   5.236  18.381  0.00  0.00    +0.000 C 
ATOM     17  C   UNL     1       1.880   5.993  17.810  0.00  0.00    +0.000 C 
ATOM     18  C   UNL     1       1.949   7.518  18.028  0.00  0.00    +0.000 C 
ATOM     19  C   UNL     1       3.326   8.047  17.582  0.00  0.00    +0.000 C 
ATOM     20  C   UNL     1       4.490   7.248  18.181  0.00  0.00    +0.000 C 
BRANCH  13  21
ATOM     21  C   UNL     1       6.665   5.504  17.101  0.00  0.00    +0.000 C 
BRANCH  21  23
ATOM     22  O   UNL     1       8.442   4.036  17.754  0.00  0.00    +0.000 OA
ATOM     23  C   UNL     1       7.653   4.921  18.056  0.00  0.00    +0.000 C 
BRANCH  23  24
ATOM     24  O   UNL     1       7.619   5.473  19.291  0.00  0.00    +0.000 OA
ATOM     25  H   UNL     1       6.738   5.422  19.722  0.00  0.00    +0.000 HD
ENDBRANCH  23  24
ENDBRANCH  21  23
ENDBRANCH  13  21
ENDBRANCH   1  18
BRANCH  11  26
ATOM     26  C   UNL     1      -1.499  13.974  23.072  0.00  0.00    +0.000 A 
ATOM     27  C   UNL     1      -2.708  13.602  23.660  0.00  0.00    +0.000 A 
ATOM     28  C   UNL     1      -3.166  14.304  24.767  0.00  0.00    +0.000 A 
ATOM     29  N   UNL     1      -2.501  15.329  25.340  0.00  0.00    +0.000 NA
ATOM     30  C   UNL     1      -1.329  15.666  24.770  0.00  0.00    +0.000 A 
ATOM     31  C   UNL     1      -0.798  15.030  23.657  0.00  0.00    +0.000 A 
ENDBRANCH  11  26
TORSDOF 5
ENDMDL
MODEL 4
REMARK VINA RESULT:      -6.6      1.038      1.119
REMARK  Name = 
REMARK  5 active torsions:
REMARK  status: ('A' for Active; 'I' for Inactive)
REMARK    1  A    between atoms: C_2  and  O_3
REMARK    2  A    between atoms: C_2  and  C_4
REMARK    3  A    between atoms: C_4  and  C_5
REMARK    4  A    between atoms: C_10  and  C_11
REMARK    5  A    between atoms: N_21  and  C_22
REMARK                            x       y       z     vdW  Elec       q    Type
REMARK                         _______ _______ _______ _____ _____    ______ ____
ROOT
ATOM      1  C   UNL     1       1.767   7.900  19.432  0.00  0.00    +0.000 C 
ATOM      2  O   UNL     1       2.317   7.293  20.358  0.00  0.00    +0.000 OA
ATOM      3  N   UNL     1       1.071   9.079  19.683  0.00  0.00    +0.000 N 
ATOM      4  C   UNL     1       1.351   9.706  20.979  0.00  0.00    +0.000 C 
ATOM      5  C   UNL     1       0.180  10.508  21.517  0.00  0.00    +0.000 C 
ATOM      6  C   UNL     1      -0.316  11.543  20.487  0.00  0.00    +0.000 C 
ATOM      7  C   UNL     1      -0.799  10.724  19.278  0.00  0.00    +0.000 C 
ATOM      8  C   UNL     1       0.362   9.894  18.679  0.00  0.00    +0.000 C 
ATOM      9  C   UNL     1       0.761  12.552  20.035  0.00  0.00    +0.000 C 
ATOM     10  C   UNL     1       0.848  13.492  21.216  0.00  0.00    +0.000 C 
ATOM     11  N   UNL     1      -0.562  13.695  21.527  0.00  0.00    +0.000 N 
ATOM     12  C   UNL     1      -1.352  12.489  21.172  0.00  0.00    +0.000 C 
ENDROOT
BRANCH   1  18
ATOM     13  C   UNL     1       5.116   4.665  17.358  0.00  0.00    +0.000 C 
ATOM     14  O   UNL     1       4.798   3.497  17.106  0.00  0.00    +0.000 OA
ATOM     15  N   UNL     1       4.241   5.582  17.909  0.00  0.00    +0.000 N 
ATOM     16  C   UNL     1       2.987   5.102  18.483  0.00  0.00    +0.000 C 
ATOM     17  C   UNL     1       1.792   5.865  17.915  0.00  0.00    +0.000 C 
ATOM     18  C   UNL     1       1.938   7.398  18.001  0.00  0.00    +0.000 C 
ATOM     19  C   UNL     1       3.307   7.824  17.440  0.00  0.00    +0.000 C 
ATOM     20  C   UNL     1       4.470   7.024  18.040  0.00  0.00    +0.000 C 
BRANCH  13  21
ATOM     21  C   UNL     1       6.505   5.099  16.993  0.00  0.00    +0.000 C 
BRANCH  21  23
ATOM     22  O   UNL     1       7.391   5.208  19.216  0.00  0.00    +0.000 OA
ATOM     23  C   UNL     1       7.484   4.780  18.074  0.00  0.00    +0.000 C 
BRANCH  23  24
ATOM     24  O   UNL     1       8.481   3.951  17.688  0.00  0.00    +0.000 OA
ATOM     25  H   UNL     1       9.135   4.372  17.087  0.00  0.00    +0.000 HD
ENDBRANCH  23  24
ENDBRANCH  21  23
ENDBRANCH  13  21
ENDBRANCH   1  18
BRANCH  11  26
ATOM     26  C   UNL     1      -0.864  14.426  22.665  0.00  0.00    +0.000 A 
ATOM     27  C   UNL     1      -0.139  15.585  22.945  0.00  0.00    +0.000 A 
ATOM     28  C   UNL     1      -0.360  16.249  24.144  0.00  0.00    +0.000 A 
ATOM     29  N   UNL     1      -1.260  15.858  25.069  0.00  0.00    +0.000 NA
ATOM     30  C   UNL     1      -1.963  14.747  24.779  0.00  0.00    +0.000 A 
ATOM     31  C   UNL     1      -1.803  14.013  23.612  0.00  0.00    +0.000 A 
ENDBRANCH  11  26
TORSDOF 5
ENDMDL
MODEL 5
REMARK VINA RESULT:      -6.5      6.514      8.729
REMARK  Name = 
REMARK  5 active torsions:
REMARK  status: ('A' for Active; 'I' for Inactive)
REMARK    1  A    between atoms: C_2  and  O_3
REMARK    2  A    between atoms: C_2  and  C_4
REMARK    3  A    between atoms: C_4  and  C_5
REMARK    4  A    between atoms: C_10  and  C_11
REMARK    5  A    between atoms: N_21  and  C_22
REMARK                            x       y       z     vdW  Elec       q    Type
REMARK                         _______ _______ _______ _____ _____    ______ ____
ROOT
ATOM      1  C   UNL     1       4.204  16.204  19.358  0.00  0.00    +0.000 C 
ATOM      2  O   UNL     1       4.148  16.854  18.309  0.00  0.00    +0.000 OA
ATOM      3  N   UNL     1       3.193  15.302  19.679  0.00  0.00    +0.000 N 
ATOM      4  C   UNL     1       2.316  14.926  18.565  0.00  0.00    +0.000 C 
ATOM      5  C   UNL     1       0.914  14.553  19.012  0.00  0.00    +0.000 C 
ATOM      6  C   UNL     1       0.939  13.463  20.102  0.00  0.00    +0.000 C 
ATOM      7  C   UNL     1       1.683  14.088  21.295  0.00  0.00    +0.000 C 
ATOM      8  C   UNL     1       3.128  14.475  20.898  0.00  0.00    +0.000 C 
ATOM      9  C   UNL     1       1.645  12.159  19.675  0.00  0.00    +0.000 C 
ATOM     10  C   UNL     1       0.616  11.505  18.782  0.00  0.00    +0.000 C 
ATOM     11  N   UNL     1      -0.605  11.706  19.554  0.00  0.00    +0.000 N 
ATOM     12  C   UNL     1      -0.516  12.955  20.351  0.00  0.00    +0.000 C 
ENDROOT
BRANCH   1  18
ATOM     13  C   UNL     1       9.183  16.270  18.271  0.00  0.00    +0.000 C 
ATOM     14  O   UNL     1       9.815  17.333  18.252  0.00  0.00    +0.000 OA
ATOM     15  N   UNL     1       7.836  16.200  18.571  0.00  0.00    +0.000 N 
ATOM     16  C   UNL     1       7.053  17.432  18.589  0.00  0.00    +0.000 C 
ATOM     17  C   UNL     1       6.274  17.572  19.895  0.00  0.00    +0.000 C 
ATOM     18  C   UNL     1       5.435  16.328  20.253  0.00  0.00    +0.000 C 
ATOM     19  C   UNL     1       6.307  15.063  20.148  0.00  0.00    +0.000 C 
ATOM     20  C   UNL     1       7.070  14.975  18.821  0.00  0.00    +0.000 C 
BRANCH  13  21
ATOM     21  C   UNL     1       9.945  15.006  18.002  0.00  0.00    +0.000 C 
BRANCH  21  23
ATOM     22  O   UNL     1      12.232  14.852  17.305  0.00  0.00    +0.000 OA
ATOM     23  C   UNL     1      11.094  15.241  17.078  0.00  0.00    +0.000 C 
BRANCH  23  24
ATOM     24  O   UNL     1      10.767  15.905  15.947  0.00  0.00    +0.000 OA
ATOM     25  H   UNL     1       9.976  15.542  15.489  0.00  0.00    +0.000 HD
ENDBRANCH  23  24
ENDBRANCH  21  23
ENDBRANCH  13  21
ENDBRANCH   1  18
BRANCH  11  26
ATOM     26  C   UNL     1      -1.802  11.331  18.962  0.00  0.00    +0.000 A 
ATOM     27  C   UNL     1      -1.817  10.254  18.076  0.00  0.00    +0.000 A 
ATOM     28  C   UNL     1      -2.989   9.955  17.394  0.00  0.00    +0.000 A 
ATOM     29  N   UNL     1      -4.145  10.634  17.544  0.00  0.00    +0.000 NA
ATOM     30  C   UNL     1      -4.119  11.662  18.414  0.00  0.00    +0.000 A 
ATOM     31  C   UNL     1      -2.993  12.040  19.132  0.00  0.00    +0.000 A 
ENDBRANCH  11  26
TORSDOF 5
ENDMDL
MODEL 6
REMARK VINA RESULT:      -6.5      1.959      2.336
REMARK  Name = 
REMARK  5 active torsions:
REMARK  status: ('A' for Active; 'I' for Inactive)
REMARK    1  A    between atoms: C_2  and  O_3
REMARK    2  A    between atoms: C_2  and  C_4
REMARK    3  A    between atoms: C_4  and  C_5
REMARK    4  A    between atoms: C_10  and  C_11
REMARK    5  A    between atoms: N_21  and  C_22
REMARK                            x       y       z     vdW  Elec       q    Type
REMARK                         _______ _______ _______ _____ _____    ______ ____
ROOT
ATOM      1  C   UNL     1       1.790   7.868  19.392  0.00  0.00    +0.000 C 
ATOM      2  O   UNL     1       2.218   7.551  20.508  0.00  0.00    +0.000 OA
ATOM      3  N   UNL     1       1.055   9.039  19.230  0.00  0.00    +0.000 N 
ATOM      4  C   UNL     1       1.155   9.997  20.336  0.00  0.00    +0.000 C 
ATOM      5  C   UNL     1      -0.085  10.859  20.489  0.00  0.00    +0.000 C 
ATOM      6  C   UNL     1      -0.451  11.563  19.167  0.00  0.00    +0.000 C 
ATOM      7  C   UNL     1      -0.761  10.433  18.170  0.00  0.00    +0.000 C 
ATOM      8  C   UNL     1       0.477   9.528  17.964  0.00  0.00    +0.000 C 
ATOM      9  C   UNL     1       0.666  12.464  18.600  0.00  0.00    +0.000 C 
ATOM     10  C   UNL     1       0.587  13.684  19.488  0.00  0.00    +0.000 C 
ATOM     11  N   UNL     1      -0.854  13.899  19.554  0.00  0.00    +0.000 N 
ATOM     12  C   UNL     1      -1.578  12.608  19.439  0.00  0.00    +0.000 C 
ENDROOT
BRANCH   1  18
ATOM     13  C   UNL     1       5.709   4.727  18.518  0.00  0.00    +0.000 C 
ATOM     14  O   UNL     1       5.570   3.501  18.603  0.00  0.00    +0.000 OA
ATOM     15  N   UNL     1       4.674   5.618  18.735  0.00  0.00    +0.000 N 
ATOM     16  C   UNL     1       3.447   5.134  19.362  0.00  0.00    +0.000 C 
ATOM     17  C   UNL     1       2.219   5.516  18.538  0.00  0.00    +0.000 C 
ATOM     18  C   UNL     1       2.154   7.015  18.180  0.00  0.00    +0.000 C 
ATOM     19  C   UNL     1       3.501   7.468  17.586  0.00  0.00    +0.000 C 
ATOM     20  C   UNL     1       4.699   7.056  18.450  0.00  0.00    +0.000 C 
BRANCH  13  21
ATOM     21  C   UNL     1       7.055   5.246  18.112  0.00  0.00    +0.000 C 
BRANCH  21  23
ATOM     22  O   UNL     1       7.844   5.287  20.373  0.00  0.00    +0.000 OA
ATOM     23  C   UNL     1       7.800   5.819  19.272  0.00  0.00    +0.000 C 
BRANCH  23  24
ATOM     24  O   UNL     1       8.446   6.975  18.998  0.00  0.00    +0.000 OA
ATOM     25  H   UNL     1       8.939   7.344  19.764  0.00  0.00    +0.000 HD
ENDBRANCH  23  24
ENDBRANCH  21  23
ENDBRANCH  13  21
ENDBRANCH   1  18
BRANCH  11  26
ATOM     26  C   UNL     1      -1.312  14.890  20.409  0.00  0.00    +0.000 A 
ATOM     27  C   UNL     1      -2.026  14.530  21.552  0.00  0.00    +0.000 A 
ATOM     28  C   UNL     1      -2.587  15.524  22.342  0.00  0.00    +0.000 A 
ATOM     29  N   UNL     1      -2.471  16.844  22.089  0.00  0.00    +0.000 NA
ATOM     30  C   UNL     1      -1.766  17.177  20.991  0.00  0.00    +0.000 A 
ATOM     31  C   UNL     1      -1.180  16.253  20.138  0.00  0.00    +0.000 A 
ENDBRANCH  11  26
TORSDOF 5
ENDMDL
MODEL 7
REMARK VINA RESULT:      -6.4      1.809      2.117
REMARK  Name = 
REMARK  5 active torsions:
REMARK  status: ('A' for Active; 'I' for Inactive)
REMARK    1  A    between atoms: C_2  and  O_3
REMARK    2  A    between atoms: C_2  and  C_4
REMARK    3  A    between atoms: C_4  and  C_5
REMARK    4  A    between atoms: C_10  and  C_11
REMARK    5  A    between atoms: N_21  and  C_22
REMARK                            x       y       z     vdW  Elec       q    Type
REMARK                         _______ _______ _______ _____ _____    ______ ____
ROOT
ATOM      1  C   UNL     1       1.720   7.834  19.574  0.00  0.00    +0.000 C 
ATOM      2  O   UNL     1       2.093   7.528  20.712  0.00  0.00    +0.000 OA
ATOM      3  N   UNL     1       1.084   9.052  19.348  0.00  0.00    +0.000 N 
ATOM      4  C   UNL     1       1.230  10.041  20.421  0.00  0.00    +0.000 C 
ATOM      5  C   UNL     1       0.058  11.003  20.507  0.00  0.00    +0.000 C 
ATOM      6  C   UNL     1      -0.217  11.681  19.149  0.00  0.00    +0.000 C 
ATOM      7  C   UNL     1      -0.589  10.541  18.186  0.00  0.00    +0.000 C 
ATOM      8  C   UNL     1       0.579   9.534  18.049  0.00  0.00    +0.000 C 
ATOM      9  C   UNL     1       0.982  12.469  18.582  0.00  0.00    +0.000 C 
ATOM     10  C   UNL     1       0.977  13.726  19.422  0.00  0.00    +0.000 C 
ATOM     11  N   UNL     1      -0.444  14.054  19.439  0.00  0.00    +0.000 N 
ATOM     12  C   UNL     1      -1.264  12.820  19.351  0.00  0.00    +0.000 C 
ENDROOT
BRANCH   1  18
ATOM     13  C   UNL     1       5.629   4.667  18.755  0.00  0.00    +0.000 C 
ATOM     14  O   UNL     1       5.503   3.448  18.921  0.00  0.00    +0.000 OA
ATOM     15  N   UNL     1       4.596   5.564  18.953  0.00  0.00    +0.000 N 
ATOM     16  C   UNL     1       3.396   5.113  19.653  0.00  0.00    +0.000 C 
ATOM     17  C   UNL     1       2.136   5.436  18.854  0.00  0.00    +0.000 C 
ATOM     18  C   UNL     1       2.046   6.909  18.405  0.00  0.00    +0.000 C 
ATOM     19  C   UNL     1       3.367   7.332  17.735  0.00  0.00    +0.000 C 
ATOM     20  C   UNL     1       4.599   6.981  18.578  0.00  0.00    +0.000 C 
BRANCH  13  21
ATOM     21  C   UNL     1       6.956   5.167  18.267  0.00  0.00    +0.000 C 
BRANCH  21  23
ATOM     22  O   UNL     1       7.529   5.949  16.077  0.00  0.00    +0.000 OA
ATOM     23  C   UNL     1       7.075   5.060  16.783  0.00  0.00    +0.000 C 
BRANCH  23  24
ATOM     24  O   UNL     1       6.654   3.877  16.280  0.00  0.00    +0.000 OA
ATOM     25  H   UNL     1       6.983   3.694  15.371  0.00  0.00    +0.000 HD
ENDBRANCH  23  24
ENDBRANCH  21  23
ENDBRANCH  13  21
ENDBRANCH   1  18
BRANCH  11  26
ATOM     26  C   UNL     1      -0.844  15.111  20.243  0.00  0.00    +0.000 A 
ATOM     27  C   UNL     1      -2.087  15.056  20.875  0.00  0.00    +0.000 A 
ATOM     28  C   UNL     1      -2.537  16.163  21.581  0.00  0.00    +0.000 A 
ATOM     29  N   UNL     1      -1.835  17.306  21.721  0.00  0.00    +0.000 NA
ATOM     30  C   UNL     1      -0.631  17.339  21.119  0.00  0.00    +0.000 A 
ATOM     31  C   UNL     1      -0.104  16.286  20.384  0.00  0.00    +0.000 A 
ENDBRANCH  11  26
TORSDOF 5
ENDMDL
MODEL 8
REMARK VINA RESULT:      -6.4      2.533      3.079
REMARK  Name = 
REMARK  5 active torsions:
REMARK  status: ('A' for Active; 'I' for Inactive)
REMARK    1  A    between atoms: C_2  and  O_3
REMARK    2  A    between atoms: C_2  and  C_4
REMARK    3  A    between atoms: C_4  and  C_5
REMARK    4  A    between atoms: C_10  and  C_11
REMARK    5  A    between atoms: N_21  and  C_22
REMARK                            x       y       z     vdW  Elec       q    Type
REMARK                         _______ _______ _______ _____ _____    ______ ____
ROOT
ATOM      1  C   UNL     1       2.013   7.596  19.519  0.00  0.00    +0.000 C 
ATOM      2  O   UNL     1       2.200   7.189  20.671  0.00  0.00    +0.000 OA
ATOM      3  N   UNL     1       1.276   8.755  19.296  0.00  0.00    +0.000 N 
ATOM      4  C   UNL     1       1.083   9.608  20.474  0.00  0.00    +0.000 C 
ATOM      5  C   UNL     1      -0.201  10.417  20.418  0.00  0.00    +0.000 C 
ATOM      6  C   UNL     1      -0.301  11.230  19.112  0.00  0.00    +0.000 C 
ATOM      7  C   UNL     1      -0.329  10.190  17.979  0.00  0.00    +0.000 C 
ATOM      8  C   UNL     1       0.967   9.343  17.979  0.00  0.00    +0.000 C 
ATOM      9  C   UNL     1       0.869  12.211  18.887  0.00  0.00    +0.000 C 
ATOM     10  C   UNL     1       0.537  13.341  19.834  0.00  0.00    +0.000 C 
ATOM     11  N   UNL     1      -0.892  13.507  19.595  0.00  0.00    +0.000 N 
ATOM     12  C   UNL     1      -1.509  12.213  19.213  0.00  0.00    +0.000 C 
ENDROOT
BRANCH   1  18
ATOM     13  C   UNL     1       3.351   2.718  18.889  0.00  0.00    +0.000 C 
ATOM     14  O   UNL     1       2.659   1.953  18.207  0.00  0.00    +0.000 OA
ATOM     15  N   UNL     1       3.036   4.050  19.079  0.00  0.00    +0.000 N 
ATOM     16  C   UNL     1       1.703   4.518  18.712  0.00  0.00    +0.000 C 
ATOM     17  C   UNL     1       1.778   5.742  17.801  0.00  0.00    +0.000 C 
ATOM     18  C   UNL     1       2.675   6.870  18.351  0.00  0.00    +0.000 C 
ATOM     19  C   UNL     1       4.037   6.292  18.778  0.00  0.00    +0.000 C 
ATOM     20  C   UNL     1       3.903   5.064  19.687  0.00  0.00    +0.000 C 
BRANCH  13  21
ATOM     21  C   UNL     1       4.612   2.167  19.484  0.00  0.00    +0.000 C 
BRANCH  21  23
ATOM     22  O   UNL     1       3.441   2.139  21.574  0.00  0.00    +0.000 OA
ATOM     23  C   UNL     1       4.457   1.883  20.941  0.00  0.00    +0.000 C 
BRANCH  23  24
ATOM     24  O   UNL     1       5.534   1.292  21.507  0.00  0.00    +0.000 OA
ATOM     25  H   UNL     1       6.263   1.109  20.873  0.00  0.00    +0.000 HD
ENDBRANCH  23  24
ENDBRANCH  21  23
ENDBRANCH  13  21
ENDBRANCH   1  18
BRANCH  11  26
ATOM     26  C   UNL     1      -1.574  14.401  20.406  0.00  0.00    +0.000 A 
ATOM     27  C   UNL     1      -2.821  14.044  20.918  0.00  0.00    +0.000 A 
ATOM     28  C   UNL     1      -3.555  14.983  21.630  0.00  0.00    +0.000 A 
ATOM     29  N   UNL     1      -3.131  16.238  21.885  0.00  0.00    +0.000 NA
ATOM     30  C   UNL     1      -1.919  16.564  21.397  0.00  0.00    +0.000 A 
ATOM     31  C   UNL     1      -1.120  15.696  20.667  0.00  0.00    +0.000 A 
ENDBRANCH  11  26
TORSDOF 5
ENDMDL
MODEL 9
REMARK VINA RESULT:      -6.4      1.401      1.652
REMARK  Name = 
REMARK  5 active torsions:
REMARK  status: ('A' for Active; 'I' for Inactive)
REMARK    1  A    between atoms: C_2  and  O_3
REMARK    2  A    between atoms: C_2  and  C_4
REMARK    3  A    between atoms: C_4  and  C_5
REMARK    4  A    between atoms: C_10  and  C_11
REMARK    5  A    between atoms: N_21  and  C_22
REMARK                            x       y       z     vdW  Elec       q    Type
REMARK                         _______ _______ _______ _____ _____    ______ ____
ROOT
ATOM      1  C   UNL     1       1.827   7.690  19.258  0.00  0.00    +0.000 C 
ATOM      2  O   UNL     1       2.194   7.111  20.287  0.00  0.00    +0.000 OA
ATOM      3  N   UNL     1       1.097   8.872  19.342  0.00  0.00    +0.000 N 
ATOM      4  C   UNL     1       1.130   9.535  20.650  0.00  0.00    +0.000 C 
ATOM      5  C   UNL     1      -0.121  10.346  20.937  0.00  0.00    +0.000 C 
ATOM      6  C   UNL     1      -0.416  11.350  19.805  0.00  0.00    +0.000 C 
ATOM      7  C   UNL     1      -0.665  10.495  18.550  0.00  0.00    +0.000 C 
ATOM      8  C   UNL     1       0.588   9.655  18.201  0.00  0.00    +0.000 C 
ATOM      9  C   UNL     1       0.727  12.351  19.534  0.00  0.00    +0.000 C 
ATOM     10  C   UNL     1       0.592  13.323  20.683  0.00  0.00    +0.000 C 
ATOM     11  N   UNL     1      -0.851  13.528  20.720  0.00  0.00    +0.000 N 
ATOM     12  C   UNL     1      -1.561  12.309  20.258  0.00  0.00    +0.000 C 
ENDROOT
BRANCH   1  18
ATOM     13  C   UNL     1       5.890   4.955  17.846  0.00  0.00    +0.000 C 
ATOM     14  O   UNL     1       5.797   3.739  17.643  0.00  0.00    +0.000 OA
ATOM     15  N   UNL     1       4.816   5.740  18.219  0.00  0.00    +0.000 N 
ATOM     16  C   UNL     1       3.589   5.088  18.669  0.00  0.00    +0.000 C 
ATOM     17  C   UNL     1       2.374   5.612  17.907  0.00  0.00    +0.000 C 
ATOM     18  C   UNL     1       2.262   7.150  17.899  0.00  0.00    +0.000 C 
ATOM     19  C   UNL     1       3.608   7.768  17.479  0.00  0.00    +0.000 C 
ATOM     20  C   UNL     1       4.794   7.205  18.271  0.00  0.00    +0.000 C 
BRANCH  13  21
ATOM     21  C   UNL     1       7.228   5.594  17.622  0.00  0.00    +0.000 C 
BRANCH  21  23
ATOM     22  O   UNL     1       7.885   5.290  19.906  0.00  0.00    +0.000 OA
ATOM     23  C   UNL     1       7.868   5.999  18.909  0.00  0.00    +0.000 C 
BRANCH  23  24
ATOM     24  O   UNL     1       8.453   7.218  18.874  0.00  0.00    +0.000 OA
ATOM     25  H   UNL     1       8.047   7.869  19.490  0.00  0.00    +0.000 HD
ENDBRANCH  23  24
ENDBRANCH  21  23
ENDBRANCH  13  21
ENDBRANCH   1  18
BRANCH  11  26
ATOM     26  C   UNL     1      -1.361  14.289  21.761  0.00  0.00    +0.000 A 
ATOM     27  C   UNL     1      -0.859  14.105  23.049  0.00  0.00    +0.000 A 
ATOM     28  C   UNL     1      -1.451  14.779  24.109  0.00  0.00    +0.000 A 
ATOM     29  N   UNL     1      -2.486  15.633  23.977  0.00  0.00    +0.000 NA
ATOM     30  C   UNL     1      -2.951  15.811  22.725  0.00  0.00    +0.000 A 
ATOM     31  C   UNL     1      -2.430  15.173  21.609  0.00  0.00    +0.000 A 
ENDBRANCH  11  26
TORSDOF 5
ENDMDL
