MODEL 1
REMARK VINA RESULT:      -8.3      0.000      0.000
REMARK  Name = 
REMARK  4 active torsions:
REMARK  status: ('A' for Active; 'I' for Inactive)
REMARK    1  A    between atoms: N_4  and  N_5
REMARK    2  A    between atoms: C_6  and  C_7
REMARK    3  A    between atoms: C_6  and  C_15
REMARK    4  A    between atoms: C_8  and  C_9
REMARK                            x       y       z     vdW  Elec       q    Type
REMARK                         _______ _______ _______ _____ _____    ______ ____
ROOT
ATOM      1  N   UNL     1       7.668   6.103  16.182  0.00  0.00    +0.000 NA
ATOM      2  C   UNL     1       7.113   6.668  17.223  0.00  0.00    +0.000 C 
ENDROOT
BRANCH   1   6
ATOM      3  N   UNL     1       6.504   3.904  13.589  0.00  0.00    +0.000 NA
ATOM      4  C   UNL     1       7.151   4.854  14.168  0.00  0.00    +0.000 C 
ATOM      5  N   UNL     1       8.073   5.611  13.531  0.00  0.00    +0.000 N 
ATOM      6  N   UNL     1       6.974   5.164  15.484  0.00  0.00    +0.000 N 
ATOM      7  H   UNL     1       6.842   3.829  12.627  0.00  0.00    +0.000 HD
ATOM      8  H   UNL     1       7.893   5.787  12.554  0.00  0.00    +0.000 HD
ATOM      9  H   UNL     1       8.239   6.461  14.066  0.00  0.00    +0.000 HD
ATOM     10  H   UNL     1       6.267   4.594  15.940  0.00  0.00    +0.000 HD
ENDBRANCH   1   6
BRANCH   2  11
ATOM     11  C   UNL     1       5.804   6.301  17.875  0.00  0.00    +0.000 A 
ATOM     12  C   UNL     1       4.591   6.852  17.433  0.00  0.00    +0.000 A 
ATOM     13  C   UNL     1       3.384   6.522  18.061  0.00  0.00    +0.000 A 
ATOM     14  C   UNL     1       3.373   5.595  19.098  0.00  0.00    +0.000 A 
ATOM     15 CL   UNL     1       1.886   5.163  19.846  0.00  0.00    +0.000 Cl
ATOM     16  C   UNL     1       4.561   5.007  19.525  0.00  0.00    +0.000 A 
ATOM     17  C   UNL     1       5.774   5.370  18.927  0.00  0.00    +0.000 A 
ENDBRANCH   2  11
BRANCH   2  18
ATOM     18  C   UNL     1       7.870   7.754  17.933  0.00  0.00    +0.000 C 
ATOM     19  C   UNL     1       7.762   9.037  17.549  0.00  0.00    +0.000 C 
BRANCH  19  20
ATOM     20  C   UNL     1       8.508  10.104  18.215  0.00  0.00    +0.000 A 
ATOM     21  C   UNL     1       8.506  11.394  17.669  0.00  0.00    +0.000 A 
ATOM     22  C   UNL     1       9.224  12.424  18.283  0.00  0.00    +0.000 A 
ATOM     23  C   UNL     1       9.952  12.169  19.444  0.00  0.00    +0.000 A 
ATOM     24  C   UNL     1       9.965  10.887  19.991  0.00  0.00    +0.000 A 
ATOM     25  C   UNL     1       9.247   9.855  19.377  0.00  0.00    +0.000 A 
ENDBRANCH  19  20
ENDBRANCH   2  18
TORSDOF 4
ENDMDL
MODEL 2
REMARK VINA RESULT:      -8.3      0.153      1.498
REMARK  Name = 
REMARK  4 active torsions:
REMARK  status: ('A' for Active; 'I' for Inactive)
REMARK    1  A    between atoms: N_4  and  N_5
REMARK    2  A    between atoms: C_6  and  C_7
REMARK    3  A    between atoms: C_6  and  C_15
REMARK    4  A    between atoms: C_8  and  C_9
REMARK                            x       y       z     vdW  Elec       q    Type
REMARK                         _______ _______ _______ _____ _____    ______ ____
ROOT
ATOM      1  N   UNL     1       7.607   5.937  16.216  0.00  0.00    +0.000 NA
ATOM      2  C   UNL     1       7.068   6.536  17.246  0.00  0.00    +0.000 C 
ENDROOT
BRANCH   1   6
ATOM      3  N   UNL     1       6.346   3.730  13.675  0.00  0.00    +0.000 NA
ATOM      4  C   UNL     1       7.002   4.691  14.224  0.00  0.00    +0.000 C 
ATOM      5  N   UNL     1       7.866   5.476  13.541  0.00  0.00    +0.000 N 
ATOM      6  N   UNL     1       6.895   4.986  15.550  0.00  0.00    +0.000 N 
ATOM      7  H   UNL     1       6.628   3.671  12.693  0.00  0.00    +0.000 HD
ATOM      8  H   UNL     1       7.624   5.655  12.577  0.00  0.00    +0.000 HD
ATOM      9  H   UNL     1       8.043   6.325  14.073  0.00  0.00    +0.000 HD
ATOM     10  H   UNL     1       6.231   4.395  16.042  0.00  0.00    +0.000 HD
ENDBRANCH   1   6
BRANCH   2  11
ATOM     11  C   UNL     1       5.762   6.202  17.919  0.00  0.00    +0.000 A 
ATOM     12  C   UNL     1       5.706   5.309  19.000  0.00  0.00    +0.000 A 
ATOM     13  C   UNL     1       4.484   4.987  19.602  0.00  0.00    +0.000 A 
ATOM     14  C   UNL     1       3.314   5.602  19.166  0.00  0.00    +0.000 A 
ATOM     15 CL   UNL     1       1.818   5.234  19.929  0.00  0.00    +0.000 Cl
ATOM     16  C   UNL     1       3.353   6.520  18.120  0.00  0.00    +0.000 A 
ATOM     17  C   UNL     1       4.569   6.808  17.489  0.00  0.00    +0.000 A 
ENDBRANCH   2  11
BRANCH   2  18
ATOM     18  C   UNL     1       7.843   7.633  17.917  0.00  0.00    +0.000 C 
ATOM     19  C   UNL     1       7.690   8.915  17.548  0.00  0.00    +0.000 C 
BRANCH  19  20
ATOM     20  C   UNL     1       8.452   9.994  18.177  0.00  0.00    +0.000 A 
ATOM     21  C   UNL     1       9.165   9.740  19.356  0.00  0.00    +0.000 A 
ATOM     22  C   UNL     1       9.888  10.760  19.979  0.00  0.00    +0.000 A 
ATOM     23  C   UNL     1       9.898  12.042  19.431  0.00  0.00    +0.000 A 
ATOM     24  C   UNL     1       9.187  12.305  18.262  0.00  0.00    +0.000 A 
ATOM     25  C   UNL     1       8.462  11.284  17.636  0.00  0.00    +0.000 A 
ENDBRANCH  19  20
ENDBRANCH   2  18
TORSDOF 4
ENDMDL
MODEL 3
REMARK VINA RESULT:      -8.3      0.200      1.072
REMARK  Name = 
REMARK  4 active torsions:
REMARK  status: ('A' for Active; 'I' for Inactive)
REMARK    1  A    between atoms: N_4  and  N_5
REMARK    2  A    between atoms: C_6  and  C_7
REMARK    3  A    between atoms: C_6  and  C_15
REMARK    4  A    between atoms: C_8  and  C_9
REMARK                            x       y       z     vdW  Elec       q    Type
REMARK                         _______ _______ _______ _____ _____    ______ ____
ROOT
ATOM      1  N   UNL     1       7.632   5.905  16.326  0.00  0.00    +0.000 NA
ATOM      2  C   UNL     1       7.046   6.489  17.339  0.00  0.00    +0.000 C 
ENDROOT
BRANCH   1   6
ATOM      3  N   UNL     1       6.461   3.716  13.728  0.00  0.00    +0.000 NA
ATOM      4  C   UNL     1       7.068   4.695  14.300  0.00  0.00    +0.000 C 
ATOM      5  N   UNL     1       7.872   5.553  13.632  0.00  0.00    +0.000 N 
ATOM      6  N   UNL     1       6.967   4.937  15.638  0.00  0.00    +0.000 N 
ATOM      7  H   UNL     1       6.729   3.708  12.741  0.00  0.00    +0.000 HD
ATOM      8  H   UNL     1       7.603   5.751  12.680  0.00  0.00    +0.000 HD
ATOM      9  H   UNL     1       8.007   6.393  14.192  0.00  0.00    +0.000 HD
ATOM     10  H   UNL     1       6.347   4.290  16.118  0.00  0.00    +0.000 HD
ENDBRANCH   1   6
BRANCH   2  11
ATOM     11  C   UNL     1       5.728   6.119  17.971  0.00  0.00    +0.000 A 
ATOM     12  C   UNL     1       5.660   5.205  19.034  0.00  0.00    +0.000 A 
ATOM     13  C   UNL     1       4.429   4.851  19.597  0.00  0.00    +0.000 A 
ATOM     14  C   UNL     1       3.260   5.452  19.141  0.00  0.00    +0.000 A 
ATOM     15 CL   UNL     1       1.751   5.044  19.858  0.00  0.00    +0.000 Cl
ATOM     16  C   UNL     1       3.310   6.391  18.114  0.00  0.00    +0.000 A 
ATOM     17  C   UNL     1       4.536   6.711  17.520  0.00  0.00    +0.000 A 
ENDBRANCH   2  11
BRANCH   2  18
ATOM     18  C   UNL     1       7.770   7.605  18.035  0.00  0.00    +0.000 C 
ATOM     19  C   UNL     1       7.786   8.846  17.520  0.00  0.00    +0.000 C 
BRANCH  19  20
ATOM     20  C   UNL     1       8.505   9.940  18.174  0.00  0.00    +0.000 A 
ATOM     21  C   UNL     1       8.476  11.221  17.609  0.00  0.00    +0.000 A 
ATOM     22  C   UNL     1       9.167  12.276  18.211  0.00  0.00    +0.000 A 
ATOM     23  C   UNL     1       9.895  12.056  19.378  0.00  0.00    +0.000 A 
ATOM     24  C   UNL     1       9.934  10.782  19.945  0.00  0.00    +0.000 A 
ATOM     25  C   UNL     1       9.243   9.725  19.343  0.00  0.00    +0.000 A 
ENDBRANCH  19  20
ENDBRANCH   2  18
TORSDOF 4
ENDMDL
MODEL 4
REMARK VINA RESULT:      -8.3      0.125      1.061
REMARK  Name = 
REMARK  4 active torsions:
REMARK  status: ('A' for Active; 'I' for Inactive)
REMARK    1  A    between atoms: N_4  and  N_5
REMARK    2  A    between atoms: C_6  and  C_7
REMARK    3  A    between atoms: C_6  and  C_15
REMARK    4  A    between atoms: C_8  and  C_9
REMARK                            x       y       z     vdW  Elec       q    Type
REMARK                         _______ _______ _______ _____ _____    ______ ____
ROOT
ATOM      1  N   UNL     1       7.594   5.988  16.194  0.00  0.00    +0.000 NA
ATOM      2  C   UNL     1       7.062   6.582  17.231  0.00  0.00    +0.000 C 
ENDROOT
BRANCH   1   6
ATOM      3  N   UNL     1       6.354   3.766  13.657  0.00  0.00    +0.000 NA
ATOM      4  C   UNL     1       7.024   4.716  14.209  0.00  0.00    +0.000 C 
ATOM      5  N   UNL     1       7.945   5.449  13.544  0.00  0.00    +0.000 N 
ATOM      6  N   UNL     1       6.874   5.048  15.523  0.00  0.00    +0.000 N 
ATOM      7  H   UNL     1       6.674   3.672  12.689  0.00  0.00    +0.000 HD
ATOM      8  H   UNL     1       7.749   5.613  12.568  0.00  0.00    +0.000 HD
ATOM      9  H   UNL     1       8.132   6.305  14.063  0.00  0.00    +0.000 HD
ATOM     10  H   UNL     1       6.168   4.494  16.000  0.00  0.00    +0.000 HD
ENDBRANCH   1   6
BRANCH   2  11
ATOM     11  C   UNL     1       5.755   6.250  17.906  0.00  0.00    +0.000 A 
ATOM     12  C   UNL     1       4.547   6.819  17.474  0.00  0.00    +0.000 A 
ATOM     13  C   UNL     1       3.343   6.523  18.123  0.00  0.00    +0.000 A 
ATOM     14  C   UNL     1       3.328   5.610  19.172  0.00  0.00    +0.000 A 
ATOM     15 CL   UNL     1       1.843   5.219  19.946  0.00  0.00    +0.000 Cl
ATOM     16  C   UNL     1       4.510   5.005  19.591  0.00  0.00    +0.000 A 
ATOM     17  C   UNL     1       5.721   5.335  18.972  0.00  0.00    +0.000 A 
ENDBRANCH   2  11
BRANCH   2  18
ATOM     18  C   UNL     1       7.846   7.668  17.910  0.00  0.00    +0.000 C 
ATOM     19  C   UNL     1       7.695   8.955  17.556  0.00  0.00    +0.000 C 
BRANCH  19  20
ATOM     20  C   UNL     1       8.466  10.023  18.193  0.00  0.00    +0.000 A 
ATOM     21  C   UNL     1       9.155   9.762  19.384  0.00  0.00    +0.000 A 
ATOM     22  C   UNL     1       9.886  10.773  20.014  0.00  0.00    +0.000 A 
ATOM     23  C   UNL     1       9.928  12.051  19.461  0.00  0.00    +0.000 A 
ATOM     24  C   UNL     1       9.240  12.321  18.278  0.00  0.00    +0.000 A 
ATOM     25  C   UNL     1       8.508  11.310  17.646  0.00  0.00    +0.000 A 
ENDBRANCH  19  20
ENDBRANCH   2  18
TORSDOF 4
ENDMDL
MODEL 5
REMARK VINA RESULT:      -7.8      4.948      6.206
REMARK  Name = 
REMARK  4 active torsions:
REMARK  status: ('A' for Active; 'I' for Inactive)
REMARK    1  A    between atoms: N_4  and  N_5
REMARK    2  A    between atoms: C_6  and  C_7
REMARK    3  A    between atoms: C_6  and  C_15
REMARK    4  A    between atoms: C_8  and  C_9
REMARK                            x       y       z     vdW  Elec       q    Type
REMARK                         _______ _______ _______ _____ _____    ______ ____
ROOT
ATOM      1  N   UNL     1       3.669   3.766  19.635  0.00  0.00    +0.000 NA
ATOM      2  C   UNL     1       3.989   4.826  18.938  0.00  0.00    +0.000 C 
ENDROOT
BRANCH   1   6
ATOM      3  N   UNL     1       4.306   0.448  18.412  0.00  0.00    +0.000 NA
ATOM      4  C   UNL     1       3.665   1.521  18.716  0.00  0.00    +0.000 C 
ATOM      5  N   UNL     1       2.358   1.706  18.423  0.00  0.00    +0.000 N 
ATOM      6  N   UNL     1       4.260   2.575  19.344  0.00  0.00    +0.000 N 
ATOM      7  H   UNL     1       3.668  -0.171  17.905  0.00  0.00    +0.000 HD
ATOM      8  H   UNL     1       1.784   0.876  18.448  0.00  0.00    +0.000 HD
ATOM      9  H   UNL     1       1.989   2.465  18.991  0.00  0.00    +0.000 HD
ATOM     10  H   UNL     1       5.237   2.410  19.569  0.00  0.00    +0.000 HD
ENDBRANCH   1   6
BRANCH   2  11
ATOM     11  C   UNL     1       4.854   4.884  17.705  0.00  0.00    +0.000 A 
ATOM     12  C   UNL     1       4.439   4.307  16.495  0.00  0.00    +0.000 A 
ATOM     13  C   UNL     1       5.261   4.345  15.363  0.00  0.00    +0.000 A 
ATOM     14  C   UNL     1       6.480   5.013  15.415  0.00  0.00    +0.000 A 
ATOM     15 CL   UNL     1       7.474   5.092  14.014  0.00  0.00    +0.000 Cl
ATOM     16  C   UNL     1       6.893   5.626  16.595  0.00  0.00    +0.000 A 
ATOM     17  C   UNL     1       6.092   5.549  17.740  0.00  0.00    +0.000 A 
ENDBRANCH   2  11
BRANCH   2  18
ATOM     18  C   UNL     1       3.381   6.143  19.325  0.00  0.00    +0.000 C 
ATOM     19  C   UNL     1       2.606   6.827  18.467  0.00  0.00    +0.000 C 
BRANCH  19  20
ATOM     20  C   UNL     1       2.023   8.122  18.820  0.00  0.00    +0.000 A 
ATOM     21  C   UNL     1       2.043   9.166  17.887  0.00  0.00    +0.000 A 
ATOM     22  C   UNL     1       1.503  10.414  18.211  0.00  0.00    +0.000 A 
ATOM     23  C   UNL     1       0.947  10.627  19.471  0.00  0.00    +0.000 A 
ATOM     24  C   UNL     1       0.929   9.595  20.408  0.00  0.00    +0.000 A 
ATOM     25  C   UNL     1       1.469   8.345  20.085  0.00  0.00    +0.000 A 
ENDBRANCH  19  20
ENDBRANCH   2  18
TORSDOF 4
ENDMDL
MODEL 6
REMARK VINA RESULT:      -7.7      3.108      6.729
REMARK  Name = 
REMARK  4 active torsions:
REMARK  status: ('A' for Active; 'I' for Inactive)
REMARK    1  A    between atoms: N_4  and  N_5
REMARK    2  A    between atoms: C_6  and  C_7
REMARK    3  A    between atoms: C_6  and  C_15
REMARK    4  A    between atoms: C_8  and  C_9
REMARK                            x       y       z     vdW  Elec       q    Type
REMARK                         _______ _______ _______ _____ _____    ______ ____
ROOT
ATOM      1  N   UNL     1       5.512   3.961  15.101  0.00  0.00    +0.000 NA
ATOM      2  C   UNL     1       5.473   4.400  16.333  0.00  0.00    +0.000 C 
ENDROOT
BRANCH   1   6
ATOM      3  N   UNL     1       7.547   4.567  12.203  0.00  0.00    +0.000 NA
ATOM      4  C   UNL     1       6.663   4.029  12.968  0.00  0.00    +0.000 C 
ATOM      5  N   UNL     1       5.840   3.039  12.556  0.00  0.00    +0.000 N 
ATOM      6  N   UNL     1       6.470   4.430  14.256  0.00  0.00    +0.000 N 
ATOM      7  H   UNL     1       7.470   4.140  11.276  0.00  0.00    +0.000 HD
ATOM      8  H   UNL     1       6.232   2.396  11.884  0.00  0.00    +0.000 HD
ATOM      9  H   UNL     1       5.440   2.574  13.368  0.00  0.00    +0.000 HD
ATOM     10  H   UNL     1       7.108   5.164  14.549  0.00  0.00    +0.000 HD
ENDBRANCH   1   6
BRANCH   2  11
ATOM     11  C   UNL     1       6.292   5.514  16.933  0.00  0.00    +0.000 A 
ATOM     12  C   UNL     1       6.069   6.854  16.582  0.00  0.00    +0.000 A 
ATOM     13  C   UNL     1       6.852   7.878  17.128  0.00  0.00    +0.000 A 
ATOM     14  C   UNL     1       7.825   7.576  18.074  0.00  0.00    +0.000 A 
ATOM     15 CL   UNL     1       8.762   8.838  18.772  0.00  0.00    +0.000 Cl
ATOM     16  C   UNL     1       8.036   6.257  18.466  0.00  0.00    +0.000 A 
ATOM     17  C   UNL     1       7.284   5.228  17.887  0.00  0.00    +0.000 A 
ENDBRANCH   2  11
BRANCH   2  18
ATOM     18  C   UNL     1       4.455   3.813  17.267  0.00  0.00    +0.000 C 
ATOM     19  C   UNL     1       3.669   4.601  18.019  0.00  0.00    +0.000 C 
BRANCH  19  20
ATOM     20  C   UNL     1       2.687   4.045  18.950  0.00  0.00    +0.000 A 
ATOM     21  C   UNL     1       2.789   4.334  20.317  0.00  0.00    +0.000 A 
ATOM     22  C   UNL     1       1.868   3.802  21.223  0.00  0.00    +0.000 A 
ATOM     23  C   UNL     1       0.844   2.972  20.769  0.00  0.00    +0.000 A 
ATOM     24  C   UNL     1       0.738   2.675  19.412  0.00  0.00    +0.000 A 
ATOM     25  C   UNL     1       1.660   3.207  18.503  0.00  0.00    +0.000 A 
ENDBRANCH  19  20
ENDBRANCH   2  18
TORSDOF 4
ENDMDL
MODEL 7
REMARK VINA RESULT:      -7.7      3.058      6.800
REMARK  Name = 
REMARK  4 active torsions:
REMARK  status: ('A' for Active; 'I' for Inactive)
REMARK    1  A    between atoms: N_4  and  N_5
REMARK    2  A    between atoms: C_6  and  C_7
REMARK    3  A    between atoms: C_6  and  C_15
REMARK    4  A    between atoms: C_8  and  C_9
REMARK                            x       y       z     vdW  Elec       q    Type
REMARK                         _______ _______ _______ _____ _____    ______ ____
ROOT
ATOM      1  N   UNL     1       5.592   4.043  15.189  0.00  0.00    +0.000 NA
ATOM      2  C   UNL     1       5.557   4.462  16.428  0.00  0.00    +0.000 C 
ENDROOT
BRANCH   1   6
ATOM      3  N   UNL     1       7.642   4.671  12.305  0.00  0.00    +0.000 NA
ATOM      4  C   UNL     1       6.762   4.120  13.066  0.00  0.00    +0.000 C 
ATOM      5  N   UNL     1       5.963   3.110  12.654  0.00  0.00    +0.000 N 
ATOM      6  N   UNL     1       6.548   4.526  14.349  0.00  0.00    +0.000 N 
ATOM      7  H   UNL     1       7.582   4.235  11.381  0.00  0.00    +0.000 HD
ATOM      8  H   UNL     1       6.375   2.470  11.991  0.00  0.00    +0.000 HD
ATOM      9  H   UNL     1       5.566   2.642  13.466  0.00  0.00    +0.000 HD
ATOM     10  H   UNL     1       7.168   5.276  14.643  0.00  0.00    +0.000 HD
ENDBRANCH   1   6
BRANCH   2  11
ATOM     11  C   UNL     1       6.378   5.565  17.045  0.00  0.00    +0.000 A 
ATOM     12  C   UNL     1       7.330   5.296  18.040  0.00  0.00    +0.000 A 
ATOM     13  C   UNL     1       8.070   6.331  18.623  0.00  0.00    +0.000 A 
ATOM     14  C   UNL     1       7.904   7.638  18.175  0.00  0.00    +0.000 A 
ATOM     15 CL   UNL     1       8.839   8.905  18.867  0.00  0.00    +0.000 Cl
ATOM     16  C   UNL     1       6.992   7.921  17.162  0.00  0.00    +0.000 A 
ATOM     17  C   UNL     1       6.220   6.892  16.610  0.00  0.00    +0.000 A 
ENDBRANCH   2  11
BRANCH   2  18
ATOM     18  C   UNL     1       4.540   3.859  17.354  0.00  0.00    +0.000 C 
ATOM     19  C   UNL     1       3.684   4.634  18.040  0.00  0.00    +0.000 C 
BRANCH  19  20
ATOM     20  C   UNL     1       2.701   4.065  18.963  0.00  0.00    +0.000 A 
ATOM     21  C   UNL     1       2.811   4.325  20.335  0.00  0.00    +0.000 A 
ATOM     22  C   UNL     1       1.890   3.779  21.234  0.00  0.00    +0.000 A 
ATOM     23  C   UNL     1       0.859   2.965  20.768  0.00  0.00    +0.000 A 
ATOM     24  C   UNL     1       0.747   2.697  19.404  0.00  0.00    +0.000 A 
ATOM     25  C   UNL     1       1.667   3.243  18.503  0.00  0.00    +0.000 A 
ENDBRANCH  19  20
ENDBRANCH   2  18
TORSDOF 4
ENDMDL
MODEL 8
REMARK VINA RESULT:      -7.7      4.940      6.315
REMARK  Name = 
REMARK  4 active torsions:
REMARK  status: ('A' for Active; 'I' for Inactive)
REMARK    1  A    between atoms: N_4  and  N_5
REMARK    2  A    between atoms: C_6  and  C_7
REMARK    3  A    between atoms: C_6  and  C_15
REMARK    4  A    between atoms: C_8  and  C_9
REMARK                            x       y       z     vdW  Elec       q    Type
REMARK                         _______ _______ _______ _____ _____    ______ ____
ROOT
ATOM      1  N   UNL     1       3.560   3.802  19.671  0.00  0.00    +0.000 NA
ATOM      2  C   UNL     1       3.896   4.868  18.991  0.00  0.00    +0.000 C 
ENDROOT
BRANCH   1   6
ATOM      3  N   UNL     1       4.238   0.504  18.417  0.00  0.00    +0.000 NA
ATOM      4  C   UNL     1       3.588   1.575  18.711  0.00  0.00    +0.000 C 
ATOM      5  N   UNL     1       2.297   1.772  18.359  0.00  0.00    +0.000 N 
ATOM      6  N   UNL     1       4.157   2.613  19.386  0.00  0.00    +0.000 N 
ATOM      7  H   UNL     1       3.621  -0.102  17.869  0.00  0.00    +0.000 HD
ATOM      8  H   UNL     1       1.719   0.945  18.342  0.00  0.00    +0.000 HD
ATOM      9  H   UNL     1       1.905   2.522  18.924  0.00  0.00    +0.000 HD
ATOM     10  H   UNL     1       5.122   2.439  19.653  0.00  0.00    +0.000 HD
ENDBRANCH   1   6
BRANCH   2  11
ATOM     11  C   UNL     1       4.792   4.936  17.780  0.00  0.00    +0.000 A 
ATOM     12  C   UNL     1       6.048   5.559  17.837  0.00  0.00    +0.000 A 
ATOM     13  C   UNL     1       6.861   5.637  16.701  0.00  0.00    +0.000 A 
ATOM     14  C   UNL     1       6.450   5.042  15.513  0.00  0.00    +0.000 A 
ATOM     15 CL   UNL     1       7.465   5.107  14.126  0.00  0.00    +0.000 Cl
ATOM     16  C   UNL     1       5.224   4.385  15.445  0.00  0.00    +0.000 A 
ATOM     17  C   UNL     1       4.391   4.345  16.570  0.00  0.00    +0.000 A 
ENDBRANCH   2  11
BRANCH   2  18
ATOM     18  C   UNL     1       3.278   6.182  19.373  0.00  0.00    +0.000 C 
ATOM     19  C   UNL     1       2.610   6.921  18.472  0.00  0.00    +0.000 C 
BRANCH  19  20
ATOM     20  C   UNL     1       2.020   8.213  18.822  0.00  0.00    +0.000 A 
ATOM     21  C   UNL     1       1.456   8.394  20.092  0.00  0.00    +0.000 A 
ATOM     22  C   UNL     1       0.876   9.617  20.440  0.00  0.00    +0.000 A 
ATOM     23  C   UNL     1       0.850  10.663  19.520  0.00  0.00    +0.000 A 
ATOM     24  C   UNL     1       1.403  10.490  18.253  0.00  0.00    +0.000 A 
ATOM     25  C   UNL     1       1.985   9.266  17.902  0.00  0.00    +0.000 A 
ENDBRANCH  19  20
ENDBRANCH   2  18
TORSDOF 4
ENDMDL
MODEL 9
REMARK VINA RESULT:      -7.7      4.971      6.294
REMARK  Name = 
REMARK  4 active torsions:
REMARK  status: ('A' for Active; 'I' for Inactive)
REMARK    1  A    between atoms: N_4  and  N_5
REMARK    2  A    between atoms: C_6  and  C_7
REMARK    3  A    between atoms: C_6  and  C_15
REMARK    4  A    between atoms: C_8  and  C_9
REMARK                            x       y       z     vdW  Elec       q    Type
REMARK                         _______ _______ _______ _____ _____    ______ ____
ROOT
ATOM      1  N   UNL     1       3.536   3.719  19.750  0.00  0.00    +0.000 NA
ATOM      2  C   UNL     1       3.848   4.783  19.057  0.00  0.00    +0.000 C 
ENDROOT
BRANCH   1   6
ATOM      3  N   UNL     1       4.295   0.443  18.484  0.00  0.00    +0.000 NA
ATOM      4  C   UNL     1       3.624   1.504  18.765  0.00  0.00    +0.000 C 
ATOM      5  N   UNL     1       2.346   1.693  18.366  0.00  0.00    +0.000 N 
ATOM      6  N   UNL     1       4.156   2.539  19.475  0.00  0.00    +0.000 N 
ATOM      7  H   UNL     1       3.707  -0.162  17.905  0.00  0.00    +0.000 HD
ATOM      8  H   UNL     1       1.777   0.861  18.316  0.00  0.00    +0.000 HD
ATOM      9  H   UNL     1       1.925   2.433  18.924  0.00  0.00    +0.000 HD
ATOM     10  H   UNL     1       5.112   2.370  19.777  0.00  0.00    +0.000 HD
ENDBRANCH   1   6
BRANCH   2  11
ATOM     11  C   UNL     1       4.737   4.856  17.841  0.00  0.00    +0.000 A 
ATOM     12  C   UNL     1       4.333   4.320  16.609  0.00  0.00    +0.000 A 
ATOM     13  C   UNL     1       5.176   4.372  15.493  0.00  0.00    +0.000 A 
ATOM     14  C   UNL     1       6.407   5.013  15.585  0.00  0.00    +0.000 A 
ATOM     15 CL   UNL     1       7.428   5.108  14.205  0.00  0.00    +0.000 Cl
ATOM     16  C   UNL     1       6.811   5.586  16.788  0.00  0.00    +0.000 A 
ATOM     17  C   UNL     1       5.987   5.494  17.916  0.00  0.00    +0.000 A 
ENDBRANCH   2  11
BRANCH   2  18
ATOM     18  C   UNL     1       3.206   6.089  19.428  0.00  0.00    +0.000 C 
ATOM     19  C   UNL     1       2.667   6.886  18.491  0.00  0.00    +0.000 C 
BRANCH  19  20
ATOM     20  C   UNL     1       2.056   8.171  18.834  0.00  0.00    +0.000 A 
ATOM     21  C   UNL     1       1.505   8.357  20.108  0.00  0.00    +0.000 A 
ATOM     22  C   UNL     1       0.905   9.572  20.449  0.00  0.00    +0.000 A 
ATOM     23  C   UNL     1       0.847  10.606  19.517  0.00  0.00    +0.000 A 
ATOM     24  C   UNL     1       1.388  10.428  18.244  0.00  0.00    +0.000 A 
ATOM     25  C   UNL     1       1.989   9.212  17.901  0.00  0.00    +0.000 A 
ENDBRANCH  19  20
ENDBRANCH   2  18
TORSDOF 4
ENDMDL
