MODEL 1
REMARK VINA RESULT:      -7.3      0.000      0.000
REMARK  Name = 
REMARK  5 active torsions:
REMARK  status: ('A' for Active; 'I' for Inactive)
REMARK    1  A    between atoms: C_1  and  C_2
REMARK    2  A    between atoms: C_5  and  C_6
REMARK    3  A    between atoms: C_6  and  N_7
REMARK    4  A    between atoms: N_7  and  C_8
REMARK    5  A    between atoms: C_14  and  N_15
REMARK                            x       y       z     vdW  Elec       q    Type
REMARK                         _______ _______ _______ _____ _____    ______ ____
ROOT
ATOM      1  C   UNL     1       3.089   4.675  19.097  0.00  0.00    +0.000 A 
ATOM      2  C   UNL     1       1.911   4.190  19.703  0.00  0.00    +0.000 A 
ATOM      3  F   UNL     1       1.118   5.016  20.402  0.00  0.00    +0.000 F 
ATOM      4  C   UNL     1       1.510   2.860  19.605  0.00  0.00    +0.000 A 
ATOM      5  C   UNL     1       2.274   1.960  18.877  0.00  0.00    +0.000 A 
ATOM      6  C   UNL     1       3.452   2.391  18.270  0.00  0.00    +0.000 A 
ATOM      7  C   UNL     1       3.880   3.734  18.381  0.00  0.00    +0.000 A 
ENDROOT
BRANCH   7   8
ATOM      8  N   UNL     1       5.137   4.106  17.793  0.00  0.00    +0.000 N 
ATOM      9  C   UNL     1       5.482   4.129  16.451  0.00  0.00    +0.000 A 
ATOM     10  C   UNL     1       6.816   4.436  16.367  0.00  0.00    +0.000 A 
ATOM     11  C   UNL     1       7.218   4.619  17.694  0.00  0.00    +0.000 A 
ATOM     12  N   UNL     1       6.219   4.442  18.556  0.00  0.00    +0.000 NA
ENDBRANCH   7   8
BRANCH   1  13
ATOM     13  N   UNL     1       3.420   6.022  19.107  0.00  0.00    +0.000 N 
ATOM     14  H   UNL     1       3.457   6.448  20.042  0.00  0.00    +0.000 HD
BRANCH  13  15
ATOM     15  C   UNL     1       3.287   6.965  18.003  0.00  0.00    +0.000 C 
BRANCH  15  20
ATOM     16  C   UNL     1       0.318   9.615  20.775  0.00  0.00    +0.000 C 
ATOM     17  C   UNL     1       1.070   9.305  19.548  0.00  0.00    +0.000 A 
ATOM     18  C   UNL     1       1.196   9.889  18.311  0.00  0.00    +0.000 A 
ATOM     19  N   UNL     1       2.049   9.152  17.527  0.00  0.00    +0.000 NA
ATOM     20  C   UNL     1       2.405   8.145  18.306  0.00  0.00    +0.000 A 
ATOM     21  O   UNL     1       1.848   8.183  19.561  0.00  0.00    +0.000 OA
ENDBRANCH  15  20
ENDBRANCH  13  15
ENDBRANCH   1  13
TORSDOF 4
ENDMDL
MODEL 2
REMARK VINA RESULT:      -7.0      1.242      1.432
REMARK  Name = 
REMARK  5 active torsions:
REMARK  status: ('A' for Active; 'I' for Inactive)
REMARK    1  A    between atoms: C_1  and  C_2
REMARK    2  A    between atoms: C_5  and  C_6
REMARK    3  A    between atoms: C_6  and  N_7
REMARK    4  A    between atoms: N_7  and  C_8
REMARK    5  A    between atoms: C_14  and  N_15
REMARK                            x       y       z     vdW  Elec       q    Type
REMARK                         _______ _______ _______ _____ _____    ______ ____
ROOT
ATOM      1  C   UNL     1       3.002   4.873  19.724  0.00  0.00    +0.000 A 
ATOM      2  C   UNL     1       1.885   4.073  20.040  0.00  0.00    +0.000 A 
ATOM      3  F   UNL     1       0.814   4.611  20.645  0.00  0.00    +0.000 F 
ATOM      4  C   UNL     1       1.826   2.714  19.740  0.00  0.00    +0.000 A 
ATOM      5  C   UNL     1       2.890   2.103  19.094  0.00  0.00    +0.000 A 
ATOM      6  C   UNL     1       4.020   2.851  18.773  0.00  0.00    +0.000 A 
ATOM      7  C   UNL     1       4.100   4.226  19.091  0.00  0.00    +0.000 A 
ENDROOT
BRANCH   7   8
ATOM      8  N   UNL     1       5.317   4.931  18.797  0.00  0.00    +0.000 N 
ATOM      9  C   UNL     1       5.736   5.446  17.581  0.00  0.00    +0.000 A 
ATOM     10  C   UNL     1       7.008   5.932  17.749  0.00  0.00    +0.000 A 
ATOM     11  C   UNL     1       7.293   5.709  19.100  0.00  0.00    +0.000 A 
ATOM     12  N   UNL     1       6.283   5.127  19.742  0.00  0.00    +0.000 NA
ENDBRANCH   7   8
BRANCH   1  13
ATOM     13  N   UNL     1       3.004   6.245  19.925  0.00  0.00    +0.000 N 
ATOM     14  H   UNL     1       3.101   6.535  20.907  0.00  0.00    +0.000 HD
BRANCH  13  15
ATOM     15  C   UNL     1       2.466   7.263  19.031  0.00  0.00    +0.000 C 
BRANCH  15  20
ATOM     16  C   UNL     1       0.265   9.319  22.831  0.00  0.00    +0.000 C 
ATOM     17  C   UNL     1       0.702   9.242  21.428  0.00  0.00    +0.000 A 
ATOM     18  C   UNL     1       0.538  10.028  20.313  0.00  0.00    +0.000 A 
ATOM     19  N   UNL     1       1.173   9.460  19.238  0.00  0.00    +0.000 NA
ATOM     20  C   UNL     1       1.693   8.348  19.728  0.00  0.00    +0.000 A 
ATOM     21  O   UNL     1       1.450   8.158  21.066  0.00  0.00    +0.000 OA
ENDBRANCH  15  20
ENDBRANCH  13  15
ENDBRANCH   1  13
TORSDOF 4
ENDMDL
MODEL 3
REMARK VINA RESULT:      -7.0      0.965      1.167
REMARK  Name = 
REMARK  5 active torsions:
REMARK  status: ('A' for Active; 'I' for Inactive)
REMARK    1  A    between atoms: C_1  and  C_2
REMARK    2  A    between atoms: C_5  and  C_6
REMARK    3  A    between atoms: C_6  and  N_7
REMARK    4  A    between atoms: N_7  and  C_8
REMARK    5  A    between atoms: C_14  and  N_15
REMARK                            x       y       z     vdW  Elec       q    Type
REMARK                         _______ _______ _______ _____ _____    ______ ____
ROOT
ATOM      1  C   UNL     1       3.045   4.505  19.098  0.00  0.00    +0.000 A 
ATOM      2  C   UNL     1       1.842   3.956  19.588  0.00  0.00    +0.000 A 
ATOM      3  F   UNL     1       1.027   4.691  20.362  0.00  0.00    +0.000 F 
ATOM      4  C   UNL     1       1.437   2.656  19.297  0.00  0.00    +0.000 A 
ATOM      5  C   UNL     1       2.222   1.854  18.484  0.00  0.00    +0.000 A 
ATOM      6  C   UNL     1       3.426   2.349  17.986  0.00  0.00    +0.000 A 
ATOM      7  C   UNL     1       3.858   3.659  18.292  0.00  0.00    +0.000 A 
ENDROOT
BRANCH   7   8
ATOM      8  N   UNL     1       5.139   4.093  17.807  0.00  0.00    +0.000 N 
ATOM      9  C   UNL     1       5.576   4.170  16.494  0.00  0.00    +0.000 A 
ATOM     10  C   UNL     1       6.901   4.525  16.515  0.00  0.00    +0.000 A 
ATOM     11  C   UNL     1       7.202   4.678  17.873  0.00  0.00    +0.000 A 
ATOM     12  N   UNL     1       6.152   4.440  18.655  0.00  0.00    +0.000 NA
ENDBRANCH   7   8
BRANCH   1  13
ATOM     13  N   UNL     1       3.384   5.834  19.301  0.00  0.00    +0.000 N 
ATOM     14  H   UNL     1       3.755   6.045  20.236  0.00  0.00    +0.000 HD
BRANCH  13  15
ATOM     15  C   UNL     1       2.891   6.988  18.557  0.00  0.00    +0.000 C 
BRANCH  15  20
ATOM     16  C   UNL     1       0.259  10.995  19.287  0.00  0.00    +0.000 C 
ATOM     17  C   UNL     1       0.866   9.712  19.676  0.00  0.00    +0.000 A 
ATOM     18  C   UNL     1       0.913   8.969  20.832  0.00  0.00    +0.000 A 
ATOM     19  N   UNL     1       1.643   7.825  20.627  0.00  0.00    +0.000 NA
ATOM     20  C   UNL     1       2.021   7.913  19.364  0.00  0.00    +0.000 A 
ATOM     21  O   UNL     1       1.572   9.040  18.721  0.00  0.00    +0.000 OA
ENDBRANCH  15  20
ENDBRANCH  13  15
ENDBRANCH   1  13
TORSDOF 4
ENDMDL
MODEL 4
REMARK VINA RESULT:      -7.0      1.345      1.491
REMARK  Name = 
REMARK  5 active torsions:
REMARK  status: ('A' for Active; 'I' for Inactive)
REMARK    1  A    between atoms: C_1  and  C_2
REMARK    2  A    between atoms: C_5  and  C_6
REMARK    3  A    between atoms: C_6  and  N_7
REMARK    4  A    between atoms: N_7  and  C_8
REMARK    5  A    between atoms: C_14  and  N_15
REMARK                            x       y       z     vdW  Elec       q    Type
REMARK                         _______ _______ _______ _____ _____    ______ ____
ROOT
ATOM      1  C   UNL     1       2.826   4.479  19.504  0.00  0.00    +0.000 A 
ATOM      2  C   UNL     1       1.696   3.636  19.540  0.00  0.00    +0.000 A 
ATOM      3  F   UNL     1       0.737   3.825  20.460  0.00  0.00    +0.000 F 
ATOM      4  C   UNL     1       1.511   2.590  18.639  0.00  0.00    +0.000 A 
ATOM      5  C   UNL     1       2.453   2.356  17.650  0.00  0.00    +0.000 A 
ATOM      6  C   UNL     1       3.592   3.156  17.582  0.00  0.00    +0.000 A 
ATOM      7  C   UNL     1       3.801   4.207  18.504  0.00  0.00    +0.000 A 
ENDROOT
BRANCH   7   8
ATOM      8  N   UNL     1       5.026   4.955  18.428  0.00  0.00    +0.000 N 
ATOM      9  C   UNL     1       5.447   5.809  17.422  0.00  0.00    +0.000 A 
ATOM     10  C   UNL     1       6.725   6.208  17.720  0.00  0.00    +0.000 A 
ATOM     11  C   UNL     1       7.012   5.583  18.939  0.00  0.00    +0.000 A 
ATOM     12  N   UNL     1       5.998   4.846  19.382  0.00  0.00    +0.000 NA
ENDBRANCH   7   8
BRANCH   1  13
ATOM     13  N   UNL     1       2.946   5.584  20.332  0.00  0.00    +0.000 N 
ATOM     14  H   UNL     1       3.649   5.489  21.076  0.00  0.00    +0.000 HD
BRANCH  13  15
ATOM     15  C   UNL     1       1.950   6.626  20.554  0.00  0.00    +0.000 C 
BRANCH  15  20
ATOM     16  C   UNL     1       0.759  10.973  18.764  0.00  0.00    +0.000 C 
ATOM     17  C   UNL     1       1.408   9.652  18.731  0.00  0.00    +0.000 A 
ATOM     18  C   UNL     1       2.153   8.957  17.809  0.00  0.00    +0.000 A 
ATOM     19  N   UNL     1       2.507   7.732  18.316  0.00  0.00    +0.000 NA
ATOM     20  C   UNL     1       1.963   7.719  19.520  0.00  0.00    +0.000 A 
ATOM     21  O   UNL     1       1.282   8.867  19.841  0.00  0.00    +0.000 OA
ENDBRANCH  15  20
ENDBRANCH  13  15
ENDBRANCH   1  13
TORSDOF 4
ENDMDL
MODEL 5
REMARK VINA RESULT:      -7.0      0.991      1.038
REMARK  Name = 
REMARK  5 active torsions:
REMARK  status: ('A' for Active; 'I' for Inactive)
REMARK    1  A    between atoms: C_1  and  C_2
REMARK    2  A    between atoms: C_5  and  C_6
REMARK    3  A    between atoms: C_6  and  N_7
REMARK    4  A    between atoms: N_7  and  C_8
REMARK    5  A    between atoms: C_14  and  N_15
REMARK                            x       y       z     vdW  Elec       q    Type
REMARK                         _______ _______ _______ _____ _____    ______ ____
ROOT
ATOM      1  C   UNL     1       3.388   5.233  19.722  0.00  0.00    +0.000 A 
ATOM      2  C   UNL     1       2.270   4.807  20.468  0.00  0.00    +0.000 A 
ATOM      3  F   UNL     1       1.304   5.678  20.801  0.00  0.00    +0.000 F 
ATOM      4  C   UNL     1       2.104   3.489  20.884  0.00  0.00    +0.000 A 
ATOM      5  C   UNL     1       3.054   2.535  20.553  0.00  0.00    +0.000 A 
ATOM      6  C   UNL     1       4.182   2.912  19.827  0.00  0.00    +0.000 A 
ATOM      7  C   UNL     1       4.372   4.251  19.417  0.00  0.00    +0.000 A 
ENDROOT
BRANCH   7   8
ATOM      8  N   UNL     1       5.586   4.595  18.730  0.00  0.00    +0.000 N 
ATOM      9  C   UNL     1       5.935   4.319  17.418  0.00  0.00    +0.000 A 
ATOM     10  C   UNL     1       7.229   4.734  17.233  0.00  0.00    +0.000 A 
ATOM     11  C   UNL     1       7.600   5.283  18.466  0.00  0.00    +0.000 A 
ATOM     12  N   UNL     1       6.621   5.222  19.364  0.00  0.00    +0.000 NA
ENDBRANCH   7   8
BRANCH   1  13
ATOM     13  N   UNL     1       3.488   6.521  19.217  0.00  0.00    +0.000 N 
ATOM     14  H   UNL     1       3.868   7.212  19.877  0.00  0.00    +0.000 HD
BRANCH  13  15
ATOM     15  C   UNL     1       2.749   7.082  18.093  0.00  0.00    +0.000 C 
BRANCH  15  20
ATOM     16  C   UNL     1       0.260  10.245  20.798  0.00  0.00    +0.000 C 
ATOM     17  C   UNL     1       0.980   9.801  19.594  0.00  0.00    +0.000 A 
ATOM     18  C   UNL     1       1.261  10.356  18.369  0.00  0.00    +0.000 A 
ATOM     19  N   UNL     1       1.980   9.472  17.604  0.00  0.00    +0.000 NA
ATOM     20  C   UNL     1       2.105   8.410  18.381  0.00  0.00    +0.000 A 
ATOM     21  O   UNL     1       1.522   8.548  19.617  0.00  0.00    +0.000 OA
ENDBRANCH  15  20
ENDBRANCH  13  15
ENDBRANCH   1  13
TORSDOF 4
ENDMDL
MODEL 6
REMARK VINA RESULT:      -6.9      2.913      6.056
REMARK  Name = 
REMARK  5 active torsions:
REMARK  status: ('A' for Active; 'I' for Inactive)
REMARK    1  A    between atoms: C_1  and  C_2
REMARK    2  A    between atoms: C_5  and  C_6
REMARK    3  A    between atoms: C_6  and  N_7
REMARK    4  A    between atoms: N_7  and  C_8
REMARK    5  A    between atoms: C_14  and  N_15
REMARK                            x       y       z     vdW  Elec       q    Type
REMARK                         _______ _______ _______ _____ _____    ______ ____
ROOT
ATOM      1  C   UNL     1       3.801   5.686  17.993  0.00  0.00    +0.000 A 
ATOM      2  C   UNL     1       3.831   6.938  17.345  0.00  0.00    +0.000 A 
ATOM      3  F   UNL     1       4.594   7.120  16.256  0.00  0.00    +0.000 F 
ATOM      4  C   UNL     1       3.083   8.028  17.783  0.00  0.00    +0.000 A 
ATOM      5  C   UNL     1       2.257   7.899  18.889  0.00  0.00    +0.000 A 
ATOM      6  C   UNL     1       2.203   6.684  19.569  0.00  0.00    +0.000 A 
ATOM      7  C   UNL     1       2.974   5.577  19.146  0.00  0.00    +0.000 A 
ENDROOT
BRANCH   7   8
ATOM      8  N   UNL     1       2.930   4.370  19.925  0.00  0.00    +0.000 N 
ATOM      9  C   UNL     1       2.038   4.031  20.930  0.00  0.00    +0.000 A 
ATOM     10  C   UNL     1       2.448   2.838  21.468  0.00  0.00    +0.000 A 
ATOM     11  C   UNL     1       3.581   2.489  20.724  0.00  0.00    +0.000 A 
ATOM     12  N   UNL     1       3.869   3.388  19.787  0.00  0.00    +0.000 NA
ENDBRANCH   7   8
BRANCH   1  13
ATOM     13  N   UNL     1       4.461   4.578  17.484  0.00  0.00    +0.000 N 
ATOM     14  H   UNL     1       3.932   3.699  17.542  0.00  0.00    +0.000 HD
BRANCH  13  15
ATOM     15  C   UNL     1       5.899   4.422  17.300  0.00  0.00    +0.000 C 
BRANCH  15  20
ATOM     16  C   UNL     1       5.848   3.382  12.564  0.00  0.00    +0.000 C 
ATOM     17  C   UNL     1       6.330   4.075  13.769  0.00  0.00    +0.000 A 
ATOM     18  C   UNL     1       7.325   4.985  14.035  0.00  0.00    +0.000 A 
ATOM     19  N   UNL     1       7.334   5.296  15.372  0.00  0.00    +0.000 NA
ATOM     20  C   UNL     1       6.356   4.564  15.874  0.00  0.00    +0.000 A 
ATOM     21  O   UNL     1       5.694   3.799  14.945  0.00  0.00    +0.000 OA
ENDBRANCH  15  20
ENDBRANCH  13  15
ENDBRANCH   1  13
TORSDOF 4
ENDMDL
MODEL 7
REMARK VINA RESULT:      -6.9      0.947      1.249
REMARK  Name = 
REMARK  5 active torsions:
REMARK  status: ('A' for Active; 'I' for Inactive)
REMARK    1  A    between atoms: C_1  and  C_2
REMARK    2  A    between atoms: C_5  and  C_6
REMARK    3  A    between atoms: C_6  and  N_7
REMARK    4  A    between atoms: N_7  and  C_8
REMARK    5  A    between atoms: C_14  and  N_15
REMARK                            x       y       z     vdW  Elec       q    Type
REMARK                         _______ _______ _______ _____ _____    ______ ____
ROOT
ATOM      1  C   UNL     1       2.813   4.708  19.201  0.00  0.00    +0.000 A 
ATOM      2  C   UNL     1       1.957   4.493  20.301  0.00  0.00    +0.000 A 
ATOM      3  F   UNL     1       0.903   5.299  20.509  0.00  0.00    +0.000 F 
ATOM      4  C   UNL     1       2.146   3.452  21.206  0.00  0.00    +0.000 A 
ATOM      5  C   UNL     1       3.202   2.571  21.035  0.00  0.00    +0.000 A 
ATOM      6  C   UNL     1       4.081   2.751  19.969  0.00  0.00    +0.000 A 
ATOM      7  C   UNL     1       3.912   3.816  19.055  0.00  0.00    +0.000 A 
ENDROOT
BRANCH   7   8
ATOM      8  N   UNL     1       4.887   3.993  18.015  0.00  0.00    +0.000 N 
ATOM      9  C   UNL     1       6.170   4.507  18.122  0.00  0.00    +0.000 A 
ATOM     10  C   UNL     1       6.692   4.593  16.856  0.00  0.00    +0.000 A 
ATOM     11  C   UNL     1       5.686   4.087  16.027  0.00  0.00    +0.000 A 
ATOM     12  N   UNL     1       4.608   3.708  16.709  0.00  0.00    +0.000 NA
ENDBRANCH   7   8
BRANCH   1  13
ATOM     13  N   UNL     1       2.551   5.677  18.244  0.00  0.00    +0.000 N 
ATOM     14  H   UNL     1       2.063   5.332  17.407  0.00  0.00    +0.000 HD
BRANCH  13  15
ATOM     15  C   UNL     1       3.235   6.953  18.078  0.00  0.00    +0.000 C 
BRANCH  15  20
ATOM     16  C   UNL     1       0.310   9.746  20.754  0.00  0.00    +0.000 C 
ATOM     17  C   UNL     1       1.051   9.378  19.537  0.00  0.00    +0.000 A 
ATOM     18  C   UNL     1       1.176   9.909  18.276  0.00  0.00    +0.000 A 
ATOM     19  N   UNL     1       2.016   9.131  17.519  0.00  0.00    +0.000 NA
ATOM     20  C   UNL     1       2.367   8.154  18.336  0.00  0.00    +0.000 A 
ATOM     21  O   UNL     1       1.818   8.249  19.592  0.00  0.00    +0.000 OA
ENDBRANCH  15  20
ENDBRANCH  13  15
ENDBRANCH   1  13
TORSDOF 4
ENDMDL
MODEL 8
REMARK VINA RESULT:      -6.9      2.086      4.917
REMARK  Name = 
REMARK  5 active torsions:
REMARK  status: ('A' for Active; 'I' for Inactive)
REMARK    1  A    between atoms: C_1  and  C_2
REMARK    2  A    between atoms: C_5  and  C_6
REMARK    3  A    between atoms: C_6  and  N_7
REMARK    4  A    between atoms: N_7  and  C_8
REMARK    5  A    between atoms: C_14  and  N_15
REMARK                            x       y       z     vdW  Elec       q    Type
REMARK                         _______ _______ _______ _____ _____    ______ ____
ROOT
ATOM      1  C   UNL     1       2.714   3.982  18.681  0.00  0.00    +0.000 A 
ATOM      2  C   UNL     1       2.546   2.657  19.134  0.00  0.00    +0.000 A 
ATOM      3  F   UNL     1       2.921   1.624  18.365  0.00  0.00    +0.000 F 
ATOM      4  C   UNL     1       2.001   2.355  20.380  0.00  0.00    +0.000 A 
ATOM      5  C   UNL     1       1.615   3.378  21.232  0.00  0.00    +0.000 A 
ATOM      6  C   UNL     1       1.752   4.702  20.822  0.00  0.00    +0.000 A 
ATOM      7  C   UNL     1       2.283   5.021  19.552  0.00  0.00    +0.000 A 
ENDROOT
BRANCH   7   8
ATOM      8  N   UNL     1       2.338   6.402  19.155  0.00  0.00    +0.000 N 
ATOM      9  C   UNL     1       1.958   7.518  19.883  0.00  0.00    +0.000 A 
ATOM     10  C   UNL     1       2.079   8.612  19.065  0.00  0.00    +0.000 A 
ATOM     11  C   UNL     1       2.568   8.096  17.860  0.00  0.00    +0.000 A 
ATOM     12  N   UNL     1       2.745   6.778  17.907  0.00  0.00    +0.000 NA
ENDBRANCH   7   8
BRANCH   1  13
ATOM     13  N   UNL     1       3.360   4.275  17.488  0.00  0.00    +0.000 N 
ATOM     14  H   UNL     1       2.733   4.442  16.691  0.00  0.00    +0.000 HD
BRANCH  13  15
ATOM     15  C   UNL     1       4.736   3.951  17.134  0.00  0.00    +0.000 C 
BRANCH  15  20
ATOM     16  C   UNL     1       7.714   7.752  17.581  0.00  0.00    +0.000 C 
ATOM     17  C   UNL     1       7.100   6.486  18.009  0.00  0.00    +0.000 A 
ATOM     18  C   UNL     1       7.258   5.641  19.082  0.00  0.00    +0.000 A 
ATOM     19  N   UNL     1       6.406   4.571  18.969  0.00  0.00    +0.000 NA
ATOM     20  C   UNL     1       5.766   4.794  17.835  0.00  0.00    +0.000 A 
ATOM     21  O   UNL     1       6.137   5.954  17.201  0.00  0.00    +0.000 OA
ENDBRANCH  15  20
ENDBRANCH  13  15
ENDBRANCH   1  13
TORSDOF 4
ENDMDL
MODEL 9
REMARK VINA RESULT:      -6.9      2.687      5.497
REMARK  Name = 
REMARK  5 active torsions:
REMARK  status: ('A' for Active; 'I' for Inactive)
REMARK    1  A    between atoms: C_1  and  C_2
REMARK    2  A    between atoms: C_5  and  C_6
REMARK    3  A    between atoms: C_6  and  N_7
REMARK    4  A    between atoms: N_7  and  C_8
REMARK    5  A    between atoms: C_14  and  N_15
REMARK                            x       y       z     vdW  Elec       q    Type
REMARK                         _______ _______ _______ _____ _____    ______ ____
ROOT
ATOM      1  C   UNL     1       4.890   4.717  16.788  0.00  0.00    +0.000 A 
ATOM      2  C   UNL     1       6.084   4.280  16.178  0.00  0.00    +0.000 A 
ATOM      3  F   UNL     1       6.133   3.090  15.558  0.00  0.00    +0.000 F 
ATOM      4  C   UNL     1       7.248   5.043  16.176  0.00  0.00    +0.000 A 
ATOM      5  C   UNL     1       7.257   6.291  16.779  0.00  0.00    +0.000 A 
ATOM      6  C   UNL     1       6.103   6.760  17.405  0.00  0.00    +0.000 A 
ATOM      7  C   UNL     1       4.922   5.985  17.432  0.00  0.00    +0.000 A 
ENDROOT
BRANCH   7   8
ATOM      8  N   UNL     1       3.783   6.490  18.150  0.00  0.00    +0.000 N 
ATOM      9  C   UNL     1       3.022   7.613  17.868  0.00  0.00    +0.000 A 
ATOM     10  C   UNL     1       2.115   7.768  18.885  0.00  0.00    +0.000 A 
ATOM     11  C   UNL     1       2.358   6.687  19.740  0.00  0.00    +0.000 A 
ATOM     12  N   UNL     1       3.341   5.905  19.302  0.00  0.00    +0.000 NA
ENDBRANCH   7   8
BRANCH   1  13
ATOM     13  N   UNL     1       3.707   4.000  16.686  0.00  0.00    +0.000 N 
ATOM     14  H   UNL     1       2.896   4.551  16.376  0.00  0.00    +0.000 HD
BRANCH  13  15
ATOM     15  C   UNL     1       3.382   2.745  17.353  0.00  0.00    +0.000 C 
BRANCH  15  20
ATOM     16  C   UNL     1       1.585   2.498  21.851  0.00  0.00    +0.000 C 
ATOM     17  C   UNL     1       1.512   2.731  20.399  0.00  0.00    +0.000 A 
ATOM     18  C   UNL     1       0.511   3.057  19.516  0.00  0.00    +0.000 A 
ATOM     19  N   UNL     1       1.017   3.144  18.243  0.00  0.00    +0.000 NA
ATOM     20  C   UNL     1       2.300   2.863  18.392  0.00  0.00    +0.000 A 
ATOM     21  O   UNL     1       2.671   2.608  19.689  0.00  0.00    +0.000 OA
ENDBRANCH  15  20
ENDBRANCH  13  15
ENDBRANCH   1  13
TORSDOF 4
ENDMDL
