MODEL 1
REMARK VINA RESULT:      -7.6      0.000      0.000
REMARK  Name = 
REMARK  7 active torsions:
REMARK  status: ('A' for Active; 'I' for Inactive)
REMARK    1  A    between atoms: C_1  and  C_2
REMARK    2  A    between atoms: C_2  and  O_3
REMARK    3  A    between atoms: C_2  and  C_4
REMARK    4  A    between atoms: C_2  and  C_19
REMARK    5  A    between atoms: C_4  and  N_5
REMARK    6  A    between atoms: N_5  and  C_6
REMARK    7  A    between atoms: C_9  and  C_10
REMARK                            x       y       z     vdW  Elec       q    Type
REMARK                         _______ _______ _______ _____ _____    ______ ____
ROOT
ATOM      1  N   UNL     1       4.227   3.491  16.878  0.00  0.00    +0.000 NA
ATOM      2  H   UNL     1       3.948   2.699  16.297  0.00  0.00    +0.000 HD
ENDROOT
BRANCH   1   3
ATOM      3  C   UNL     1       3.844   3.182  18.282  0.00  0.00    +0.000 C 
ATOM      4  C   UNL     1       4.524   4.069  19.354  0.00  0.00    +0.000 C 
ATOM      5  C   UNL     1       3.947   5.453  19.453  0.00  0.00    +0.000 C 
ATOM      6  C   UNL     1       2.734   5.766  18.969  0.00  0.00    +0.000 C 
ATOM      7  C   UNL     1       1.820   4.758  18.320  0.00  0.00    +0.000 C 
ATOM      8  C   UNL     1       2.317   3.312  18.448  0.00  0.00    +0.000 C 
BRANCH   6   9
ATOM      9  C   UNL     1       2.280   7.161  18.994  0.00  0.00    +0.000 A 
ATOM     10  C   UNL     1       1.708   7.673  20.165  0.00  0.00    +0.000 A 
ATOM     11  C   UNL     1       1.258   8.991  20.211  0.00  0.00    +0.000 A 
ATOM     12  C   UNL     1       1.377   9.793  19.082  0.00  0.00    +0.000 A 
ATOM     13  F   UNL     1       0.943  11.059  19.126  0.00  0.00    +0.000 F 
ATOM     14  C   UNL     1       1.936   9.300  17.908  0.00  0.00    +0.000 A 
ATOM     15  C   UNL     1       2.388   7.979  17.861  0.00  0.00    +0.000 A 
ENDBRANCH   6   9
ENDBRANCH   1   3
BRANCH   1  16
ATOM     16  C   UNL     1       5.690   3.689  16.743  0.00  0.00    +0.000 C 
BRANCH  16  18
ATOM     17  C   UNL     1       6.929   4.706  14.721  0.00  0.00    +0.000 C 
ATOM     18  C   UNL     1       6.089   4.991  15.972  0.00  0.00    +0.000 C 
BRANCH  18  19
ATOM     19  C   UNL     1       6.840   5.932  16.922  0.00  0.00    +0.000 A 
ATOM     20  C   UNL     1       7.472   5.454  18.084  0.00  0.00    +0.000 A 
ATOM     21  C   UNL     1       8.193   6.315  18.919  0.00  0.00    +0.000 A 
ATOM     22  C   UNL     1       8.288   7.663  18.596  0.00  0.00    +0.000 A 
ATOM     23  F   UNL     1       8.986   8.487  19.388  0.00  0.00    +0.000 F 
ATOM     24  C   UNL     1       7.669   8.167  17.461  0.00  0.00    +0.000 A 
ATOM     25  C   UNL     1       6.947   7.308  16.630  0.00  0.00    +0.000 A 
ENDBRANCH  18  19
BRANCH  18  26
ATOM     26  O   UNL     1       4.874   5.604  15.511  0.00  0.00    +0.000 OA
ATOM     27  H   UNL     1       4.814   5.365  14.564  0.00  0.00    +0.000 HD
ENDBRANCH  18  26
ENDBRANCH  16  18
ENDBRANCH   1  16
TORSDOF 6
ENDMDL
MODEL 2
REMARK VINA RESULT:      -7.6      2.354      3.534
REMARK  Name = 
REMARK  7 active torsions:
REMARK  status: ('A' for Active; 'I' for Inactive)
REMARK    1  A    between atoms: C_1  and  C_2
REMARK    2  A    between atoms: C_2  and  O_3
REMARK    3  A    between atoms: C_2  and  C_4
REMARK    4  A    between atoms: C_2  and  C_19
REMARK    5  A    between atoms: C_4  and  N_5
REMARK    6  A    between atoms: N_5  and  C_6
REMARK    7  A    between atoms: C_9  and  C_10
REMARK                            x       y       z     vdW  Elec       q    Type
REMARK                         _______ _______ _______ _____ _____    ______ ____
ROOT
ATOM      1  N   UNL     1       4.491   3.785  16.927  0.00  0.00    +0.000 NA
ATOM      2  H   UNL     1       4.398   2.960  16.333  0.00  0.00    +0.000 HD
ENDROOT
BRANCH   1   3
ATOM      3  C   UNL     1       4.028   3.416  18.292  0.00  0.00    +0.000 C 
ATOM      4  C   UNL     1       4.588   4.304  19.433  0.00  0.00    +0.000 C 
ATOM      5  C   UNL     1       3.936   5.654  19.526  0.00  0.00    +0.000 C 
ATOM      6  C   UNL     1       2.744   5.922  18.967  0.00  0.00    +0.000 C 
ATOM      7  C   UNL     1       1.929   4.890  18.230  0.00  0.00    +0.000 C 
ATOM      8  C   UNL     1       2.489   3.467  18.354  0.00  0.00    +0.000 C 
BRANCH   6   9
ATOM      9  C   UNL     1       2.220   7.291  18.996  0.00  0.00    +0.000 A 
ATOM     10  C   UNL     1       1.691   7.796  20.192  0.00  0.00    +0.000 A 
ATOM     11  C   UNL     1       1.175   9.089  20.243  0.00  0.00    +0.000 A 
ATOM     12  C   UNL     1       1.185   9.874  19.096  0.00  0.00    +0.000 A 
ATOM     13  F   UNL     1       0.688  11.117  19.145  0.00  0.00    +0.000 F 
ATOM     14  C   UNL     1       1.699   9.388  17.899  0.00  0.00    +0.000 A 
ATOM     15  C   UNL     1       2.217   8.091  17.846  0.00  0.00    +0.000 A 
ENDBRANCH   6   9
ENDBRANCH   1   3
BRANCH   1  16
ATOM     16  C   UNL     1       5.910   4.213  16.930  0.00  0.00    +0.000 C 
BRANCH  16  18
ATOM     17  C   UNL     1       5.070   6.464  15.989  0.00  0.00    +0.000 C 
ATOM     18  C   UNL     1       6.209   5.437  16.002  0.00  0.00    +0.000 C 
BRANCH  18  19
ATOM     19  C   UNL     1       6.499   4.937  14.581  0.00  0.00    +0.000 A 
ATOM     20  C   UNL     1       7.577   5.438  13.830  0.00  0.00    +0.000 A 
ATOM     21  C   UNL     1       7.859   4.942  12.553  0.00  0.00    +0.000 A 
ATOM     22  C   UNL     1       7.064   3.937  12.017  0.00  0.00    +0.000 A 
ATOM     23  F   UNL     1       7.338   3.453  10.798  0.00  0.00    +0.000 F 
ATOM     24  C   UNL     1       5.988   3.426  12.729  0.00  0.00    +0.000 A 
ATOM     25  C   UNL     1       5.705   3.925  14.003  0.00  0.00    +0.000 A 
ENDBRANCH  18  19
BRANCH  18  26
ATOM     26  O   UNL     1       7.355   6.114  16.543  0.00  0.00    +0.000 OA
ATOM     27  H   UNL     1       6.996   6.913  16.978  0.00  0.00    +0.000 HD
ENDBRANCH  18  26
ENDBRANCH  16  18
ENDBRANCH   1  16
TORSDOF 6
ENDMDL
MODEL 3
REMARK VINA RESULT:      -7.6      2.352      3.603
REMARK  Name = 
REMARK  7 active torsions:
REMARK  status: ('A' for Active; 'I' for Inactive)
REMARK    1  A    between atoms: C_1  and  C_2
REMARK    2  A    between atoms: C_2  and  O_3
REMARK    3  A    between atoms: C_2  and  C_4
REMARK    4  A    between atoms: C_2  and  C_19
REMARK    5  A    between atoms: C_4  and  N_5
REMARK    6  A    between atoms: N_5  and  C_6
REMARK    7  A    between atoms: C_9  and  C_10
REMARK                            x       y       z     vdW  Elec       q    Type
REMARK                         _______ _______ _______ _____ _____    ______ ____
ROOT
ATOM      1  N   UNL     1       4.760   3.669  16.867  0.00  0.00    +0.000 NA
ATOM      2  H   UNL     1       4.912   2.845  16.284  0.00  0.00    +0.000 HD
ENDROOT
BRANCH   1   3
ATOM      3  C   UNL     1       4.204   3.210  18.169  0.00  0.00    +0.000 C 
ATOM      4  C   UNL     1       4.668   4.027  19.401  0.00  0.00    +0.000 C 
ATOM      5  C   UNL     1       3.994   5.363  19.532  0.00  0.00    +0.000 C 
ATOM      6  C   UNL     1       2.843   5.657  18.905  0.00  0.00    +0.000 C 
ATOM      7  C   UNL     1       2.097   4.668  18.047  0.00  0.00    +0.000 C 
ATOM      8  C   UNL     1       2.664   3.244  18.121  0.00  0.00    +0.000 C 
BRANCH   6   9
ATOM      9  C   UNL     1       2.300   7.017  18.983  0.00  0.00    +0.000 A 
ATOM     10  C   UNL     1       2.295   7.818  17.834  0.00  0.00    +0.000 A 
ATOM     11  C   UNL     1       1.797   9.118  17.884  0.00  0.00    +0.000 A 
ATOM     12  C   UNL     1       1.307   9.616  19.085  0.00  0.00    +0.000 A 
ATOM     13  F   UNL     1       0.828  10.866  19.134  0.00  0.00    +0.000 F 
ATOM     14  C   UNL     1       1.309   8.838  20.238  0.00  0.00    +0.000 A 
ATOM     15  C   UNL     1       1.809   7.534  20.189  0.00  0.00    +0.000 A 
ENDBRANCH   6   9
ENDBRANCH   1   3
BRANCH   1  16
ATOM     16  C   UNL     1       6.053   4.373  17.044  0.00  0.00    +0.000 C 
BRANCH  16  18
ATOM     17  C   UNL     1       5.110   6.524  15.974  0.00  0.00    +0.000 C 
ATOM     18  C   UNL     1       6.287   5.542  16.031  0.00  0.00    +0.000 C 
BRANCH  18  19
ATOM     19  C   UNL     1       6.568   4.958  14.640  0.00  0.00    +0.000 A 
ATOM     20  C   UNL     1       5.742   3.970  14.075  0.00  0.00    +0.000 A 
ATOM     21  C   UNL     1       5.983   3.479  12.788  0.00  0.00    +0.000 A 
ATOM     22  C   UNL     1       7.053   3.973  12.054  0.00  0.00    +0.000 A 
ATOM     23  F   UNL     1       7.280   3.512  10.817  0.00  0.00    +0.000 F 
ATOM     24  C   UNL     1       7.892   4.943  12.586  0.00  0.00    +0.000 A 
ATOM     25  C   UNL     1       7.653   5.431  13.873  0.00  0.00    +0.000 A 
ENDBRANCH  18  19
BRANCH  18  26
ATOM     26  O   UNL     1       7.417   6.295  16.500  0.00  0.00    +0.000 OA
ATOM     27  H   UNL     1       7.331   7.172  16.074  0.00  0.00    +0.000 HD
ENDBRANCH  18  26
ENDBRANCH  16  18
ENDBRANCH   1  16
TORSDOF 6
ENDMDL
MODEL 4
REMARK VINA RESULT:      -7.5      0.752      1.224
REMARK  Name = 
REMARK  7 active torsions:
REMARK  status: ('A' for Active; 'I' for Inactive)
REMARK    1  A    between atoms: C_1  and  C_2
REMARK    2  A    between atoms: C_2  and  O_3
REMARK    3  A    between atoms: C_2  and  C_4
REMARK    4  A    between atoms: C_2  and  C_19
REMARK    5  A    between atoms: C_4  and  N_5
REMARK    6  A    between atoms: N_5  and  C_6
REMARK    7  A    between atoms: C_9  and  C_10
REMARK                            x       y       z     vdW  Elec       q    Type
REMARK                         _______ _______ _______ _____ _____    ______ ____
ROOT
ATOM      1  N   UNL     1       3.713   2.835  17.594  0.00  0.00    +0.000 NA
ATOM      2  H   UNL     1       3.408   1.927  17.241  0.00  0.00    +0.000 HD
ENDROOT
BRANCH   1   3
ATOM      3  C   UNL     1       3.534   2.834  19.071  0.00  0.00    +0.000 C 
ATOM      4  C   UNL     1       4.411   3.857  19.835  0.00  0.00    +0.000 C 
ATOM      5  C   UNL     1       3.922   5.274  19.731  0.00  0.00    +0.000 C 
ATOM      6  C   UNL     1       2.666   5.580  19.368  0.00  0.00    +0.000 C 
ATOM      7  C   UNL     1       1.617   4.539  19.071  0.00  0.00    +0.000 C 
ATOM      8  C   UNL     1       2.058   3.111  19.418  0.00  0.00    +0.000 C 
BRANCH   6   9
ATOM      9  C   UNL     1       2.288   6.983  19.173  0.00  0.00    +0.000 A 
ATOM     10  C   UNL     1       1.655   7.673  20.215  0.00  0.00    +0.000 A 
ATOM     11  C   UNL     1       1.275   9.003  20.051  0.00  0.00    +0.000 A 
ATOM     12  C   UNL     1       1.524   9.641  18.842  0.00  0.00    +0.000 A 
ATOM     13  F   UNL     1       1.158  10.919  18.684  0.00  0.00    +0.000 F 
ATOM     14  C   UNL     1       2.146   8.971  17.793  0.00  0.00    +0.000 A 
ATOM     15  C   UNL     1       2.528   7.637  17.957  0.00  0.00    +0.000 A 
ENDBRANCH   6   9
ENDBRANCH   1   3
BRANCH   1  16
ATOM     16  C   UNL     1       5.132   3.039  17.217  0.00  0.00    +0.000 C 
BRANCH  16  18
ATOM     17  C   UNL     1       5.939   3.879  14.914  0.00  0.00    +0.000 C 
ATOM     18  C   UNL     1       5.373   4.272  16.284  0.00  0.00    +0.000 C 
BRANCH  18  19
ATOM     19  C   UNL     1       6.307   5.265  16.987  0.00  0.00    +0.000 A 
ATOM     20  C   UNL     1       6.246   6.645  16.726  0.00  0.00    +0.000 A 
ATOM     21  C   UNL     1       7.072   7.545  17.407  0.00  0.00    +0.000 A 
ATOM     22  C   UNL     1       7.967   7.071  18.358  0.00  0.00    +0.000 A 
ATOM     23  F   UNL     1       8.751   7.932  19.019  0.00  0.00    +0.000 F 
ATOM     24  C   UNL     1       8.057   5.713  18.634  0.00  0.00    +0.000 A 
ATOM     25  C   UNL     1       7.234   4.815  17.951  0.00  0.00    +0.000 A 
ENDBRANCH  18  19
BRANCH  18  26
ATOM     26  O   UNL     1       4.093   4.876  16.033  0.00  0.00    +0.000 OA
ATOM     27  H   UNL     1       3.668   4.943  16.912  0.00  0.00    +0.000 HD
ENDBRANCH  18  26
ENDBRANCH  16  18
ENDBRANCH   1  16
TORSDOF 6
ENDMDL
MODEL 5
REMARK VINA RESULT:      -7.4      2.397      3.261
REMARK  Name = 
REMARK  7 active torsions:
REMARK  status: ('A' for Active; 'I' for Inactive)
REMARK    1  A    between atoms: C_1  and  C_2
REMARK    2  A    between atoms: C_2  and  O_3
REMARK    3  A    between atoms: C_2  and  C_4
REMARK    4  A    between atoms: C_2  and  C_19
REMARK    5  A    between atoms: C_4  and  N_5
REMARK    6  A    between atoms: N_5  and  C_6
REMARK    7  A    between atoms: C_9  and  C_10
REMARK                            x       y       z     vdW  Elec       q    Type
REMARK                         _______ _______ _______ _____ _____    ______ ____
ROOT
ATOM      1  N   UNL     1       4.443   3.703  19.505  0.00  0.00    +0.000 NA
ATOM      2  H   UNL     1       4.583   4.670  19.799  0.00  0.00    +0.000 HD
ENDROOT
BRANCH   1   3
ATOM      3  C   UNL     1       2.990   3.400  19.615  0.00  0.00    +0.000 C 
ATOM      4  C   UNL     1       2.266   4.100  20.793  0.00  0.00    +0.000 C 
ATOM      5  C   UNL     1       1.991   5.559  20.556  0.00  0.00    +0.000 C 
ATOM      6  C   UNL     1       1.998   6.105  19.330  0.00  0.00    +0.000 C 
ATOM      7  C   UNL     1       2.240   5.308  18.073  0.00  0.00    +0.000 C 
ATOM      8  C   UNL     1       2.274   3.792  18.309  0.00  0.00    +0.000 C 
BRANCH   6   9
ATOM      9  C   UNL     1       1.838   7.555  19.180  0.00  0.00    +0.000 A 
ATOM     10  C   UNL     1       1.318   8.300  20.247  0.00  0.00    +0.000 A 
ATOM     11  C   UNL     1       1.144   9.677  20.126  0.00  0.00    +0.000 A 
ATOM     12  C   UNL     1       1.487  10.307  18.936  0.00  0.00    +0.000 A 
ATOM     13  F   UNL     1       1.320  11.630  18.819  0.00  0.00    +0.000 F 
ATOM     14  C   UNL     1       1.999   9.584  17.864  0.00  0.00    +0.000 A 
ATOM     15  C   UNL     1       2.174   8.203  17.984  0.00  0.00    +0.000 A 
ENDBRANCH   6   9
ENDBRANCH   1   3
BRANCH   1  16
ATOM     16  C   UNL     1       4.926   3.553  18.112  0.00  0.00    +0.000 C 
BRANCH  16  18
ATOM     17  C   UNL     1       5.583   6.049  18.107  0.00  0.00    +0.000 C 
ATOM     18  C   UNL     1       5.978   4.629  17.683  0.00  0.00    +0.000 C 
BRANCH  18  19
ATOM     19  C   UNL     1       6.185   4.559  16.165  0.00  0.00    +0.000 A 
ATOM     20  C   UNL     1       7.341   5.078  15.554  0.00  0.00    +0.000 A 
ATOM     21  C   UNL     1       7.539   4.967  14.174  0.00  0.00    +0.000 A 
ATOM     22  C   UNL     1       6.581   4.334  13.392  0.00  0.00    +0.000 A 
ATOM     23  F   UNL     1       6.774   4.217  12.072  0.00  0.00    +0.000 F 
ATOM     24  C   UNL     1       5.426   3.818  13.963  0.00  0.00    +0.000 A 
ATOM     25  C   UNL     1       5.227   3.932  15.341  0.00  0.00    +0.000 A 
ENDBRANCH  18  19
BRANCH  18  26
ATOM     26  O   UNL     1       7.203   4.329  18.373  0.00  0.00    +0.000 OA
ATOM     27  H   UNL     1       7.149   3.375  18.581  0.00  0.00    +0.000 HD
ENDBRANCH  18  26
ENDBRANCH  16  18
ENDBRANCH   1  16
TORSDOF 6
ENDMDL
MODEL 6
REMARK VINA RESULT:      -7.3      0.673      1.180
REMARK  Name = 
REMARK  7 active torsions:
REMARK  status: ('A' for Active; 'I' for Inactive)
REMARK    1  A    between atoms: C_1  and  C_2
REMARK    2  A    between atoms: C_2  and  O_3
REMARK    3  A    between atoms: C_2  and  C_4
REMARK    4  A    between atoms: C_2  and  C_19
REMARK    5  A    between atoms: C_4  and  N_5
REMARK    6  A    between atoms: N_5  and  C_6
REMARK    7  A    between atoms: C_9  and  C_10
REMARK                            x       y       z     vdW  Elec       q    Type
REMARK                         _______ _______ _______ _____ _____    ______ ____
ROOT
ATOM      1  N   UNL     1       3.717   3.049  17.401  0.00  0.00    +0.000 NA
ATOM      2  H   UNL     1       3.239   2.225  17.035  0.00  0.00    +0.000 HD
ENDROOT
BRANCH   1   3
ATOM      3  C   UNL     1       3.636   2.999  18.886  0.00  0.00    +0.000 C 
ATOM      4  C   UNL     1       4.521   4.037  19.622  0.00  0.00    +0.000 C 
ATOM      5  C   UNL     1       3.969   5.435  19.593  0.00  0.00    +0.000 C 
ATOM      6  C   UNL     1       2.681   5.697  19.322  0.00  0.00    +0.000 C 
ATOM      7  C   UNL     1       1.657   4.622  19.063  0.00  0.00    +0.000 C 
ATOM      8  C   UNL     1       2.177   3.205  19.337  0.00  0.00    +0.000 C 
BRANCH   6   9
ATOM      9  C   UNL     1       2.235   7.089  19.195  0.00  0.00    +0.000 A 
ATOM     10  C   UNL     1       2.446   7.767  17.987  0.00  0.00    +0.000 A 
ATOM     11  C   UNL     1       2.043   9.093  17.844  0.00  0.00    +0.000 A 
ATOM     12  C   UNL     1       1.433   9.740  18.912  0.00  0.00    +0.000 A 
ATOM     13  F   UNL     1       1.046  11.015  18.775  0.00  0.00    +0.000 F 
ATOM     14  C   UNL     1       1.220   9.086  20.120  0.00  0.00    +0.000 A 
ATOM     15  C   UNL     1       1.623   7.756  20.265  0.00  0.00    +0.000 A 
ENDBRANCH   6   9
ENDBRANCH   1   3
BRANCH   1  16
ATOM     16  C   UNL     1       5.123   3.032  16.931  0.00  0.00    +0.000 C 
BRANCH  16  18
ATOM     17  C   UNL     1       6.262   3.857  14.767  0.00  0.00    +0.000 C 
ATOM     18  C   UNL     1       5.513   4.260  16.043  0.00  0.00    +0.000 C 
BRANCH  18  19
ATOM     19  C   UNL     1       6.353   5.239  16.874  0.00  0.00    +0.000 A 
ATOM     20  C   UNL     1       7.273   4.787  17.836  0.00  0.00    +0.000 A 
ATOM     21  C   UNL     1       8.066   5.687  18.555  0.00  0.00    +0.000 A 
ATOM     22  C   UNL     1       7.945   7.050  18.316  0.00  0.00    +0.000 A 
ATOM     23  F   UNL     1       8.710   7.914  18.995  0.00  0.00    +0.000 F 
ATOM     24  C   UNL     1       7.040   7.529  17.378  0.00  0.00    +0.000 A 
ATOM     25  C   UNL     1       6.246   6.630  16.663  0.00  0.00    +0.000 A 
ENDBRANCH  18  19
BRANCH  18  26
ATOM     26  O   UNL     1       4.291   4.883  15.613  0.00  0.00    +0.000 OA
ATOM     27  H   UNL     1       3.751   4.967  16.425  0.00  0.00    +0.000 HD
ENDBRANCH  18  26
ENDBRANCH  16  18
ENDBRANCH   1  16
TORSDOF 6
ENDMDL
MODEL 7
REMARK VINA RESULT:      -7.3      2.419      3.593
REMARK  Name = 
REMARK  7 active torsions:
REMARK  status: ('A' for Active; 'I' for Inactive)
REMARK    1  A    between atoms: C_1  and  C_2
REMARK    2  A    between atoms: C_2  and  O_3
REMARK    3  A    between atoms: C_2  and  C_4
REMARK    4  A    between atoms: C_2  and  C_19
REMARK    5  A    between atoms: C_4  and  N_5
REMARK    6  A    between atoms: N_5  and  C_6
REMARK    7  A    between atoms: C_9  and  C_10
REMARK                            x       y       z     vdW  Elec       q    Type
REMARK                         _______ _______ _______ _____ _____    ______ ____
ROOT
ATOM      1  N   UNL     1       4.835   4.978  19.358  0.00  0.00    +0.000 NA
ATOM      2  H   UNL     1       4.848   5.919  18.961  0.00  0.00    +0.000 HD
ENDROOT
BRANCH   1   3
ATOM      3  C   UNL     1       3.432   4.485  19.313  0.00  0.00    +0.000 C 
ATOM      4  C   UNL     1       2.530   4.980  20.471  0.00  0.00    +0.000 C 
ATOM      5  C   UNL     1       2.082   6.407  20.326  0.00  0.00    +0.000 C 
ATOM      6  C   UNL     1       2.112   7.057  19.151  0.00  0.00    +0.000 C 
ATOM      7  C   UNL     1       2.557   6.413  17.863  0.00  0.00    +0.000 C 
ATOM      8  C   UNL     1       2.775   4.898  17.982  0.00  0.00    +0.000 C 
BRANCH   6   9
ATOM      9  C   UNL     1       1.772   8.483  19.102  0.00  0.00    +0.000 A 
ATOM     10  C   UNL     1       2.178   9.246  17.999  0.00  0.00    +0.000 A 
ATOM     11  C   UNL     1       1.878  10.605  17.934  0.00  0.00    +0.000 A 
ATOM     12  C   UNL     1       1.174  11.199  18.974  0.00  0.00    +0.000 A 
ATOM     13  F   UNL     1       0.886  12.506  18.912  0.00  0.00    +0.000 F 
ATOM     14  C   UNL     1       0.768  10.460  20.079  0.00  0.00    +0.000 A 
ATOM     15  C   UNL     1       1.068   9.097  20.146  0.00  0.00    +0.000 A 
ENDBRANCH   6   9
ENDBRANCH   1   3
BRANCH   1  16
ATOM     16  C   UNL     1       5.742   4.114  18.565  0.00  0.00    +0.000 C 
BRANCH  16  18
ATOM     17  C   UNL     1       6.792   6.409  18.022  0.00  0.00    +0.000 C 
ATOM     18  C   UNL     1       6.810   4.902  17.736  0.00  0.00    +0.000 C 
BRANCH  18  19
ATOM     19  C   UNL     1       6.590   4.635  16.242  0.00  0.00    +0.000 A 
ATOM     20  C   UNL     1       7.481   5.120  15.268  0.00  0.00    +0.000 A 
ATOM     21  C   UNL     1       7.295   4.832  13.913  0.00  0.00    +0.000 A 
ATOM     22  C   UNL     1       6.214   4.053  13.519  0.00  0.00    +0.000 A 
ATOM     23  F   UNL     1       6.039   3.766  12.222  0.00  0.00    +0.000 F 
ATOM     24  C   UNL     1       5.312   3.565  14.455  0.00  0.00    +0.000 A 
ATOM     25  C   UNL     1       5.497   3.856  15.808  0.00  0.00    +0.000 A 
ENDBRANCH  18  19
BRANCH  18  26
ATOM     26  O   UNL     1       8.104   4.430  18.148  0.00  0.00    +0.000 OA
ATOM     27  H   UNL     1       8.734   5.105  17.824  0.00  0.00    +0.000 HD
ENDBRANCH  18  26
ENDBRANCH  16  18
ENDBRANCH   1  16
TORSDOF 6
ENDMDL
MODEL 8
REMARK VINA RESULT:      -7.3      2.455      3.677
REMARK  Name = 
REMARK  7 active torsions:
REMARK  status: ('A' for Active; 'I' for Inactive)
REMARK    1  A    between atoms: C_1  and  C_2
REMARK    2  A    between atoms: C_2  and  O_3
REMARK    3  A    between atoms: C_2  and  C_4
REMARK    4  A    between atoms: C_2  and  C_19
REMARK    5  A    between atoms: C_4  and  N_5
REMARK    6  A    between atoms: N_5  and  C_6
REMARK    7  A    between atoms: C_9  and  C_10
REMARK                            x       y       z     vdW  Elec       q    Type
REMARK                         _______ _______ _______ _____ _____    ______ ____
ROOT
ATOM      1  N   UNL     1       4.726   4.936  19.345  0.00  0.00    +0.000 NA
ATOM      2  H   UNL     1       4.799   5.889  18.987  0.00  0.00    +0.000 HD
ENDROOT
BRANCH   1   3
ATOM      3  C   UNL     1       3.352   4.445  19.055  0.00  0.00    +0.000 C 
ATOM      4  C   UNL     1       2.385   4.462  20.265  0.00  0.00    +0.000 C 
ATOM      5  C   UNL     1       1.872   5.831  20.613  0.00  0.00    +0.000 C 
ATOM      6  C   UNL     1       1.913   6.859  19.750  0.00  0.00    +0.000 C 
ATOM      7  C   UNL     1       2.437   6.733  18.342  0.00  0.00    +0.000 C 
ATOM      8  C   UNL     1       2.725   5.285  17.925  0.00  0.00    +0.000 C 
BRANCH   6   9
ATOM      9  C   UNL     1       1.504   8.196  20.193  0.00  0.00    +0.000 A 
ATOM     10  C   UNL     1       1.369   9.219  19.246  0.00  0.00    +0.000 A 
ATOM     11  C   UNL     1       0.993  10.501  19.642  0.00  0.00    +0.000 A 
ATOM     12  C   UNL     1       0.758  10.758  20.988  0.00  0.00    +0.000 A 
ATOM     13  F   UNL     1       0.398  11.991  21.369  0.00  0.00    +0.000 F 
ATOM     14  C   UNL     1       0.894   9.757  21.944  0.00  0.00    +0.000 A 
ATOM     15  C   UNL     1       1.270   8.471  21.547  0.00  0.00    +0.000 A 
ENDBRANCH   6   9
ENDBRANCH   1   3
BRANCH   1  16
ATOM     16  C   UNL     1       5.755   4.099  18.683  0.00  0.00    +0.000 C 
BRANCH  16  18
ATOM     17  C   UNL     1       6.742   6.418  18.126  0.00  0.00    +0.000 C 
ATOM     18  C   UNL     1       6.794   4.912  17.841  0.00  0.00    +0.000 C 
BRANCH  18  19
ATOM     19  C   UNL     1       6.562   4.638  16.349  0.00  0.00    +0.000 A 
ATOM     20  C   UNL     1       7.445   5.120  15.366  0.00  0.00    +0.000 A 
ATOM     21  C   UNL     1       7.248   4.826  14.013  0.00  0.00    +0.000 A 
ATOM     22  C   UNL     1       6.165   4.044  13.632  0.00  0.00    +0.000 A 
ATOM     23  F   UNL     1       5.980   3.751  12.338  0.00  0.00    +0.000 F 
ATOM     24  C   UNL     1       5.271   3.559  14.577  0.00  0.00    +0.000 A 
ATOM     25  C   UNL     1       5.466   3.856  15.927  0.00  0.00    +0.000 A 
ENDBRANCH  18  19
BRANCH  18  26
ATOM     26  O   UNL     1       8.104   4.472  18.237  0.00  0.00    +0.000 OA
ATOM     27  H   UNL     1       8.717   5.135  17.862  0.00  0.00    +0.000 HD
ENDBRANCH  18  26
ENDBRANCH  16  18
ENDBRANCH   1  16
TORSDOF 6
ENDMDL
MODEL 9
REMARK VINA RESULT:      -7.3      2.497      3.651
REMARK  Name = 
REMARK  7 active torsions:
REMARK  status: ('A' for Active; 'I' for Inactive)
REMARK    1  A    between atoms: C_1  and  C_2
REMARK    2  A    between atoms: C_2  and  O_3
REMARK    3  A    between atoms: C_2  and  C_4
REMARK    4  A    between atoms: C_2  and  C_19
REMARK    5  A    between atoms: C_4  and  N_5
REMARK    6  A    between atoms: N_5  and  C_6
REMARK    7  A    between atoms: C_9  and  C_10
REMARK                            x       y       z     vdW  Elec       q    Type
REMARK                         _______ _______ _______ _____ _____    ______ ____
ROOT
ATOM      1  N   UNL     1       4.765   5.423  19.083  0.00  0.00    +0.000 NA
ATOM      2  H   UNL     1       4.869   6.188  18.416  0.00  0.00    +0.000 HD
ENDROOT
BRANCH   1   3
ATOM      3  C   UNL     1       3.412   4.834  18.893  0.00  0.00    +0.000 C 
ATOM      4  C   UNL     1       2.557   4.734  20.181  0.00  0.00    +0.000 C 
ATOM      5  C   UNL     1       1.973   6.046  20.625  0.00  0.00    +0.000 C 
ATOM      6  C   UNL     1       1.859   7.101  19.802  0.00  0.00    +0.000 C 
ATOM      7  C   UNL     1       2.264   7.063  18.351  0.00  0.00    +0.000 C 
ATOM      8  C   UNL     1       2.625   5.656  17.855  0.00  0.00    +0.000 C 
BRANCH   6   9
ATOM      9  C   UNL     1       1.389   8.386  20.331  0.00  0.00    +0.000 A 
ATOM     10  C   UNL     1       1.151   8.515  21.705  0.00  0.00    +0.000 A 
ATOM     11  C   UNL     1       0.693   9.721  22.231  0.00  0.00    +0.000 A 
ATOM     12  C   UNL     1       0.469  10.796  21.379  0.00  0.00    +0.000 A 
ATOM     13  F   UNL     1       0.027  11.955  21.884  0.00  0.00    +0.000 F 
ATOM     14  C   UNL     1       0.693  10.686  20.011  0.00  0.00    +0.000 A 
ATOM     15  C   UNL     1       1.153   9.477  19.483  0.00  0.00    +0.000 A 
ENDBRANCH   6   9
ENDBRANCH   1   3
BRANCH   1  16
ATOM     16  C   UNL     1       5.834   4.427  18.835  0.00  0.00    +0.000 C 
BRANCH  16  18
ATOM     17  C   UNL     1       7.276   6.437  18.100  0.00  0.00    +0.000 C 
ATOM     18  C   UNL     1       6.985   4.943  17.909  0.00  0.00    +0.000 C 
BRANCH  18  19
ATOM     19  C   UNL     1       6.630   4.646  16.447  0.00  0.00    +0.000 A 
ATOM     20  C   UNL     1       7.393   5.164  15.385  0.00  0.00    +0.000 A 
ATOM     21  C   UNL     1       7.087   4.849  14.057  0.00  0.00    +0.000 A 
ATOM     22  C   UNL     1       6.015   4.011  13.780  0.00  0.00    +0.000 A 
ATOM     23  F   UNL     1       5.726   3.699  12.510  0.00  0.00    +0.000 F 
ATOM     24  C   UNL     1       5.237   3.490  14.805  0.00  0.00    +0.000 A 
ATOM     25  C   UNL     1       5.541   3.807  16.131  0.00  0.00    +0.000 A 
ENDBRANCH  18  19
BRANCH  18  26
ATOM     26  O   UNL     1       8.184   4.248  18.289  0.00  0.00    +0.000 OA
ATOM     27  H   UNL     1       8.212   3.458  17.712  0.00  0.00    +0.000 HD
ENDBRANCH  18  26
ENDBRANCH  16  18
ENDBRANCH   1  16
TORSDOF 6
ENDMDL
