MODEL 1
REMARK VINA RESULT:      -8.0      0.000      0.000
REMARK  Name = 
REMARK  5 active torsions:
REMARK  status: ('A' for Active; 'I' for Inactive)
REMARK    1  A    between atoms: O_1  and  C_2
REMARK    2  A    between atoms: C_2  and  C_3
REMARK    3  A    between atoms: C_2  and  C_10
REMARK    4  A    between atoms: C_2  and  C_16
REMARK    5  A    between atoms: C_3  and  C_4
REMARK                            x       y       z     vdW  Elec       q    Type
REMARK                         _______ _______ _______ _____ _____    ______ ____
ROOT
ATOM      1  C   UNL     1       5.259   5.209  16.437  0.00  0.00    +0.000 C 
ENDROOT
BRANCH   1   2
ATOM      2  C   UNL     1       6.326   5.857  17.348  0.00  0.00    +0.000 A 
ATOM      3  C   UNL     1       6.758   7.174  17.066  0.00  0.00    +0.000 A 
ATOM      4  C   UNL     1       7.742   7.798  17.834  0.00  0.00    +0.000 A 
ATOM      5  C   UNL     1       8.323   7.122  18.901  0.00  0.00    +0.000 A 
ATOM      6  C   UNL     1       7.918   5.824  19.199  0.00  0.00    +0.000 A 
ATOM      7  C   UNL     1       6.927   5.199  18.432  0.00  0.00    +0.000 A 
ENDBRANCH   1   2
BRANCH   1   8
ATOM      8  C   UNL     1       3.984   4.885  17.237  0.00  0.00    +0.000 A 
ATOM      9  C   UNL     1       3.360   5.848  18.049  0.00  0.00    +0.000 A 
ATOM     10  C   UNL     1       2.199   5.543  18.762  0.00  0.00    +0.000 A 
ATOM     11  C   UNL     1       1.635   4.272  18.673  0.00  0.00    +0.000 A 
ATOM     12  C   UNL     1       2.241   3.301  17.880  0.00  0.00    +0.000 A 
ATOM     13  C   UNL     1       3.409   3.601  17.176  0.00  0.00    +0.000 A 
ENDBRANCH   1   8
BRANCH   1  14
ATOM     14  O   UNL     1       4.979   6.197  15.423  0.00  0.00    +0.000 OA
ATOM     15  H   UNL     1       5.055   7.070  15.844  0.00  0.00    +0.000 HD
ENDBRANCH   1  14
BRANCH   1  16
ATOM     16  C   UNL     1       5.762   3.938  15.675  0.00  0.00    +0.000 C 
BRANCH  16  17
ATOM     17  C   UNL     1       6.332   4.165  14.290  0.00  0.00    +0.000 A 
ATOM     18  C   UNL     1       5.854   3.478  13.172  0.00  0.00    +0.000 A 
ATOM     19  C   UNL     1       6.415   3.718  11.921  0.00  0.00    +0.000 A 
ATOM     20  C   UNL     1       7.450   4.634  11.828  0.00  0.00    +0.000 A 
ATOM     21  N   UNL     1       7.944   5.314  12.883  0.00  0.00    +0.000 NA
ATOM     22  C   UNL     1       7.368   5.073  14.083  0.00  0.00    +0.000 A 
ENDBRANCH  16  17
ENDBRANCH   1  16
TORSDOF 5
ENDMDL
MODEL 2
REMARK VINA RESULT:      -8.0      0.046      1.053
REMARK  Name = 
REMARK  5 active torsions:
REMARK  status: ('A' for Active; 'I' for Inactive)
REMARK    1  A    between atoms: O_1  and  C_2
REMARK    2  A    between atoms: C_2  and  C_3
REMARK    3  A    between atoms: C_2  and  C_10
REMARK    4  A    between atoms: C_2  and  C_16
REMARK    5  A    between atoms: C_3  and  C_4
REMARK                            x       y       z     vdW  Elec       q    Type
REMARK                         _______ _______ _______ _____ _____    ______ ____
ROOT
ATOM      1  C   UNL     1       5.245   5.212  16.453  0.00  0.00    +0.000 C 
ENDROOT
BRANCH   1   2
ATOM      2  C   UNL     1       6.318   5.864  17.355  0.00  0.00    +0.000 A 
ATOM      3  C   UNL     1       6.752   7.177  17.062  0.00  0.00    +0.000 A 
ATOM      4  C   UNL     1       7.740   7.805  17.822  0.00  0.00    +0.000 A 
ATOM      5  C   UNL     1       8.324   7.134  18.890  0.00  0.00    +0.000 A 
ATOM      6  C   UNL     1       7.917   5.839  19.198  0.00  0.00    +0.000 A 
ATOM      7  C   UNL     1       6.922   5.211  18.440  0.00  0.00    +0.000 A 
ENDBRANCH   1   2
BRANCH   1   8
ATOM      8  C   UNL     1       3.975   4.891  17.262  0.00  0.00    +0.000 A 
ATOM      9  C   UNL     1       3.367   3.625  17.206  0.00  0.00    +0.000 A 
ATOM     10  C   UNL     1       2.220   3.346  17.953  0.00  0.00    +0.000 A 
ATOM     11  C   UNL     1       1.663   4.323  18.774  0.00  0.00    +0.000 A 
ATOM     12  C   UNL     1       2.245   5.586  18.839  0.00  0.00    +0.000 A 
ATOM     13  C   UNL     1       3.385   5.871  18.084  0.00  0.00    +0.000 A 
ENDBRANCH   1   8
BRANCH   1  14
ATOM     14  O   UNL     1       4.959   6.196  15.437  0.00  0.00    +0.000 OA
ATOM     15  H   UNL     1       5.447   7.003  15.674  0.00  0.00    +0.000 HD
ENDBRANCH   1  14
BRANCH   1  16
ATOM     16  C   UNL     1       5.744   3.939  15.692  0.00  0.00    +0.000 C 
BRANCH  16  17
ATOM     17  C   UNL     1       6.311   4.162  14.305  0.00  0.00    +0.000 A 
ATOM     18  C   UNL     1       5.828   3.475  13.189  0.00  0.00    +0.000 A 
ATOM     19  C   UNL     1       6.386   3.712  11.937  0.00  0.00    +0.000 A 
ATOM     20  C   UNL     1       7.424   4.624  11.840  0.00  0.00    +0.000 A 
ATOM     21  N   UNL     1       7.923   5.303  12.893  0.00  0.00    +0.000 NA
ATOM     22  C   UNL     1       7.349   5.066  14.094  0.00  0.00    +0.000 A 
ENDBRANCH  16  17
ENDBRANCH   1  16
TORSDOF 5
ENDMDL
MODEL 3
REMARK VINA RESULT:      -7.8      0.110      1.055
REMARK  Name = 
REMARK  5 active torsions:
REMARK  status: ('A' for Active; 'I' for Inactive)
REMARK    1  A    between atoms: O_1  and  C_2
REMARK    2  A    between atoms: C_2  and  C_3
REMARK    3  A    between atoms: C_2  and  C_10
REMARK    4  A    between atoms: C_2  and  C_16
REMARK    5  A    between atoms: C_3  and  C_4
REMARK                            x       y       z     vdW  Elec       q    Type
REMARK                         _______ _______ _______ _____ _____    ______ ____
ROOT
ATOM      1  C   UNL     1       5.281   5.275  16.430  0.00  0.00    +0.000 C 
ENDROOT
BRANCH   1   2
ATOM      2  C   UNL     1       6.379   5.939  17.292  0.00  0.00    +0.000 A 
ATOM      3  C   UNL     1       6.921   5.222  18.383  0.00  0.00    +0.000 A 
ATOM      4  C   UNL     1       7.892   5.783  19.214  0.00  0.00    +0.000 A 
ATOM      5  C   UNL     1       8.343   7.077  18.979  0.00  0.00    +0.000 A 
ATOM      6  C   UNL     1       7.824   7.806  17.912  0.00  0.00    +0.000 A 
ATOM      7  C   UNL     1       6.854   7.241  17.075  0.00  0.00    +0.000 A 
ENDBRANCH   1   2
BRANCH   1   8
ATOM      8  C   UNL     1       4.031   4.975  17.278  0.00  0.00    +0.000 A 
ATOM      9  C   UNL     1       3.396   5.975  18.033  0.00  0.00    +0.000 A 
ATOM     10  C   UNL     1       2.258   5.690  18.790  0.00  0.00    +0.000 A 
ATOM     11  C   UNL     1       1.729   4.401  18.802  0.00  0.00    +0.000 A 
ATOM     12  C   UNL     1       2.346   3.393  18.067  0.00  0.00    +0.000 A 
ATOM     13  C   UNL     1       3.491   3.674  17.319  0.00  0.00    +0.000 A 
ENDBRANCH   1   8
BRANCH   1  14
ATOM     14  O   UNL     1       4.972   6.241  15.404  0.00  0.00    +0.000 OA
ATOM     15  H   UNL     1       4.189   6.735  15.700  0.00  0.00    +0.000 HD
ENDBRANCH   1  14
BRANCH   1  16
ATOM     16  C   UNL     1       5.755   3.986  15.680  0.00  0.00    +0.000 C 
BRANCH  16  17
ATOM     17  C   UNL     1       6.319   4.185  14.289  0.00  0.00    +0.000 A 
ATOM     18  C   UNL     1       5.829   3.484  13.185  0.00  0.00    +0.000 A 
ATOM     19  C   UNL     1       6.384   3.698  11.927  0.00  0.00    +0.000 A 
ATOM     20  C   UNL     1       7.428   4.603  11.814  0.00  0.00    +0.000 A 
ATOM     21  N   UNL     1       7.934   5.295  12.855  0.00  0.00    +0.000 NA
ATOM     22  C   UNL     1       7.362   5.079  14.061  0.00  0.00    +0.000 A 
ENDBRANCH  16  17
ENDBRANCH   1  16
TORSDOF 5
ENDMDL
MODEL 4
REMARK VINA RESULT:      -7.8      2.533      5.218
REMARK  Name = 
REMARK  5 active torsions:
REMARK  status: ('A' for Active; 'I' for Inactive)
REMARK    1  A    between atoms: O_1  and  C_2
REMARK    2  A    between atoms: C_2  and  C_3
REMARK    3  A    between atoms: C_2  and  C_10
REMARK    4  A    between atoms: C_2  and  C_16
REMARK    5  A    between atoms: C_3  and  C_4
REMARK                            x       y       z     vdW  Elec       q    Type
REMARK                         _______ _______ _______ _____ _____    ______ ____
ROOT
ATOM      1  C   UNL     1       3.030   6.268  18.874  0.00  0.00    +0.000 C 
ENDROOT
BRANCH   1   2
ATOM      2  C   UNL     1       2.277   4.946  19.147  0.00  0.00    +0.000 A 
ATOM      3  C   UNL     1       2.286   4.411  20.456  0.00  0.00    +0.000 A 
ATOM      4  C   UNL     1       1.650   3.205  20.755  0.00  0.00    +0.000 A 
ATOM      5  C   UNL     1       0.994   2.500  19.752  0.00  0.00    +0.000 A 
ATOM      6  C   UNL     1       0.971   3.003  18.455  0.00  0.00    +0.000 A 
ATOM      7  C   UNL     1       1.604   4.216  18.156  0.00  0.00    +0.000 A 
ENDBRANCH   1   2
BRANCH   1   8
ATOM      8  C   UNL     1       2.209   7.474  19.364  0.00  0.00    +0.000 A 
ATOM      9  C   UNL     1       1.735   7.556  20.684  0.00  0.00    +0.000 A 
ATOM     10  C   UNL     1       0.999   8.660  21.117  0.00  0.00    +0.000 A 
ATOM     11  C   UNL     1       0.728   9.708  20.241  0.00  0.00    +0.000 A 
ATOM     12  C   UNL     1       1.181   9.646  18.926  0.00  0.00    +0.000 A 
ATOM     13  C   UNL     1       1.907   8.536  18.488  0.00  0.00    +0.000 A 
ENDBRANCH   1   8
BRANCH   1  14
ATOM     14  O   UNL     1       4.261   6.161  19.620  0.00  0.00    +0.000 OA
ATOM     15  H   UNL     1       4.342   5.236  19.908  0.00  0.00    +0.000 HD
ENDBRANCH   1  14
BRANCH   1  16
ATOM     16  C   UNL     1       3.448   6.463  17.378  0.00  0.00    +0.000 C 
BRANCH  16  17
ATOM     17  C   UNL     1       4.758   5.831  16.957  0.00  0.00    +0.000 A 
ATOM     18  C   UNL     1       4.853   4.477  16.626  0.00  0.00    +0.000 A 
ATOM     19  C   UNL     1       6.081   3.942  16.250  0.00  0.00    +0.000 A 
ATOM     20  C   UNL     1       7.185   4.778  16.228  0.00  0.00    +0.000 A 
ATOM     21  N   UNL     1       7.137   6.089  16.545  0.00  0.00    +0.000 NA
ATOM     22  C   UNL     1       5.927   6.584  16.890  0.00  0.00    +0.000 A 
ENDBRANCH  16  17
ENDBRANCH   1  16
TORSDOF 5
ENDMDL
MODEL 5
REMARK VINA RESULT:      -7.8      0.623      1.049
REMARK  Name = 
REMARK  5 active torsions:
REMARK  status: ('A' for Active; 'I' for Inactive)
REMARK    1  A    between atoms: O_1  and  C_2
REMARK    2  A    between atoms: C_2  and  C_3
REMARK    3  A    between atoms: C_2  and  C_10
REMARK    4  A    between atoms: C_2  and  C_16
REMARK    5  A    between atoms: C_3  and  C_4
REMARK                            x       y       z     vdW  Elec       q    Type
REMARK                         _______ _______ _______ _____ _____    ______ ____
ROOT
ATOM      1  C   UNL     1       5.273   5.200  16.420  0.00  0.00    +0.000 C 
ENDROOT
BRANCH   1   2
ATOM      2  C   UNL     1       6.337   5.867  17.322  0.00  0.00    +0.000 A 
ATOM      3  C   UNL     1       6.756   7.184  17.026  0.00  0.00    +0.000 A 
ATOM      4  C   UNL     1       7.736   7.825  17.787  0.00  0.00    +0.000 A 
ATOM      5  C   UNL     1       8.326   7.163  18.858  0.00  0.00    +0.000 A 
ATOM      6  C   UNL     1       7.933   5.865  19.169  0.00  0.00    +0.000 A 
ATOM      7  C   UNL     1       6.946   5.224  18.410  0.00  0.00    +0.000 A 
ENDBRANCH   1   2
BRANCH   1   8
ATOM      8  C   UNL     1       3.999   4.885  17.222  0.00  0.00    +0.000 A 
ATOM      9  C   UNL     1       3.383   5.851  18.037  0.00  0.00    +0.000 A 
ATOM     10  C   UNL     1       2.222   5.553  18.753  0.00  0.00    +0.000 A 
ATOM     11  C   UNL     1       1.649   4.286  18.664  0.00  0.00    +0.000 A 
ATOM     12  C   UNL     1       2.246   3.311  17.869  0.00  0.00    +0.000 A 
ATOM     13  C   UNL     1       3.414   3.604  17.162  0.00  0.00    +0.000 A 
ENDBRANCH   1   8
BRANCH   1  14
ATOM     14  O   UNL     1       4.992   6.171  15.389  0.00  0.00    +0.000 OA
ATOM     15  H   UNL     1       5.490   5.902  14.599  0.00  0.00    +0.000 HD
ENDBRANCH   1  14
BRANCH   1  16
ATOM     16  C   UNL     1       5.782   3.919  15.678  0.00  0.00    +0.000 C 
BRANCH  16  17
ATOM     17  C   UNL     1       6.350   4.126  14.289  0.00  0.00    +0.000 A 
ATOM     18  C   UNL     1       7.418   4.995  14.049  0.00  0.00    +0.000 A 
ATOM     19  C   UNL     1       7.901   5.155  12.754  0.00  0.00    +0.000 A 
ATOM     20  C   UNL     1       7.291   4.446  11.731  0.00  0.00    +0.000 A 
ATOM     21  N   UNL     1       6.255   3.603  11.920  0.00  0.00    +0.000 NA
ATOM     22  C   UNL     1       5.819   3.455  13.191  0.00  0.00    +0.000 A 
ENDBRANCH  16  17
ENDBRANCH   1  16
TORSDOF 5
ENDMDL
MODEL 6
REMARK VINA RESULT:      -7.8      2.537      5.222
REMARK  Name = 
REMARK  5 active torsions:
REMARK  status: ('A' for Active; 'I' for Inactive)
REMARK    1  A    between atoms: O_1  and  C_2
REMARK    2  A    between atoms: C_2  and  C_3
REMARK    3  A    between atoms: C_2  and  C_10
REMARK    4  A    between atoms: C_2  and  C_16
REMARK    5  A    between atoms: C_3  and  C_4
REMARK                            x       y       z     vdW  Elec       q    Type
REMARK                         _______ _______ _______ _____ _____    ______ ____
ROOT
ATOM      1  C   UNL     1       3.022   6.274  18.873  0.00  0.00    +0.000 C 
ENDROOT
BRANCH   1   2
ATOM      2  C   UNL     1       2.259   4.959  19.149  0.00  0.00    +0.000 A 
ATOM      3  C   UNL     1       2.242   4.441  20.465  0.00  0.00    +0.000 A 
ATOM      4  C   UNL     1       1.595   3.241  20.767  0.00  0.00    +0.000 A 
ATOM      5  C   UNL     1       0.956   2.525  19.761  0.00  0.00    +0.000 A 
ATOM      6  C   UNL     1       0.960   3.011  18.457  0.00  0.00    +0.000 A 
ATOM      7  C   UNL     1       1.603   4.218  18.155  0.00  0.00    +0.000 A 
ENDBRANCH   1   2
BRANCH   1   8
ATOM      8  C   UNL     1       2.210   7.488  19.360  0.00  0.00    +0.000 A 
ATOM      9  C   UNL     1       1.902   8.560  18.505  0.00  0.00    +0.000 A 
ATOM     10  C   UNL     1       1.157   9.650  18.958  0.00  0.00    +0.000 A 
ATOM     11  C   UNL     1       0.699   9.688  20.273  0.00  0.00    +0.000 A 
ATOM     12  C   UNL     1       0.999   8.640  21.140  0.00  0.00    +0.000 A 
ATOM     13  C   UNL     1       1.754   7.555  20.691  0.00  0.00    +0.000 A 
ENDBRANCH   1   8
BRANCH   1  14
ATOM     14  O   UNL     1       4.252   6.160  19.620  0.00  0.00    +0.000 OA
ATOM     15  H   UNL     1       4.028   5.774  20.484  0.00  0.00    +0.000 HD
ENDBRANCH   1  14
BRANCH   1  16
ATOM     16  C   UNL     1       3.442   6.463  17.378  0.00  0.00    +0.000 C 
BRANCH  16  17
ATOM     17  C   UNL     1       4.755   5.833  16.962  0.00  0.00    +0.000 A 
ATOM     18  C   UNL     1       4.852   4.480  16.626  0.00  0.00    +0.000 A 
ATOM     19  C   UNL     1       6.082   3.947  16.255  0.00  0.00    +0.000 A 
ATOM     20  C   UNL     1       7.187   4.784  16.243  0.00  0.00    +0.000 A 
ATOM     21  N   UNL     1       7.137   6.092  16.566  0.00  0.00    +0.000 NA
ATOM     22  C   UNL     1       5.925   6.586  16.905  0.00  0.00    +0.000 A 
ENDBRANCH  16  17
ENDBRANCH   1  16
TORSDOF 5
ENDMDL
MODEL 7
REMARK VINA RESULT:      -7.8      2.500      5.121
REMARK  Name = 
REMARK  5 active torsions:
REMARK  status: ('A' for Active; 'I' for Inactive)
REMARK    1  A    between atoms: O_1  and  C_2
REMARK    2  A    between atoms: C_2  and  C_3
REMARK    3  A    between atoms: C_2  and  C_10
REMARK    4  A    between atoms: C_2  and  C_16
REMARK    5  A    between atoms: C_3  and  C_4
REMARK                            x       y       z     vdW  Elec       q    Type
REMARK                         _______ _______ _______ _____ _____    ______ ____
ROOT
ATOM      1  C   UNL     1       3.092   6.205  18.923  0.00  0.00    +0.000 C 
ENDROOT
BRANCH   1   2
ATOM      2  C   UNL     1       2.400   4.854  19.216  0.00  0.00    +0.000 A 
ATOM      3  C   UNL     1       1.624   4.248  18.201  0.00  0.00    +0.000 A 
ATOM      4  C   UNL     1       0.951   3.044  18.419  0.00  0.00    +0.000 A 
ATOM      5  C   UNL     1       1.032   2.419  19.658  0.00  0.00    +0.000 A 
ATOM      6  C   UNL     1       1.787   2.995  20.675  0.00  0.00    +0.000 A 
ATOM      7  C   UNL     1       2.467   4.199  20.455  0.00  0.00    +0.000 A 
ENDBRANCH   1   2
BRANCH   1   8
ATOM      8  C   UNL     1       2.237   7.377  19.437  0.00  0.00    +0.000 A 
ATOM      9  C   UNL     1       1.724   7.396  20.746  0.00  0.00    +0.000 A 
ATOM     10  C   UNL     1       0.958   8.471  21.202  0.00  0.00    +0.000 A 
ATOM     11  C   UNL     1       0.695   9.550  20.361  0.00  0.00    +0.000 A 
ATOM     12  C   UNL     1       1.187   9.549  19.059  0.00  0.00    +0.000 A 
ATOM     13  C   UNL     1       1.943   8.469  18.598  0.00  0.00    +0.000 A 
ENDBRANCH   1   8
BRANCH   1  14
ATOM     14  O   UNL     1       4.347   6.146  19.635  0.00  0.00    +0.000 OA
ATOM     15  H   UNL     1       4.623   5.215  19.651  0.00  0.00    +0.000 HD
ENDBRANCH   1  14
BRANCH   1  16
ATOM     16  C   UNL     1       3.460   6.416  17.417  0.00  0.00    +0.000 C 
BRANCH  16  17
ATOM     17  C   UNL     1       4.762   5.802  16.948  0.00  0.00    +0.000 A 
ATOM     18  C   UNL     1       4.855   4.457  16.581  0.00  0.00    +0.000 A 
ATOM     19  C   UNL     1       6.076   3.938  16.162  0.00  0.00    +0.000 A 
ATOM     20  C   UNL     1       7.176   4.780  16.135  0.00  0.00    +0.000 A 
ATOM     21  N   UNL     1       7.130   6.082  16.488  0.00  0.00    +0.000 NA
ATOM     22  C   UNL     1       5.926   6.562  16.873  0.00  0.00    +0.000 A 
ENDBRANCH  16  17
ENDBRANCH   1  16
TORSDOF 5
ENDMDL
MODEL 8
REMARK VINA RESULT:      -7.8      0.623      1.485
REMARK  Name = 
REMARK  5 active torsions:
REMARK  status: ('A' for Active; 'I' for Inactive)
REMARK    1  A    between atoms: O_1  and  C_2
REMARK    2  A    between atoms: C_2  and  C_3
REMARK    3  A    between atoms: C_2  and  C_10
REMARK    4  A    between atoms: C_2  and  C_16
REMARK    5  A    between atoms: C_3  and  C_4
REMARK                            x       y       z     vdW  Elec       q    Type
REMARK                         _______ _______ _______ _____ _____    ______ ____
ROOT
ATOM      1  C   UNL     1       5.254   5.213  16.430  0.00  0.00    +0.000 C 
ENDROOT
BRANCH   1   2
ATOM      2  C   UNL     1       6.326   5.876  17.324  0.00  0.00    +0.000 A 
ATOM      3  C   UNL     1       6.746   7.193  17.027  0.00  0.00    +0.000 A 
ATOM      4  C   UNL     1       7.733   7.830  17.781  0.00  0.00    +0.000 A 
ATOM      5  C   UNL     1       8.329   7.166  18.847  0.00  0.00    +0.000 A 
ATOM      6  C   UNL     1       7.936   5.869  19.159  0.00  0.00    +0.000 A 
ATOM      7  C   UNL     1       6.942   5.231  18.407  0.00  0.00    +0.000 A 
ENDBRANCH   1   2
BRANCH   1   8
ATOM      8  C   UNL     1       3.982   4.904  17.241  0.00  0.00    +0.000 A 
ATOM      9  C   UNL     1       3.346   3.654  17.166  0.00  0.00    +0.000 A 
ATOM     10  C   UNL     1       2.198   3.385  17.914  0.00  0.00    +0.000 A 
ATOM     11  C   UNL     1       1.667   4.359  18.756  0.00  0.00    +0.000 A 
ATOM     12  C   UNL     1       2.277   5.608  18.840  0.00  0.00    +0.000 A 
ATOM     13  C   UNL     1       3.418   5.882  18.084  0.00  0.00    +0.000 A 
ENDBRANCH   1   8
BRANCH   1  14
ATOM     14  O   UNL     1       4.971   6.184  15.399  0.00  0.00    +0.000 OA
ATOM     15  H   UNL     1       4.625   6.978  15.841  0.00  0.00    +0.000 HD
ENDBRANCH   1  14
BRANCH   1  16
ATOM     16  C   UNL     1       5.753   3.929  15.687  0.00  0.00    +0.000 C 
BRANCH  16  17
ATOM     17  C   UNL     1       6.337   4.134  14.304  0.00  0.00    +0.000 A 
ATOM     18  C   UNL     1       7.402   5.007  14.074  0.00  0.00    +0.000 A 
ATOM     19  C   UNL     1       7.900   5.166  12.785  0.00  0.00    +0.000 A 
ATOM     20  C   UNL     1       7.306   4.451  11.757  0.00  0.00    +0.000 A 
ATOM     21  N   UNL     1       6.272   3.603  11.936  0.00  0.00    +0.000 NA
ATOM     22  C   UNL     1       5.822   3.457  13.202  0.00  0.00    +0.000 A 
ENDBRANCH  16  17
ENDBRANCH   1  16
TORSDOF 5
ENDMDL
MODEL 9
REMARK VINA RESULT:      -7.8      0.120      1.488
REMARK  Name = 
REMARK  5 active torsions:
REMARK  status: ('A' for Active; 'I' for Inactive)
REMARK    1  A    between atoms: O_1  and  C_2
REMARK    2  A    between atoms: C_2  and  C_3
REMARK    3  A    between atoms: C_2  and  C_10
REMARK    4  A    between atoms: C_2  and  C_16
REMARK    5  A    between atoms: C_3  and  C_4
REMARK                            x       y       z     vdW  Elec       q    Type
REMARK                         _______ _______ _______ _____ _____    ______ ____
ROOT
ATOM      1  C   UNL     1       5.278   5.250  16.423  0.00  0.00    +0.000 C 
ENDROOT
BRANCH   1   2
ATOM      2  C   UNL     1       6.371   5.919  17.288  0.00  0.00    +0.000 A 
ATOM      3  C   UNL     1       6.892   5.214  18.398  0.00  0.00    +0.000 A 
ATOM      4  C   UNL     1       7.857   5.780  19.232  0.00  0.00    +0.000 A 
ATOM      5  C   UNL     1       8.322   7.066  18.983  0.00  0.00    +0.000 A 
ATOM      6  C   UNL     1       7.824   7.783  17.898  0.00  0.00    +0.000 A 
ATOM      7  C   UNL     1       6.860   7.213  17.057  0.00  0.00    +0.000 A 
ENDBRANCH   1   2
BRANCH   1   8
ATOM      8  C   UNL     1       4.028   4.942  17.267  0.00  0.00    +0.000 A 
ATOM      9  C   UNL     1       3.501   3.642  17.355  0.00  0.00    +0.000 A 
ATOM     10  C   UNL     1       2.371   3.376  18.131  0.00  0.00    +0.000 A 
ATOM     11  C   UNL     1       1.751   4.402  18.840  0.00  0.00    +0.000 A 
ATOM     12  C   UNL     1       2.251   5.698  18.761  0.00  0.00    +0.000 A 
ATOM     13  C   UNL     1       3.374   5.968  17.976  0.00  0.00    +0.000 A 
ENDBRANCH   1   8
BRANCH   1  14
ATOM     14  O   UNL     1       4.967   6.217  15.397  0.00  0.00    +0.000 OA
ATOM     15  H   UNL     1       4.358   5.788  14.774  0.00  0.00    +0.000 HD
ENDBRANCH   1  14
BRANCH   1  16
ATOM     16  C   UNL     1       5.761   3.965  15.672  0.00  0.00    +0.000 C 
BRANCH  16  17
ATOM     17  C   UNL     1       6.322   4.169  14.280  0.00  0.00    +0.000 A 
ATOM     18  C   UNL     1       5.834   3.468  13.175  0.00  0.00    +0.000 A 
ATOM     19  C   UNL     1       6.386   3.687  11.918  0.00  0.00    +0.000 A 
ATOM     20  C   UNL     1       7.425   4.597  11.804  0.00  0.00    +0.000 A 
ATOM     21  N   UNL     1       7.929   5.290  12.845  0.00  0.00    +0.000 NA
ATOM     22  C   UNL     1       7.360   5.069  14.052  0.00  0.00    +0.000 A 
ENDBRANCH  16  17
ENDBRANCH   1  16
TORSDOF 5
ENDMDL
