MODEL 1
REMARK VINA RESULT:      -7.3      0.000      0.000
REMARK  Name = 
REMARK  6 active torsions:
REMARK  status: ('A' for Active; 'I' for Inactive)
REMARK    1  A    between atoms: C_1  and  C_2
REMARK    2  A    between atoms: C_6  and  C_8
REMARK    3  A    between atoms: C_8  and  C_9
REMARK    4  A    between atoms: C_9  and  C_10
REMARK    5  A    between atoms: C_10  and  N_11
REMARK    6  A    between atoms: N_18  and  C_19
REMARK                            x       y       z     vdW  Elec       q    Type
REMARK                         _______ _______ _______ _____ _____    ______ ____
ROOT
ATOM      1  C   UNL     1       7.524   5.251  14.316  0.00  0.00    +0.000 C 
ATOM      2  C   UNL     1       6.670   4.786  15.438  0.00  0.00    +0.000 A 
ATOM      3  C   UNL     1       5.803   3.709  15.534  0.00  0.00    +0.000 A 
ATOM      4  C   UNL     1       5.293   3.740  16.863  0.00  0.00    +0.000 A 
ATOM      5  N   UNL     1       4.366   2.855  17.394  0.00  0.00    +0.000 N 
ATOM      6  C   UNL     1       4.081   2.826  18.742  0.00  0.00    +0.000 C 
ATOM      7  O   UNL     1       4.828   3.372  19.560  0.00  0.00    +0.000 OA
ATOM      8  N   UNL     1       5.766   4.812  17.504  0.00  0.00    +0.000 NA
ATOM      9  N   UNL     1       6.620   5.394  16.656  0.00  0.00    +0.000 N 
ATOM     10  C   UNL     1       7.381   6.538  17.105  0.00  0.00    +0.000 C 
ATOM     11  H   UNL     1       3.947   2.188  16.771  0.00  0.00    +0.000 HD
ENDROOT
BRANCH   6  12
ATOM     12  C   UNL     1       2.680   2.191  19.205  0.00  0.00    +0.000 C 
BRANCH  12  13
ATOM     13  C   UNL     1       1.890   3.435  19.824  0.00  0.00    +0.000 C 
ATOM     14  C   UNL     1       1.943   4.864  20.501  0.00  0.00    +0.000 C 
ATOM     15  C   UNL     1       2.446   6.145  19.860  0.00  0.00    +0.000 C 
ATOM     16  C   UNL     1       1.960   6.335  18.444  0.00  0.00    +0.000 C 
ATOM     17  C   UNL     1       2.064   5.017  17.723  0.00  0.00    +0.000 C 
ATOM     18  C   UNL     1       1.222   3.920  18.448  0.00  0.00    +0.000 C 
BRANCH  13  19
ATOM     19  C   UNL     1       1.399   2.685  21.177  0.00  0.00    +0.000 C 
BRANCH  19  20
ATOM     20  N   UNL     1       2.479   2.724  22.241  0.00  0.00    +0.000 NA
ATOM     21  H   UNL     1       2.952   3.581  22.317  0.00  0.00    +0.000 HD
ATOM     22  H   UNL     1       3.171   2.002  22.046  0.00  0.00    +0.000 HD
ENDBRANCH  19  20
ENDBRANCH  13  19
ENDBRANCH  12  13
ENDBRANCH   6  12
TORSDOF 4
ENDMDL
MODEL 2
REMARK VINA RESULT:      -7.1      3.851      6.439
REMARK  Name = 
REMARK  6 active torsions:
REMARK  status: ('A' for Active; 'I' for Inactive)
REMARK    1  A    between atoms: C_1  and  C_2
REMARK    2  A    between atoms: C_6  and  C_8
REMARK    3  A    between atoms: C_8  and  C_9
REMARK    4  A    between atoms: C_9  and  C_10
REMARK    5  A    between atoms: C_10  and  N_11
REMARK    6  A    between atoms: N_18  and  C_19
REMARK                            x       y       z     vdW  Elec       q    Type
REMARK                         _______ _______ _______ _____ _____    ______ ____
ROOT
ATOM      1  C   UNL     1      -0.351   9.803  23.042  0.00  0.00    +0.000 C 
ATOM      2  C   UNL     1       0.387   9.303  21.855  0.00  0.00    +0.000 A 
ATOM      3  C   UNL     1       1.097   8.129  21.655  0.00  0.00    +0.000 A 
ATOM      4  C   UNL     1       1.554   8.179  20.307  0.00  0.00    +0.000 A 
ATOM      5  N   UNL     1       2.331   7.216  19.681  0.00  0.00    +0.000 N 
ATOM      6  C   UNL     1       2.558   7.237  18.322  0.00  0.00    +0.000 C 
ATOM      7  O   UNL     1       1.859   7.930  17.575  0.00  0.00    +0.000 OA
ATOM      8  N   UNL     1       1.205   9.344  19.754  0.00  0.00    +0.000 NA
ATOM      9  N   UNL     1       0.471   9.978  20.675  0.00  0.00    +0.000 N 
ATOM     10  C   UNL     1      -0.146  11.238  20.331  0.00  0.00    +0.000 C 
ATOM     11  H   UNL     1       2.681   6.461  20.243  0.00  0.00    +0.000 HD
ENDROOT
BRANCH   6  12
ATOM     12  C   UNL     1       3.840   6.455  17.756  0.00  0.00    +0.000 C 
BRANCH  12  13
ATOM     13  C   UNL     1       3.833   5.081  18.572  0.00  0.00    +0.000 C 
ATOM     14  C   UNL     1       3.288   4.245  19.800  0.00  0.00    +0.000 C 
ATOM     15  C   UNL     1       1.853   3.802  20.020  0.00  0.00    +0.000 C 
ATOM     16  C   UNL     1       1.199   3.254  18.776  0.00  0.00    +0.000 C 
ATOM     17  C   UNL     1       1.565   4.139  17.614  0.00  0.00    +0.000 C 
ATOM     18  C   UNL     1       3.114   4.206  17.434  0.00  0.00    +0.000 C 
BRANCH  13  19
ATOM     19  C   UNL     1       5.329   5.224  19.185  0.00  0.00    +0.000 C 
BRANCH  19  20
ATOM     20  N   UNL     1       6.232   4.117  18.675  0.00  0.00    +0.000 NA
ATOM     21  H   UNL     1       6.885   4.397  17.997  0.00  0.00    +0.000 HD
ATOM     22  H   UNL     1       5.662   3.375  18.273  0.00  0.00    +0.000 HD
ENDBRANCH  19  20
ENDBRANCH  13  19
ENDBRANCH  12  13
ENDBRANCH   6  12
TORSDOF 4
ENDMDL
MODEL 3
REMARK VINA RESULT:      -6.9      2.346      3.591
REMARK  Name = 
REMARK  6 active torsions:
REMARK  status: ('A' for Active; 'I' for Inactive)
REMARK    1  A    between atoms: C_1  and  C_2
REMARK    2  A    between atoms: C_6  and  C_8
REMARK    3  A    between atoms: C_8  and  C_9
REMARK    4  A    between atoms: C_9  and  C_10
REMARK    5  A    between atoms: C_10  and  N_11
REMARK    6  A    between atoms: N_18  and  C_19
REMARK                            x       y       z     vdW  Elec       q    Type
REMARK                         _______ _______ _______ _____ _____    ______ ____
ROOT
ATOM      1  C   UNL     1       6.607   3.555  11.772  0.00  0.00    +0.000 C 
ATOM      2  C   UNL     1       6.630   3.969  13.197  0.00  0.00    +0.000 A 
ATOM      3  C   UNL     1       5.926   3.492  14.292  0.00  0.00    +0.000 A 
ATOM      4  C   UNL     1       6.390   4.246  15.407  0.00  0.00    +0.000 A 
ATOM      5  N   UNL     1       5.938   4.119  16.713  0.00  0.00    +0.000 N 
ATOM      6  C   UNL     1       6.579   4.735  17.766  0.00  0.00    +0.000 C 
ATOM      7  O   UNL     1       7.724   5.180  17.637  0.00  0.00    +0.000 OA
ATOM      8  N   UNL     1       7.263   5.169  14.998  0.00  0.00    +0.000 NA
ATOM      9  N   UNL     1       7.428   4.957  13.688  0.00  0.00    +0.000 N 
ATOM     10  C   UNL     1       8.405   5.743  12.970  0.00  0.00    +0.000 C 
ATOM     11  H   UNL     1       5.156   3.511  16.880  0.00  0.00    +0.000 HD
ENDROOT
BRANCH   6  12
ATOM     12  C   UNL     1       5.746   4.989  19.114  0.00  0.00    +0.000 C 
BRANCH  12  13
ATOM     13  C   UNL     1       4.225   4.990  18.624  0.00  0.00    +0.000 C 
ATOM     14  C   UNL     1       3.163   4.578  17.525  0.00  0.00    +0.000 C 
ATOM     15  C   UNL     1       2.757   3.164  17.153  0.00  0.00    +0.000 C 
ATOM     16  C   UNL     1       2.539   2.270  18.349  0.00  0.00    +0.000 C 
ATOM     17  C   UNL     1       3.644   2.521  19.340  0.00  0.00    +0.000 C 
ATOM     18  C   UNL     1       3.669   4.021  19.775  0.00  0.00    +0.000 C 
BRANCH  13  19
ATOM     19  C   UNL     1       4.148   6.572  18.270  0.00  0.00    +0.000 C 
BRANCH  19  20
ATOM     20  N   UNL     1       2.710   7.014  18.074  0.00  0.00    +0.000 NA
ATOM     21  H   UNL     1       2.071   6.284  17.921  0.00  0.00    +0.000 HD
ATOM     22  H   UNL     1       2.657   7.647  17.277  0.00  0.00    +0.000 HD
ENDBRANCH  19  20
ENDBRANCH  13  19
ENDBRANCH  12  13
ENDBRANCH   6  12
TORSDOF 4
ENDMDL
MODEL 4
REMARK VINA RESULT:      -6.8      1.444      1.656
REMARK  Name = 
REMARK  6 active torsions:
REMARK  status: ('A' for Active; 'I' for Inactive)
REMARK    1  A    between atoms: C_1  and  C_2
REMARK    2  A    between atoms: C_6  and  C_8
REMARK    3  A    between atoms: C_8  and  C_9
REMARK    4  A    between atoms: C_9  and  C_10
REMARK    5  A    between atoms: C_10  and  N_11
REMARK    6  A    between atoms: N_18  and  C_19
REMARK                            x       y       z     vdW  Elec       q    Type
REMARK                         _______ _______ _______ _____ _____    ______ ____
ROOT
ATOM      1  C   UNL     1       7.779   7.160  17.300  0.00  0.00    +0.000 C 
ATOM      2  C   UNL     1       6.902   6.097  17.852  0.00  0.00    +0.000 A 
ATOM      3  C   UNL     1       5.789   5.468  17.315  0.00  0.00    +0.000 A 
ATOM      4  C   UNL     1       5.386   4.504  18.283  0.00  0.00    +0.000 A 
ATOM      5  N   UNL     1       4.292   3.658  18.174  0.00  0.00    +0.000 N 
ATOM      6  C   UNL     1       4.091   2.616  19.054  0.00  0.00    +0.000 C 
ATOM      7  O   UNL     1       5.003   2.220  19.785  0.00  0.00    +0.000 OA
ATOM      8  N   UNL     1       6.162   4.598  19.366  0.00  0.00    +0.000 NA
ATOM      9  N   UNL     1       7.087   5.518  19.071  0.00  0.00    +0.000 N 
ATOM     10  C   UNL     1       8.148   5.772  20.019  0.00  0.00    +0.000 C 
ATOM     11  H   UNL     1       3.676   3.790  17.393  0.00  0.00    +0.000 HD
ENDROOT
BRANCH   6  12
ATOM     12  C   UNL     1       2.603   2.032  19.205  0.00  0.00    +0.000 C 
BRANCH  12  13
ATOM     13  C   UNL     1       1.772   3.264  19.793  0.00  0.00    +0.000 C 
ATOM     14  C   UNL     1       1.775   4.729  20.391  0.00  0.00    +0.000 C 
ATOM     15  C   UNL     1       2.178   5.998  19.662  0.00  0.00    +0.000 C 
ATOM     16  C   UNL     1       1.622   6.083  18.261  0.00  0.00    +0.000 C 
ATOM     17  C   UNL     1       1.768   4.735  17.607  0.00  0.00    +0.000 C 
ATOM     18  C   UNL     1       1.020   3.636  18.426  0.00  0.00    +0.000 C 
BRANCH  13  19
ATOM     19  C   UNL     1       1.382   2.564  21.205  0.00  0.00    +0.000 C 
BRANCH  19  20
ATOM     20  N   UNL     1       2.424   2.866  22.266  0.00  0.00    +0.000 NA
ATOM     21  H   UNL     1       2.903   3.715  22.144  0.00  0.00    +0.000 HD
ATOM     22  H   UNL     1       3.114   2.118  22.283  0.00  0.00    +0.000 HD
ENDBRANCH  19  20
ENDBRANCH  13  19
ENDBRANCH  12  13
ENDBRANCH   6  12
TORSDOF 4
ENDMDL
MODEL 5
REMARK VINA RESULT:      -6.8      3.455      5.702
REMARK  Name = 
REMARK  6 active torsions:
REMARK  status: ('A' for Active; 'I' for Inactive)
REMARK    1  A    between atoms: C_1  and  C_2
REMARK    2  A    between atoms: C_6  and  C_8
REMARK    3  A    between atoms: C_8  and  C_9
REMARK    4  A    between atoms: C_9  and  C_10
REMARK    5  A    between atoms: C_10  and  N_11
REMARK    6  A    between atoms: N_18  and  C_19
REMARK                            x       y       z     vdW  Elec       q    Type
REMARK                         _______ _______ _______ _____ _____    ______ ____
ROOT
ATOM      1  C   UNL     1       0.728  11.979  19.246  0.00  0.00    +0.000 C 
ATOM      2  C   UNL     1       1.127  10.552  19.171  0.00  0.00    +0.000 A 
ATOM      3  C   UNL     1       1.609   9.797  18.111  0.00  0.00    +0.000 A 
ATOM      4  C   UNL     1       1.856   8.500  18.642  0.00  0.00    +0.000 A 
ATOM      5  N   UNL     1       2.325   7.409  17.925  0.00  0.00    +0.000 N 
ATOM      6  C   UNL     1       2.733   6.251  18.550  0.00  0.00    +0.000 C 
ATOM      7  O   UNL     1       2.968   6.234  19.763  0.00  0.00    +0.000 OA
ATOM      8  N   UNL     1       1.476   8.454  19.922  0.00  0.00    +0.000 NA
ATOM      9  N   UNL     1       1.091   9.697  20.231  0.00  0.00    +0.000 N 
ATOM     10  C   UNL     1       0.716   9.995  21.594  0.00  0.00    +0.000 C 
ATOM     11  H   UNL     1       2.415   7.508  16.930  0.00  0.00    +0.000 HD
ENDROOT
BRANCH   6  12
ATOM     12  C   UNL     1       2.754   4.894  17.691  0.00  0.00    +0.000 C 
BRANCH  12  13
ATOM     13  C   UNL     1       3.171   3.780  18.758  0.00  0.00    +0.000 C 
ATOM     14  C   UNL     1       3.466   3.400  20.266  0.00  0.00    +0.000 C 
ATOM     15  C   UNL     1       2.462   3.397  21.405  0.00  0.00    +0.000 C 
ATOM     16  C   UNL     1       1.139   2.775  21.033  0.00  0.00    +0.000 C 
ATOM     17  C   UNL     1       0.751   3.262  19.662  0.00  0.00    +0.000 C 
ATOM     18  C   UNL     1       1.844   2.891  18.611  0.00  0.00    +0.000 C 
BRANCH  13  19
ATOM     19  C   UNL     1       4.726   3.667  18.306  0.00  0.00    +0.000 C 
BRANCH  19  20
ATOM     20  N   UNL     1       5.629   4.399  19.281  0.00  0.00    +0.000 NA
ATOM     21  H   UNL     1       5.316   5.292  19.542  0.00  0.00    +0.000 HD
ATOM     22  H   UNL     1       6.556   4.500  18.871  0.00  0.00    +0.000 HD
ENDBRANCH  19  20
ENDBRANCH  13  19
ENDBRANCH  12  13
ENDBRANCH   6  12
TORSDOF 4
ENDMDL
MODEL 6
REMARK VINA RESULT:      -6.8      2.982      5.120
REMARK  Name = 
REMARK  6 active torsions:
REMARK  status: ('A' for Active; 'I' for Inactive)
REMARK    1  A    between atoms: C_1  and  C_2
REMARK    2  A    between atoms: C_6  and  C_8
REMARK    3  A    between atoms: C_8  and  C_9
REMARK    4  A    between atoms: C_9  and  C_10
REMARK    5  A    between atoms: C_10  and  N_11
REMARK    6  A    between atoms: N_18  and  C_19
REMARK                            x       y       z     vdW  Elec       q    Type
REMARK                         _______ _______ _______ _____ _____    ______ ____
ROOT
ATOM      1  C   UNL     1       0.358  10.840  18.739  0.00  0.00    +0.000 C 
ATOM      2  C   UNL     1       1.110   9.562  18.789  0.00  0.00    +0.000 A 
ATOM      3  C   UNL     1       1.713   8.823  17.782  0.00  0.00    +0.000 A 
ATOM      4  C   UNL     1       2.319   7.710  18.430  0.00  0.00    +0.000 A 
ATOM      5  N   UNL     1       3.016   6.689  17.801  0.00  0.00    +0.000 N 
ATOM      6  C   UNL     1       3.747   5.763  18.513  0.00  0.00    +0.000 C 
ATOM      7  O   UNL     1       4.045   5.964  19.694  0.00  0.00    +0.000 OA
ATOM      8  N   UNL     1       2.037   7.737  19.735  0.00  0.00    +0.000 NA
ATOM      9  N   UNL     1       1.358   8.871  19.937  0.00  0.00    +0.000 N 
ATOM     10  C   UNL     1       0.995   9.239  21.286  0.00  0.00    +0.000 C 
ATOM     11  H   UNL     1       3.022   6.678  16.797  0.00  0.00    +0.000 HD
ENDROOT
BRANCH   6  12
ATOM     12  C   UNL     1       4.073   4.356  17.812  0.00  0.00    +0.000 C 
BRANCH  12  13
ATOM     13  C   UNL     1       3.625   3.278  18.903  0.00  0.00    +0.000 C 
ATOM     14  C   UNL     1       2.996   2.980  20.325  0.00  0.00    +0.000 C 
ATOM     15  C   UNL     1       1.569   3.269  20.756  0.00  0.00    +0.000 C 
ATOM     16  C   UNL     1       0.543   2.884  19.718  0.00  0.00    +0.000 C 
ATOM     17  C   UNL     1       1.045   3.316  18.366  0.00  0.00    +0.000 C 
ATOM     18  C   UNL     1       2.421   2.652  18.047  0.00  0.00    +0.000 C 
BRANCH  13  19
ATOM     19  C   UNL     1       5.121   2.830  19.344  0.00  0.00    +0.000 C 
BRANCH  19  20
ATOM     20  N   UNL     1       5.083   1.576  20.197  0.00  0.00    +0.000 NA
ATOM     21  H   UNL     1       4.182   1.229  20.379  0.00  0.00    +0.000 HD
ATOM     22  H   UNL     1       5.532   1.764  21.092  0.00  0.00    +0.000 HD
ENDBRANCH  19  20
ENDBRANCH  13  19
ENDBRANCH  12  13
ENDBRANCH   6  12
TORSDOF 4
ENDMDL
MODEL 7
REMARK VINA RESULT:      -6.8      2.544      6.112
REMARK  Name = 
REMARK  6 active torsions:
REMARK  status: ('A' for Active; 'I' for Inactive)
REMARK    1  A    between atoms: C_1  and  C_2
REMARK    2  A    between atoms: C_6  and  C_8
REMARK    3  A    between atoms: C_8  and  C_9
REMARK    4  A    between atoms: C_9  and  C_10
REMARK    5  A    between atoms: C_10  and  N_11
REMARK    6  A    between atoms: N_18  and  C_19
REMARK                            x       y       z     vdW  Elec       q    Type
REMARK                         _______ _______ _______ _____ _____    ______ ____
ROOT
ATOM      1  C   UNL     1       0.677   8.979  20.958  0.00  0.00    +0.000 C 
ATOM      2  C   UNL     1       1.566   8.084  20.176  0.00  0.00    +0.000 A 
ATOM      3  C   UNL     1       2.164   6.878  20.512  0.00  0.00    +0.000 A 
ATOM      4  C   UNL     1       2.872   6.462  19.349  0.00  0.00    +0.000 A 
ATOM      5  N   UNL     1       3.641   5.312  19.239  0.00  0.00    +0.000 N 
ATOM      6  C   UNL     1       4.123   4.875  18.025  0.00  0.00    +0.000 C 
ATOM      7  O   UNL     1       3.663   5.314  16.966  0.00  0.00    +0.000 OA
ATOM      8  N   UNL     1       2.770   7.394  18.398  0.00  0.00    +0.000 NA
ATOM      9  N   UNL     1       1.950   8.328  18.892  0.00  0.00    +0.000 N 
ATOM     10  C   UNL     1       1.557   9.432  18.047  0.00  0.00    +0.000 C 
ATOM     11  H   UNL     1       3.789   4.769  20.070  0.00  0.00    +0.000 HD
ENDROOT
BRANCH   6  12
ATOM     12  C   UNL     1       5.394   3.893  18.024  0.00  0.00    +0.000 C 
BRANCH  12  13
ATOM     13  C   UNL     1       6.497   4.706  17.203  0.00  0.00    +0.000 C 
ATOM     14  C   UNL     1       6.963   6.076  16.561  0.00  0.00    +0.000 C 
ATOM     15  C   UNL     1       7.306   7.350  17.311  0.00  0.00    +0.000 C 
ATOM     16  C   UNL     1       8.157   7.113  18.534  0.00  0.00    +0.000 C 
ATOM     17  C   UNL     1       7.623   5.908  19.261  0.00  0.00    +0.000 C 
ATOM     18  C   UNL     1       7.634   4.651  18.335  0.00  0.00    +0.000 C 
BRANCH  13  19
ATOM     19  C   UNL     1       6.220   3.996  15.770  0.00  0.00    +0.000 C 
BRANCH  19  20
ATOM     20  N   UNL     1       5.775   5.015  14.738  0.00  0.00    +0.000 NA
ATOM     21  H   UNL     1       5.986   4.779  13.808  0.00  0.00    +0.000 HD
ATOM     22  H   UNL     1       6.213   5.912  14.939  0.00  0.00    +0.000 HD
ENDBRANCH  19  20
ENDBRANCH  13  19
ENDBRANCH  12  13
ENDBRANCH   6  12
TORSDOF 4
ENDMDL
MODEL 8
REMARK VINA RESULT:      -6.8      1.829      6.044
REMARK  Name = 
REMARK  6 active torsions:
REMARK  status: ('A' for Active; 'I' for Inactive)
REMARK    1  A    between atoms: C_1  and  C_2
REMARK    2  A    between atoms: C_6  and  C_8
REMARK    3  A    between atoms: C_8  and  C_9
REMARK    4  A    between atoms: C_9  and  C_10
REMARK    5  A    between atoms: C_10  and  N_11
REMARK    6  A    between atoms: N_18  and  C_19
REMARK                            x       y       z     vdW  Elec       q    Type
REMARK                         _______ _______ _______ _____ _____    ______ ____
ROOT
ATOM      1  C   UNL     1       1.595   2.812  21.931  0.00  0.00    +0.000 C 
ATOM      2  C   UNL     1       2.372   3.138  20.709  0.00  0.00    +0.000 A 
ATOM      3  C   UNL     1       3.097   2.326  19.850  0.00  0.00    +0.000 A 
ATOM      4  C   UNL     1       3.592   3.187  18.830  0.00  0.00    +0.000 A 
ATOM      5  N   UNL     1       4.396   2.802  17.767  0.00  0.00    +0.000 N 
ATOM      6  C   UNL     1       4.661   3.650  16.714  0.00  0.00    +0.000 C 
ATOM      7  O   UNL     1       3.980   4.664  16.530  0.00  0.00    +0.000 OA
ATOM      8  N   UNL     1       3.251   4.450  19.099  0.00  0.00    +0.000 NA
ATOM      9  N   UNL     1       2.485   4.394  20.193  0.00  0.00    +0.000 N 
ATOM     10  C   UNL     1       1.868   5.607  20.679  0.00  0.00    +0.000 C 
ATOM     11  H   UNL     1       4.735   1.857  17.756  0.00  0.00    +0.000 HD
ENDROOT
BRANCH   6  12
ATOM     12  C   UNL     1       5.966   3.366  15.823  0.00  0.00    +0.000 C 
BRANCH  12  13
ATOM     13  C   UNL     1       6.708   4.780  15.779  0.00  0.00    +0.000 C 
ATOM     14  C   UNL     1       6.652   6.341  16.038  0.00  0.00    +0.000 C 
ATOM     15  C   UNL     1       6.506   7.025  17.385  0.00  0.00    +0.000 C 
ATOM     16  C   UNL     1       7.377   6.420  18.459  0.00  0.00    +0.000 C 
ATOM     17  C   UNL     1       7.308   4.921  18.341  0.00  0.00    +0.000 C 
ATOM     18  C   UNL     1       7.779   4.453  16.928  0.00  0.00    +0.000 C 
BRANCH  13  19
ATOM     19  C   UNL     1       6.717   4.932  14.163  0.00  0.00    +0.000 C 
BRANCH  19  20
ATOM     20  N   UNL     1       6.401   3.608  13.493  0.00  0.00    +0.000 NA
ATOM     21  H   UNL     1       7.101   2.925  13.579  0.00  0.00    +0.000 HD
ATOM     22  H   UNL     1       6.237   3.764  12.500  0.00  0.00    +0.000 HD
ENDBRANCH  19  20
ENDBRANCH  13  19
ENDBRANCH  12  13
ENDBRANCH   6  12
TORSDOF 4
ENDMDL
MODEL 9
REMARK VINA RESULT:      -6.7      2.888      6.315
REMARK  Name = 
REMARK  6 active torsions:
REMARK  status: ('A' for Active; 'I' for Inactive)
REMARK    1  A    between atoms: C_1  and  C_2
REMARK    2  A    between atoms: C_6  and  C_8
REMARK    3  A    between atoms: C_8  and  C_9
REMARK    4  A    between atoms: C_9  and  C_10
REMARK    5  A    between atoms: C_10  and  N_11
REMARK    6  A    between atoms: N_18  and  C_19
REMARK                            x       y       z     vdW  Elec       q    Type
REMARK                         _______ _______ _______ _____ _____    ______ ____
ROOT
ATOM      1  C   UNL     1       0.519  10.581  18.837  0.00  0.00    +0.000 C 
ATOM      2  C   UNL     1       1.317   9.330  18.835  0.00  0.00    +0.000 A 
ATOM      3  C   UNL     1       2.227   8.833  17.914  0.00  0.00    +0.000 A 
ATOM      4  C   UNL     1       2.706   7.611  18.465  0.00  0.00    +0.000 A 
ATOM      5  N   UNL     1       3.622   6.758  17.866  0.00  0.00    +0.000 N 
ATOM      6  C   UNL     1       4.189   5.705  18.550  0.00  0.00    +0.000 C 
ATOM      7  O   UNL     1       4.130   5.646  19.783  0.00  0.00    +0.000 OA
ATOM      8  N   UNL     1       2.070   7.350  19.610  0.00  0.00    +0.000 NA
ATOM      9  N   UNL     1       1.283   8.407  19.837  0.00  0.00    +0.000 N 
ATOM     10  C   UNL     1       0.533   8.468  21.070  0.00  0.00    +0.000 C 
ATOM     11  H   UNL     1       3.908   6.967  16.926  0.00  0.00    +0.000 HD
ENDROOT
BRANCH   6  12
ATOM     12  C   UNL     1       4.797   4.488  17.698  0.00  0.00    +0.000 C 
BRANCH  12  13
ATOM     13  C   UNL     1       6.078   5.129  16.989  0.00  0.00    +0.000 C 
ATOM     14  C   UNL     1       6.866   6.428  16.546  0.00  0.00    +0.000 C 
ATOM     15  C   UNL     1       7.482   7.464  17.469  0.00  0.00    +0.000 C 
ATOM     16  C   UNL     1       8.228   6.859  18.633  0.00  0.00    +0.000 C 
ATOM     17  C   UNL     1       7.410   5.722  19.184  0.00  0.00    +0.000 C 
ATOM     18  C   UNL     1       7.145   4.645  18.086  0.00  0.00    +0.000 C 
BRANCH  13  19
ATOM     19  C   UNL     1       5.672   4.718  15.472  0.00  0.00    +0.000 C 
BRANCH  19  20
ATOM     20  N   UNL     1       6.648   5.308  14.471  0.00  0.00    +0.000 NA
ATOM     21  H   UNL     1       7.503   5.602  14.854  0.00  0.00    +0.000 HD
ATOM     22  H   UNL     1       6.218   6.109  14.013  0.00  0.00    +0.000 HD
ENDBRANCH  19  20
ENDBRANCH  13  19
ENDBRANCH  12  13
ENDBRANCH   6  12
TORSDOF 4
ENDMDL
