MODEL 1
REMARK VINA RESULT:      -6.7      0.000      0.000
REMARK  Name = 
REMARK  11 active torsions:
REMARK  status: ('A' for Active; 'I' for Inactive)
REMARK    1  A    between atoms: C_1  and  C_2
REMARK    2  A    between atoms: C_2  and  O_3
REMARK    3  A    between atoms: O_3  and  C_4
REMARK    4  A    between atoms: C_6  and  N_7
REMARK    5  A    between atoms: N_7  and  C_8
REMARK    6  A    between atoms: C_8  and  C_9
REMARK    7  A    between atoms: C_9  and  N_10
REMARK    8  A    between atoms: C_16  and  N_17
REMARK    9  A    between atoms: C_21  and  O_22
REMARK   10  A    between atoms: O_22  and  C_23
REMARK   11  A    between atoms: C_23  and  C_24
REMARK                            x       y       z     vdW  Elec       q    Type
REMARK                         _______ _______ _______ _____ _____    ______ ____
ROOT
ATOM      1  C   UNL     1       2.242   7.540  19.053  0.00  0.00    +0.000 A 
ATOM      2  C   UNL     1       2.550   6.361  18.356  0.00  0.00    +0.000 A 
ATOM      3  C   UNL     1       2.377   5.059  18.866  0.00  0.00    +0.000 A 
ATOM      4  C   UNL     1       1.849   4.980  20.171  0.00  0.00    +0.000 A 
ATOM      5  C   UNL     1       1.571   6.154  20.907  0.00  0.00    +0.000 A 
ATOM      6  C   UNL     1       1.781   7.430  20.366  0.00  0.00    +0.000 A 
ENDROOT
BRANCH   4   7
ATOM      7  N   UNL     1       1.641   3.687  20.848  0.00  0.00    +0.000 N 
ATOM      8  O   UNL     1       2.172   3.512  21.953  0.00  0.00    +0.000 OA
ATOM      9  O   UNL     1       0.935   2.842  20.277  0.00  0.00    +0.000 OA
ENDBRANCH   4   7
BRANCH   3  10
ATOM     10  N   UNL     1       2.591   3.952  18.005  0.00  0.00    +0.000 N 
ATOM     11  H   UNL     1       1.783   3.323  17.995  0.00  0.00    +0.000 HD
BRANCH  10  12
ATOM     12  C   UNL     1       3.874   3.237  18.160  0.00  0.00    +0.000 C 
BRANCH  12  13
ATOM     13  C   UNL     1       5.095   4.162  18.312  0.00  0.00    +0.000 C 
BRANCH  13  14
ATOM     14  N   UNL     1       5.926   4.185  17.080  0.00  0.00    +0.000 NA
ATOM     15  C   UNL     1       7.287   4.705  17.347  0.00  0.00    +0.000 C 
ATOM     16  C   UNL     1       7.335   6.226  17.584  0.00  0.00    +0.000 C 
ATOM     17  O   UNL     1       6.707   6.961  16.523  0.00  0.00    +0.000 OA
ATOM     18  C   UNL     1       5.366   6.508  16.292  0.00  0.00    +0.000 C 
ATOM     19  C   UNL     1       5.354   5.005  15.988  0.00  0.00    +0.000 C 
ENDBRANCH  13  14
ENDBRANCH  12  13
ENDBRANCH  10  12
ENDBRANCH   3  10
BRANCH   1  20
ATOM     20  O   UNL     1       2.384   8.776  18.465  0.00  0.00    +0.000 OA
BRANCH  20  22
ATOM     21  C   UNL     1       0.933  10.710  18.606  0.00  0.00    +0.000 C 
ATOM     22  C   UNL     1       1.181   9.368  17.950  0.00  0.00    +0.000 C 
ENDBRANCH  20  22
ENDBRANCH   1  20
BRANCH   6  23
ATOM     23  O   UNL     1       1.449   8.432  21.234  0.00  0.00    +0.000 OA
BRANCH  23  24
ATOM     24  C   UNL     1       0.074   8.608  21.567  0.00  0.00    +0.000 C 
ATOM     25  C   UNL     1       0.012   9.443  22.835  0.00  0.00    +0.000 C 
ENDBRANCH  23  24
ENDBRANCH   6  23
TORSDOF 9
ENDMDL
MODEL 2
REMARK VINA RESULT:      -6.6      0.845      1.317
REMARK  Name = 
REMARK  11 active torsions:
REMARK  status: ('A' for Active; 'I' for Inactive)
REMARK    1  A    between atoms: C_1  and  C_2
REMARK    2  A    between atoms: C_2  and  O_3
REMARK    3  A    between atoms: O_3  and  C_4
REMARK    4  A    between atoms: C_6  and  N_7
REMARK    5  A    between atoms: N_7  and  C_8
REMARK    6  A    between atoms: C_8  and  C_9
REMARK    7  A    between atoms: C_9  and  N_10
REMARK    8  A    between atoms: C_16  and  N_17
REMARK    9  A    between atoms: C_21  and  O_22
REMARK   10  A    between atoms: O_22  and  C_23
REMARK   11  A    between atoms: C_23  and  C_24
REMARK                            x       y       z     vdW  Elec       q    Type
REMARK                         _______ _______ _______ _____ _____    ______ ____
ROOT
ATOM      1  C   UNL     1       2.149   7.572  19.129  0.00  0.00    +0.000 A 
ATOM      2  C   UNL     1       2.417   6.396  18.413  0.00  0.00    +0.000 A 
ATOM      3  C   UNL     1       2.255   5.091  18.921  0.00  0.00    +0.000 A 
ATOM      4  C   UNL     1       1.782   5.008  20.246  0.00  0.00    +0.000 A 
ATOM      5  C   UNL     1       1.546   6.179  21.001  0.00  0.00    +0.000 A 
ATOM      6  C   UNL     1       1.744   7.457  20.460  0.00  0.00    +0.000 A 
ENDROOT
BRANCH   4   7
ATOM      7  N   UNL     1       1.592   3.712  20.924  0.00  0.00    +0.000 N 
ATOM      8  O   UNL     1       2.130   3.543  22.026  0.00  0.00    +0.000 OA
ATOM      9  O   UNL     1       0.894   2.859  20.354  0.00  0.00    +0.000 OA
ENDBRANCH   4   7
BRANCH   3  10
ATOM     10  N   UNL     1       2.422   3.988  18.044  0.00  0.00    +0.000 N 
ATOM     11  H   UNL     1       1.638   3.334  18.111  0.00  0.00    +0.000 HD
BRANCH  10  12
ATOM     12  C   UNL     1       3.737   3.316  18.078  0.00  0.00    +0.000 C 
BRANCH  12  13
ATOM     13  C   UNL     1       4.539   3.436  16.769  0.00  0.00    +0.000 C 
BRANCH  13  14
ATOM     14  N   UNL     1       4.923   4.844  16.486  0.00  0.00    +0.000 NA
ATOM     15  C   UNL     1       5.381   5.016  15.088  0.00  0.00    +0.000 C 
ATOM     16  C   UNL     1       6.777   4.426  14.815  0.00  0.00    +0.000 C 
ATOM     17  O   UNL     1       7.762   4.913  15.738  0.00  0.00    +0.000 OA
ATOM     18  C   UNL     1       7.360   4.700  17.098  0.00  0.00    +0.000 C 
ATOM     19  C   UNL     1       6.000   5.358  17.362  0.00  0.00    +0.000 C 
ENDBRANCH  13  14
ENDBRANCH  12  13
ENDBRANCH  10  12
ENDBRANCH   3  10
BRANCH   1  20
ATOM     20  O   UNL     1       2.277   8.811  18.544  0.00  0.00    +0.000 OA
BRANCH  20  22
ATOM     21  C   UNL     1       0.811  10.733  18.686  0.00  0.00    +0.000 C 
ATOM     22  C   UNL     1       1.067   9.391  18.033  0.00  0.00    +0.000 C 
ENDBRANCH  20  22
ENDBRANCH   1  20
BRANCH   6  23
ATOM     23  O   UNL     1       1.458   8.456  21.348  0.00  0.00    +0.000 OA
BRANCH  23  24
ATOM     24  C   UNL     1       0.090   8.711  21.658  0.00  0.00    +0.000 C 
ATOM     25  C   UNL     1       0.053   9.485  22.966  0.00  0.00    +0.000 C 
ENDBRANCH  23  24
ENDBRANCH   6  23
TORSDOF 9
ENDMDL
MODEL 3
REMARK VINA RESULT:      -6.3      2.222      6.861
REMARK  Name = 
REMARK  11 active torsions:
REMARK  status: ('A' for Active; 'I' for Inactive)
REMARK    1  A    between atoms: C_1  and  C_2
REMARK    2  A    between atoms: C_2  and  O_3
REMARK    3  A    between atoms: O_3  and  C_4
REMARK    4  A    between atoms: C_6  and  N_7
REMARK    5  A    between atoms: N_7  and  C_8
REMARK    6  A    between atoms: C_8  and  C_9
REMARK    7  A    between atoms: C_9  and  N_10
REMARK    8  A    between atoms: C_16  and  N_17
REMARK    9  A    between atoms: C_21  and  O_22
REMARK   10  A    between atoms: O_22  and  C_23
REMARK   11  A    between atoms: C_23  and  C_24
REMARK                            x       y       z     vdW  Elec       q    Type
REMARK                         _______ _______ _______ _____ _____    ______ ____
ROOT
ATOM      1  C   UNL     1       5.652   6.411  16.817  0.00  0.00    +0.000 A 
ATOM      2  C   UNL     1       4.482   6.906  17.415  0.00  0.00    +0.000 A 
ATOM      3  C   UNL     1       3.357   6.124  17.744  0.00  0.00    +0.000 A 
ATOM      4  C   UNL     1       3.457   4.752  17.439  0.00  0.00    +0.000 A 
ATOM      5  C   UNL     1       4.607   4.239  16.798  0.00  0.00    +0.000 A 
ATOM      6  C   UNL     1       5.695   5.060  16.468  0.00  0.00    +0.000 A 
ENDROOT
BRANCH   4   7
ATOM      7  N   UNL     1       2.348   3.815  17.697  0.00  0.00    +0.000 N 
ATOM      8  O   UNL     1       1.203   4.159  17.376  0.00  0.00    +0.000 OA
ATOM      9  O   UNL     1       2.623   2.723  18.219  0.00  0.00    +0.000 OA
ENDBRANCH   4   7
BRANCH   3  10
ATOM     10  N   UNL     1       2.299   6.722  18.477  0.00  0.00    +0.000 N 
ATOM     11  H   UNL     1       1.493   6.094  18.552  0.00  0.00    +0.000 HD
BRANCH  10  12
ATOM     12  C   UNL     1       1.923   8.095  18.086  0.00  0.00    +0.000 C 
BRANCH  12  13
ATOM     13  C   UNL     1       1.812   9.078  19.267  0.00  0.00    +0.000 C 
BRANCH  13  14
ATOM     14  N   UNL     1       0.473   9.020  19.908  0.00  0.00    +0.000 NA
ATOM     15  C   UNL     1      -0.139  10.364  20.021  0.00  0.00    +0.000 C 
ATOM     16  C   UNL     1       0.503  11.251  21.104  0.00  0.00    +0.000 C 
ATOM     17  O   UNL     1       0.545  10.601  22.382  0.00  0.00    +0.000 OA
ATOM     18  C   UNL     1       1.189   9.321  22.302  0.00  0.00    +0.000 C 
ATOM     19  C   UNL     1       0.486   8.434  21.268  0.00  0.00    +0.000 C 
ENDBRANCH  13  14
ENDBRANCH  12  13
ENDBRANCH  10  12
ENDBRANCH   3  10
BRANCH   1  20
ATOM     20  O   UNL     1       6.733   7.227  16.578  0.00  0.00    +0.000 OA
BRANCH  20  22
ATOM     21  C   UNL     1       8.058   8.827  17.823  0.00  0.00    +0.000 C 
ATOM     22  C   UNL     1       7.659   7.375  17.666  0.00  0.00    +0.000 C 
ENDBRANCH  20  22
ENDBRANCH   1  20
BRANCH   6  23
ATOM     23  O   UNL     1       6.707   4.374  15.858  0.00  0.00    +0.000 OA
BRANCH  23  24
ATOM     24  C   UNL     1       7.026   4.700  14.507  0.00  0.00    +0.000 C 
ATOM     25  C   UNL     1       6.142   3.849  13.610  0.00  0.00    +0.000 C 
ENDBRANCH  23  24
ENDBRANCH   6  23
TORSDOF 9
ENDMDL
MODEL 4
REMARK VINA RESULT:      -6.2      2.496      6.980
REMARK  Name = 
REMARK  11 active torsions:
REMARK  status: ('A' for Active; 'I' for Inactive)
REMARK    1  A    between atoms: C_1  and  C_2
REMARK    2  A    between atoms: C_2  and  O_3
REMARK    3  A    between atoms: O_3  and  C_4
REMARK    4  A    between atoms: C_6  and  N_7
REMARK    5  A    between atoms: N_7  and  C_8
REMARK    6  A    between atoms: C_8  and  C_9
REMARK    7  A    between atoms: C_9  and  N_10
REMARK    8  A    between atoms: C_16  and  N_17
REMARK    9  A    between atoms: C_21  and  O_22
REMARK   10  A    between atoms: O_22  and  C_23
REMARK   11  A    between atoms: C_23  and  C_24
REMARK                            x       y       z     vdW  Elec       q    Type
REMARK                         _______ _______ _______ _____ _____    ______ ____
ROOT
ATOM      1  C   UNL     1       5.539   6.490  16.912  0.00  0.00    +0.000 A 
ATOM      2  C   UNL     1       4.381   7.156  17.343  0.00  0.00    +0.000 A 
ATOM      3  C   UNL     1       3.190   6.517  17.740  0.00  0.00    +0.000 A 
ATOM      4  C   UNL     1       3.207   5.108  17.691  0.00  0.00    +0.000 A 
ATOM      5  C   UNL     1       4.347   4.419  17.220  0.00  0.00    +0.000 A 
ATOM      6  C   UNL     1       5.504   5.099  16.812  0.00  0.00    +0.000 A 
ENDROOT
BRANCH   4   7
ATOM      7  N   UNL     1       2.025   4.303  18.047  0.00  0.00    +0.000 N 
ATOM      8  O   UNL     1       1.052   4.320  17.282  0.00  0.00    +0.000 OA
ATOM      9  O   UNL     1       2.070   3.643  19.097  0.00  0.00    +0.000 OA
ENDBRANCH   4   7
BRANCH   3  10
ATOM     10  N   UNL     1       2.144   7.301  18.293  0.00  0.00    +0.000 N 
ATOM     11  H   UNL     1       1.224   6.946  18.017  0.00  0.00    +0.000 HD
BRANCH  10  12
ATOM     12  C   UNL     1       2.267   8.764  18.134  0.00  0.00    +0.000 C 
BRANCH  12  13
ATOM     13  C   UNL     1       0.921   9.514  18.148  0.00  0.00    +0.000 C 
BRANCH  13  14
ATOM     14  N   UNL     1       0.681  10.190  19.449  0.00  0.00    +0.000 NA
ATOM     15  C   UNL     1      -0.759  10.213  19.797  0.00  0.00    +0.000 C 
ATOM     16  C   UNL     1      -1.585  11.208  18.960  0.00  0.00    +0.000 C 
ATOM     17  O   UNL     1      -1.032  12.532  18.990  0.00  0.00    +0.000 OA
ATOM     18  C   UNL     1       0.348  12.535  18.599  0.00  0.00    +0.000 C 
ATOM     19  C   UNL     1       1.160  11.591  19.493  0.00  0.00    +0.000 C 
ENDBRANCH  13  14
ENDBRANCH  12  13
ENDBRANCH  10  12
ENDBRANCH   3  10
BRANCH   1  20
ATOM     20  O   UNL     1       6.686   7.182  16.594  0.00  0.00    +0.000 OA
BRANCH  20  22
ATOM     21  C   UNL     1       8.013   8.807  17.805  0.00  0.00    +0.000 C 
ATOM     22  C   UNL     1       7.633   7.348  17.660  0.00  0.00    +0.000 C 
ENDBRANCH  20  22
ENDBRANCH   1  20
BRANCH   6  23
ATOM     23  O   UNL     1       6.492   4.253  16.395  0.00  0.00    +0.000 OA
BRANCH  23  24
ATOM     24  C   UNL     1       7.020   4.427  15.082  0.00  0.00    +0.000 C 
ATOM     25  C   UNL     1       5.938   4.019  14.095  0.00  0.00    +0.000 C 
ENDBRANCH  23  24
ENDBRANCH   6  23
TORSDOF 9
ENDMDL
MODEL 5
REMARK VINA RESULT:      -6.2      2.904      6.228
REMARK  Name = 
REMARK  11 active torsions:
REMARK  status: ('A' for Active; 'I' for Inactive)
REMARK    1  A    between atoms: C_1  and  C_2
REMARK    2  A    between atoms: C_2  and  O_3
REMARK    3  A    between atoms: O_3  and  C_4
REMARK    4  A    between atoms: C_6  and  N_7
REMARK    5  A    between atoms: N_7  and  C_8
REMARK    6  A    between atoms: C_8  and  C_9
REMARK    7  A    between atoms: C_9  and  N_10
REMARK    8  A    between atoms: C_16  and  N_17
REMARK    9  A    between atoms: C_21  and  O_22
REMARK   10  A    between atoms: O_22  and  C_23
REMARK   11  A    between atoms: C_23  and  C_24
REMARK                            x       y       z     vdW  Elec       q    Type
REMARK                         _______ _______ _______ _____ _____    ______ ____
ROOT
ATOM      1  C   UNL     1       6.441   5.188  16.149  0.00  0.00    +0.000 A 
ATOM      2  C   UNL     1       5.300   4.398  16.348  0.00  0.00    +0.000 A 
ATOM      3  C   UNL     1       4.166   4.795  17.085  0.00  0.00    +0.000 A 
ATOM      4  C   UNL     1       4.223   6.089  17.641  0.00  0.00    +0.000 A 
ATOM      5  C   UNL     1       5.380   6.887  17.490  0.00  0.00    +0.000 A 
ATOM      6  C   UNL     1       6.495   6.439  16.766  0.00  0.00    +0.000 A 
ENDROOT
BRANCH   4   7
ATOM      7  N   UNL     1       3.126   6.631  18.463  0.00  0.00    +0.000 N 
ATOM      8  O   UNL     1       3.035   6.256  19.640  0.00  0.00    +0.000 OA
ATOM      9  O   UNL     1       2.352   7.443  17.932  0.00  0.00    +0.000 OA
ENDBRANCH   4   7
BRANCH   3  10
ATOM     10  N   UNL     1       3.021   3.957  17.086  0.00  0.00    +0.000 N 
ATOM     11  H   UNL     1       2.210   4.431  17.493  0.00  0.00    +0.000 HD
BRANCH  10  12
ATOM     12  C   UNL     1       3.209   2.588  17.608  0.00  0.00    +0.000 C 
BRANCH  12  13
ATOM     13  C   UNL     1       3.652   2.532  19.082  0.00  0.00    +0.000 C 
BRANCH  13  14
ATOM     14  N   UNL     1       2.620   1.900  19.944  0.00  0.00    +0.000 NA
ATOM     15  C   UNL     1       1.251   2.185  19.458  0.00  0.00    +0.000 C 
ATOM     16  C   UNL     1       0.789   3.632  19.713  0.00  0.00    +0.000 C 
ATOM     17  O   UNL     1       0.930   4.011  21.090  0.00  0.00    +0.000 OA
ATOM     18  C   UNL     1       2.268   3.796  21.561  0.00  0.00    +0.000 C 
ATOM     19  C   UNL     1       2.677   2.332  21.359  0.00  0.00    +0.000 C 
ENDBRANCH  13  14
ENDBRANCH  12  13
ENDBRANCH  10  12
ENDBRANCH   3  10
BRANCH   1  20
ATOM     20  O   UNL     1       7.487   4.753  15.367  0.00  0.00    +0.000 OA
BRANCH  20  22
ATOM     21  C   UNL     1       6.538   3.913  13.303  0.00  0.00    +0.000 C 
ATOM     22  C   UNL     1       7.362   5.002  13.958  0.00  0.00    +0.000 C 
ENDBRANCH  20  22
ENDBRANCH   1  20
BRANCH   6  23
ATOM     23  O   UNL     1       7.506   7.358  16.736  0.00  0.00    +0.000 OA
BRANCH  23  24
ATOM     24  C   UNL     1       8.082   7.769  17.973  0.00  0.00    +0.000 C 
ATOM     25  C   UNL     1       8.240   9.279  17.927  0.00  0.00    +0.000 C 
ENDBRANCH  23  24
ENDBRANCH   6  23
TORSDOF 9
ENDMDL
MODEL 6
REMARK VINA RESULT:      -6.1      2.506      6.930
REMARK  Name = 
REMARK  11 active torsions:
REMARK  status: ('A' for Active; 'I' for Inactive)
REMARK    1  A    between atoms: C_1  and  C_2
REMARK    2  A    between atoms: C_2  and  O_3
REMARK    3  A    between atoms: O_3  and  C_4
REMARK    4  A    between atoms: C_6  and  N_7
REMARK    5  A    between atoms: N_7  and  C_8
REMARK    6  A    between atoms: C_8  and  C_9
REMARK    7  A    between atoms: C_9  and  N_10
REMARK    8  A    between atoms: C_16  and  N_17
REMARK    9  A    between atoms: C_21  and  O_22
REMARK   10  A    between atoms: O_22  and  C_23
REMARK   11  A    between atoms: C_23  and  C_24
REMARK                            x       y       z     vdW  Elec       q    Type
REMARK                         _______ _______ _______ _____ _____    ______ ____
ROOT
ATOM      1  C   UNL     1       2.575   5.063  19.226  0.00  0.00    +0.000 A 
ATOM      2  C   UNL     1       2.476   6.408  18.836  0.00  0.00    +0.000 A 
ATOM      3  C   UNL     1       3.346   7.047  17.930  0.00  0.00    +0.000 A 
ATOM      4  C   UNL     1       4.370   6.239  17.396  0.00  0.00    +0.000 A 
ATOM      5  C   UNL     1       4.515   4.895  17.806  0.00  0.00    +0.000 A 
ATOM      6  C   UNL     1       3.639   4.308  18.730  0.00  0.00    +0.000 A 
ENDROOT
BRANCH   4   7
ATOM      7  N   UNL     1       5.374   6.776  16.459  0.00  0.00    +0.000 N 
ATOM      8  O   UNL     1       5.050   6.922  15.273  0.00  0.00    +0.000 OA
ATOM      9  O   UNL     1       6.494   7.061  16.912  0.00  0.00    +0.000 OA
ENDBRANCH   4   7
BRANCH   3  10
ATOM     10  N   UNL     1       3.046   8.369  17.509  0.00  0.00    +0.000 N 
ATOM     11  H   UNL     1       3.812   9.013  17.726  0.00  0.00    +0.000 HD
BRANCH  10  12
ATOM     12  C   UNL     1       1.723   8.897  17.898  0.00  0.00    +0.000 C 
BRANCH  12  13
ATOM     13  C   UNL     1       1.724  10.394  18.258  0.00  0.00    +0.000 C 
BRANCH  13  14
ATOM     14  N   UNL     1       0.409  10.832  18.794  0.00  0.00    +0.000 NA
ATOM     15  C   UNL     1       0.432  12.254  19.209  0.00  0.00    +0.000 C 
ATOM     16  C   UNL     1       1.214  12.508  20.512  0.00  0.00    +0.000 C 
ATOM     17  O   UNL     1       0.763  11.670  21.587  0.00  0.00    +0.000 OA
ATOM     18  C   UNL     1       0.790  10.283  21.220  0.00  0.00    +0.000 C 
ATOM     19  C   UNL     1      -0.053  10.047  19.961  0.00  0.00    +0.000 C 
ENDBRANCH  13  14
ENDBRANCH  12  13
ENDBRANCH  10  12
ENDBRANCH   3  10
BRANCH   1  20
ATOM     20  O   UNL     1       1.651   4.494  20.073  0.00  0.00    +0.000 OA
BRANCH  20  22
ATOM     21  C   UNL     1       1.685   2.682  21.679  0.00  0.00    +0.000 C 
ATOM     22  C   UNL     1       2.147   4.088  21.358  0.00  0.00    +0.000 C 
ENDBRANCH  20  22
ENDBRANCH   1  20
BRANCH   6  23
ATOM     23  O   UNL     1       3.946   3.002  18.992  0.00  0.00    +0.000 OA
BRANCH  23  24
ATOM     24  C   UNL     1       3.635   2.024  18.002  0.00  0.00    +0.000 C 
ATOM     25  C   UNL     1       2.122   1.887  17.953  0.00  0.00    +0.000 C 
ENDBRANCH  23  24
ENDBRANCH   6  23
TORSDOF 9
ENDMDL
MODEL 7
REMARK VINA RESULT:      -6.1      2.505      6.871
REMARK  Name = 
REMARK  11 active torsions:
REMARK  status: ('A' for Active; 'I' for Inactive)
REMARK    1  A    between atoms: C_1  and  C_2
REMARK    2  A    between atoms: C_2  and  O_3
REMARK    3  A    between atoms: O_3  and  C_4
REMARK    4  A    between atoms: C_6  and  N_7
REMARK    5  A    between atoms: N_7  and  C_8
REMARK    6  A    between atoms: C_8  and  C_9
REMARK    7  A    between atoms: C_9  and  N_10
REMARK    8  A    between atoms: C_16  and  N_17
REMARK    9  A    between atoms: C_21  and  O_22
REMARK   10  A    between atoms: O_22  and  C_23
REMARK   11  A    between atoms: C_23  and  C_24
REMARK                            x       y       z     vdW  Elec       q    Type
REMARK                         _______ _______ _______ _____ _____    ______ ____
ROOT
ATOM      1  C   UNL     1       3.385   5.110  19.725  0.00  0.00    +0.000 A 
ATOM      2  C   UNL     1       3.048   6.342  19.144  0.00  0.00    +0.000 A 
ATOM      3  C   UNL     1       3.721   6.926  18.052  0.00  0.00    +0.000 A 
ATOM      4  C   UNL     1       4.801   6.182  17.534  0.00  0.00    +0.000 A 
ATOM      5  C   UNL     1       5.185   4.960  18.129  0.00  0.00    +0.000 A 
ATOM      6  C   UNL     1       4.498   4.429  19.231  0.00  0.00    +0.000 A 
ENDROOT
BRANCH   4   7
ATOM      7  N   UNL     1       5.618   6.679  16.412  0.00  0.00    +0.000 N 
ATOM      8  O   UNL     1       6.809   6.941  16.626  0.00  0.00    +0.000 OA
ATOM      9  O   UNL     1       5.069   6.802  15.306  0.00  0.00    +0.000 OA
ENDBRANCH   4   7
BRANCH   3  10
ATOM     10  N   UNL     1       3.188   8.105  17.469  0.00  0.00    +0.000 N 
ATOM     11  H   UNL     1       3.803   8.909  17.619  0.00  0.00    +0.000 HD
BRANCH  10  12
ATOM     12  C   UNL     1       1.772   8.401  17.767  0.00  0.00    +0.000 C 
BRANCH  12  13
ATOM     13  C   UNL     1       1.516   9.846  18.233  0.00  0.00    +0.000 C 
BRANCH  13  14
ATOM     14  N   UNL     1       0.357   9.928  19.161  0.00  0.00    +0.000 NA
ATOM     15  C   UNL     1      -0.700  10.823  18.638  0.00  0.00    +0.000 C 
ATOM     16  C   UNL     1      -0.343  12.320  18.717  0.00  0.00    +0.000 C 
ATOM     17  O   UNL     1       0.051  12.714  20.039  0.00  0.00    +0.000 OA
ATOM     18  C   UNL     1       1.117  11.893  20.538  0.00  0.00    +0.000 C 
ATOM     19  C   UNL     1       0.709  10.415  20.515  0.00  0.00    +0.000 C 
ENDBRANCH  13  14
ENDBRANCH  12  13
ENDBRANCH  10  12
ENDBRANCH   3  10
BRANCH   1  20
ATOM     20  O   UNL     1       2.643   4.578  20.754  0.00  0.00    +0.000 OA
BRANCH  20  22
ATOM     21  C   UNL     1       0.808   3.181  20.015  0.00  0.00    +0.000 C 
ATOM     22  C   UNL     1       1.222   4.537  20.547  0.00  0.00    +0.000 C 
ENDBRANCH  20  22
ENDBRANCH   1  20
BRANCH   6  23
ATOM     23  O   UNL     1       5.023   3.241  19.655  0.00  0.00    +0.000 OA
BRANCH  23  24
ATOM     24  C   UNL     1       4.175   2.095  19.668  0.00  0.00    +0.000 C 
ATOM     25  C   UNL     1       3.696   1.864  18.244  0.00  0.00    +0.000 C 
ENDBRANCH  23  24
ENDBRANCH   6  23
TORSDOF 9
ENDMDL
MODEL 8
REMARK VINA RESULT:      -6.1      2.522      6.926
REMARK  Name = 
REMARK  11 active torsions:
REMARK  status: ('A' for Active; 'I' for Inactive)
REMARK    1  A    between atoms: C_1  and  C_2
REMARK    2  A    between atoms: C_2  and  O_3
REMARK    3  A    between atoms: O_3  and  C_4
REMARK    4  A    between atoms: C_6  and  N_7
REMARK    5  A    between atoms: N_7  and  C_8
REMARK    6  A    between atoms: C_8  and  C_9
REMARK    7  A    between atoms: C_9  and  N_10
REMARK    8  A    between atoms: C_16  and  N_17
REMARK    9  A    between atoms: C_21  and  O_22
REMARK   10  A    between atoms: O_22  and  C_23
REMARK   11  A    between atoms: C_23  and  C_24
REMARK                            x       y       z     vdW  Elec       q    Type
REMARK                         _______ _______ _______ _____ _____    ______ ____
ROOT
ATOM      1  C   UNL     1       5.421   6.572  16.973  0.00  0.00    +0.000 A 
ATOM      2  C   UNL     1       4.322   7.203  17.575  0.00  0.00    +0.000 A 
ATOM      3  C   UNL     1       3.151   6.543  18.000  0.00  0.00    +0.000 A 
ATOM      4  C   UNL     1       3.128   5.149  17.792  0.00  0.00    +0.000 A 
ATOM      5  C   UNL     1       4.205   4.499  17.149  0.00  0.00    +0.000 A 
ATOM      6  C   UNL     1       5.341   5.202  16.721  0.00  0.00    +0.000 A 
ENDROOT
BRANCH   4   7
ATOM      7  N   UNL     1       1.958   4.328  18.156  0.00  0.00    +0.000 N 
ATOM      8  O   UNL     1       1.662   4.229  19.354  0.00  0.00    +0.000 OA
ATOM      9  O   UNL     1       1.326   3.783  17.238  0.00  0.00    +0.000 OA
ENDBRANCH   4   7
BRANCH   3  10
ATOM     10  N   UNL     1       2.177   7.275  18.727  0.00  0.00    +0.000 N 
ATOM     11  H   UNL     1       1.298   6.756  18.803  0.00  0.00    +0.000 HD
BRANCH  10  12
ATOM     12  C   UNL     1       1.980   8.683  18.325  0.00  0.00    +0.000 C 
BRANCH  12  13
ATOM     13  C   UNL     1       1.085   9.491  19.282  0.00  0.00    +0.000 C 
BRANCH  13  14
ATOM     14  N   UNL     1       0.508  10.689  18.617  0.00  0.00    +0.000 NA
ATOM     15  C   UNL     1       1.363  11.884  18.803  0.00  0.00    +0.000 C 
ATOM     16  C   UNL     1       1.314  12.468  20.227  0.00  0.00    +0.000 C 
ATOM     17  O   UNL     1      -0.029  12.731  20.659  0.00  0.00    +0.000 OA
ATOM     18  C   UNL     1      -0.858  11.566  20.541  0.00  0.00    +0.000 C 
ATOM     19  C   UNL     1      -0.846  11.046  19.099  0.00  0.00    +0.000 C 
ENDBRANCH  13  14
ENDBRANCH  12  13
ENDBRANCH  10  12
ENDBRANCH   3  10
BRANCH   1  20
ATOM     20  O   UNL     1       6.555   7.277  16.638  0.00  0.00    +0.000 OA
BRANCH  20  22
ATOM     21  C   UNL     1       8.080   8.749  17.809  0.00  0.00    +0.000 C 
ATOM     22  C   UNL     1       7.580   7.329  17.641  0.00  0.00    +0.000 C 
ENDBRANCH  20  22
ENDBRANCH   1  20
BRANCH   6  23
ATOM     23  O   UNL     1       6.268   4.393  16.127  0.00  0.00    +0.000 OA
BRANCH  23  24
ATOM     24  C   UNL     1       5.884   3.672  14.958  0.00  0.00    +0.000 C 
ATOM     25  C   UNL     1       6.541   4.348  13.766  0.00  0.00    +0.000 C 
ENDBRANCH  23  24
ENDBRANCH   6  23
TORSDOF 9
ENDMDL
MODEL 9
REMARK VINA RESULT:      -6.1      2.503      6.882
REMARK  Name = 
REMARK  11 active torsions:
REMARK  status: ('A' for Active; 'I' for Inactive)
REMARK    1  A    between atoms: C_1  and  C_2
REMARK    2  A    between atoms: C_2  and  O_3
REMARK    3  A    between atoms: O_3  and  C_4
REMARK    4  A    between atoms: C_6  and  N_7
REMARK    5  A    between atoms: N_7  and  C_8
REMARK    6  A    between atoms: C_8  and  C_9
REMARK    7  A    between atoms: C_9  and  N_10
REMARK    8  A    between atoms: C_16  and  N_17
REMARK    9  A    between atoms: C_21  and  O_22
REMARK   10  A    between atoms: O_22  and  C_23
REMARK   11  A    between atoms: C_23  and  C_24
REMARK                            x       y       z     vdW  Elec       q    Type
REMARK                         _______ _______ _______ _____ _____    ______ ____
ROOT
ATOM      1  C   UNL     1       2.304   4.410  18.259  0.00  0.00    +0.000 A 
ATOM      2  C   UNL     1       2.366   5.812  18.279  0.00  0.00    +0.000 A 
ATOM      3  C   UNL     1       3.380   6.580  17.673  0.00  0.00    +0.000 A 
ATOM      4  C   UNL     1       4.381   5.848  17.003  0.00  0.00    +0.000 A 
ATOM      5  C   UNL     1       4.363   4.435  17.006  0.00  0.00    +0.000 A 
ATOM      6  C   UNL     1       3.345   3.712  17.644  0.00  0.00    +0.000 A 
ENDROOT
BRANCH   4   7
ATOM      7  N   UNL     1       5.522   6.512  16.348  0.00  0.00    +0.000 N 
ATOM      8  O   UNL     1       6.277   7.204  17.044  0.00  0.00    +0.000 OA
ATOM      9  O   UNL     1       5.671   6.336  15.128  0.00  0.00    +0.000 OA
ENDBRANCH   4   7
BRANCH   3  10
ATOM     10  N   UNL     1       3.244   7.992  17.643  0.00  0.00    +0.000 N 
ATOM     11  H   UNL     1       3.915   8.447  18.268  0.00  0.00    +0.000 HD
BRANCH  10  12
ATOM     12  C   UNL     1       1.873   8.523  17.786  0.00  0.00    +0.000 C 
BRANCH  12  13
ATOM     13  C   UNL     1       1.789   9.848  18.566  0.00  0.00    +0.000 C 
BRANCH  13  14
ATOM     14  N   UNL     1       0.413  10.109  19.062  0.00  0.00    +0.000 NA
ATOM     15  C   UNL     1       0.121  11.559  19.131  0.00  0.00    +0.000 C 
ATOM     16  C   UNL     1       0.834  12.282  20.290  0.00  0.00    +0.000 C 
ATOM     17  O   UNL     1       0.589  11.652  21.555  0.00  0.00    +0.000 OA
ATOM     18  C   UNL     1       0.922  10.257  21.523  0.00  0.00    +0.000 C 
ATOM     19  C   UNL     1       0.146   9.548  20.407  0.00  0.00    +0.000 C 
ENDBRANCH  13  14
ENDBRANCH  12  13
ENDBRANCH  10  12
ENDBRANCH   3  10
BRANCH   1  20
ATOM     20  O   UNL     1       1.249   3.732  18.825  0.00  0.00    +0.000 OA
BRANCH  20  22
ATOM     21  C   UNL     1       1.403   3.089  21.155  0.00  0.00    +0.000 C 
ATOM     22  C   UNL     1       0.902   4.119  20.164  0.00  0.00    +0.000 C 
ENDBRANCH  20  22
ENDBRANCH   1  20
BRANCH   6  23
ATOM     23  O   UNL     1       3.507   2.360  17.529  0.00  0.00    +0.000 OA
BRANCH  23  24
ATOM     24  C   UNL     1       3.432   1.568  18.712  0.00  0.00    +0.000 C 
ATOM     25  C   UNL     1       4.500   2.070  19.669  0.00  0.00    +0.000 C 
ENDBRANCH  23  24
ENDBRANCH   6  23
TORSDOF 9
ENDMDL
