MODEL 1
REMARK VINA RESULT:      -9.6      0.000      0.000
REMARK  Name = 
REMARK  7 active torsions:
REMARK  status: ('A' for Active; 'I' for Inactive)
REMARK    1  A    between atoms: C_1  and  C_2
REMARK    2  A    between atoms: C_5  and  C_6
REMARK    3  A    between atoms: C_10  and  C_11
REMARK    4  A    between atoms: C_14  and  C_15
REMARK    5  A    between atoms: C_21  and  C_22
REMARK    6  A    between atoms: C_24  and  C_25
REMARK    7  A    between atoms: C_30  and  C_31
REMARK                            x       y       z     vdW  Elec       q    Type
REMARK                         _______ _______ _______ _____ _____    ______ ____
ROOT
ATOM      1  C   UNL     1       3.486   2.597  17.798  0.00  0.00    +0.000 C 
ATOM      2  C   UNL     1       3.129   3.960  18.332  0.00  0.00    +0.000 A 
ATOM      3  C   UNL     1       2.069   4.003  19.258  0.00  0.00    +0.000 A 
ATOM      4  C   UNL     1       1.653   5.205  19.823  0.00  0.00    +0.000 A 
ATOM      5  C   UNL     1       2.300   6.393  19.496  0.00  0.00    +0.000 A 
ATOM      6  C   UNL     1       3.318   6.366  18.528  0.00  0.00    +0.000 A 
ATOM      7  C   UNL     1       3.758   5.163  17.933  0.00  0.00    +0.000 A 
ENDROOT
BRANCH   5   8
ATOM      8  C   UNL     1       1.879   7.706  20.070  0.00  0.00    +0.000 C 
ATOM      9  O   UNL     1       1.824   7.840  21.285  0.00  0.00    +0.000 OA
ATOM     10  N   UNL     1       1.592   8.744  19.205  0.00  0.00    +0.000 N 
ATOM     11  C   UNL     1       1.123  10.069  19.573  0.00  0.00    +0.000 C 
ATOM     12  C   UNL     1       0.408  10.133  18.210  0.00  0.00    +0.000 C 
ATOM     13  C   UNL     1       1.033   8.780  17.864  0.00  0.00    +0.000 C 
BRANCH  12  14
ATOM     14  C   UNL     1      -1.167  10.349  18.174  0.00  0.00    +0.000 A 
ATOM     15  C   UNL     1      -1.847  11.203  19.065  0.00  0.00    +0.000 A 
ATOM     16  C   UNL     1      -3.131  11.678  18.782  0.00  0.00    +0.000 A 
ATOM     17  C   UNL     1      -3.777  11.270  17.616  0.00  0.00    +0.000 A 
ATOM     18  C   UNL     1      -3.212  10.268  16.830  0.00  0.00    +0.000 A 
ATOM     19  C   UNL     1      -1.929   9.803  17.122  0.00  0.00    +0.000 A 
BRANCH  17  20
ATOM     20  C   UNL     1      -4.954  11.953  17.166  0.00  0.00    +0.000 C 
ATOM     21  N   UNL     1      -5.861  12.570  16.779  0.00  0.00    +0.000 NA
ENDBRANCH  17  20
ENDBRANCH  12  14
ENDBRANCH   5   8
BRANCH   7  22
ATOM     22  C   UNL     1       4.818   5.223  16.903  0.00  0.00    +0.000 A 
ATOM     23  N   UNL     1       4.746   4.531  15.710  0.00  0.00    +0.000 N 
ATOM     24  C   UNL     1       5.851   4.805  14.942  0.00  0.00    +0.000 A 
ATOM     25  N   UNL     1       6.604   5.701  15.547  0.00  0.00    +0.000 NA
ATOM     26  C   UNL     1       5.982   5.968  16.745  0.00  0.00    +0.000 A 
ATOM     27  H   UNL     1       4.001   3.915  15.423  0.00  0.00    +0.000 HD
BRANCH  24  28
ATOM     28  C   UNL     1       6.045   4.135  13.624  0.00  0.00    +0.000 C 
ATOM     29  F   UNL     1       4.861   4.039  12.952  0.00  0.00    +0.000 F 
ATOM     30  F   UNL     1       6.889   4.816  12.810  0.00  0.00    +0.000 F 
ATOM     31  F   UNL     1       6.521   2.870  13.739  0.00  0.00    +0.000 F 
ENDBRANCH  24  28
BRANCH  26  32
ATOM     32  C   UNL     1       6.557   6.982  17.722  0.00  0.00    +0.000 C 
ATOM     33  C   UNL     1       7.838   6.657  18.461  0.00  0.00    +0.000 C 
ATOM     34  C   UNL     1       7.874   7.630  17.331  0.00  0.00    +0.000 C 
ENDBRANCH  26  32
ENDBRANCH   7  22
TORSDOF 6
ENDMDL
MODEL 2
REMARK VINA RESULT:      -9.2      0.814      1.201
REMARK  Name = 
REMARK  7 active torsions:
REMARK  status: ('A' for Active; 'I' for Inactive)
REMARK    1  A    between atoms: C_1  and  C_2
REMARK    2  A    between atoms: C_5  and  C_6
REMARK    3  A    between atoms: C_10  and  C_11
REMARK    4  A    between atoms: C_14  and  C_15
REMARK    5  A    between atoms: C_21  and  C_22
REMARK    6  A    between atoms: C_24  and  C_25
REMARK    7  A    between atoms: C_30  and  C_31
REMARK                            x       y       z     vdW  Elec       q    Type
REMARK                         _______ _______ _______ _____ _____    ______ ____
ROOT
ATOM      1  C   UNL     1       3.288   2.244  17.720  0.00  0.00    +0.000 C 
ATOM      2  C   UNL     1       2.965   3.606  18.275  0.00  0.00    +0.000 A 
ATOM      3  C   UNL     1       1.859   3.673  19.145  0.00  0.00    +0.000 A 
ATOM      4  C   UNL     1       1.467   4.876  19.722  0.00  0.00    +0.000 A 
ATOM      5  C   UNL     1       2.184   6.042  19.466  0.00  0.00    +0.000 A 
ATOM      6  C   UNL     1       3.251   5.995  18.554  0.00  0.00    +0.000 A 
ATOM      7  C   UNL     1       3.668   4.789  17.947  0.00  0.00    +0.000 A 
ENDROOT
BRANCH   5   8
ATOM      8  C   UNL     1       1.793   7.357  20.057  0.00  0.00    +0.000 C 
ATOM      9  O   UNL     1       1.513   7.421  21.247  0.00  0.00    +0.000 OA
ATOM     10  N   UNL     1       1.787   8.472  19.242  0.00  0.00    +0.000 N 
ATOM     11  C   UNL     1       1.391   9.817  19.624  0.00  0.00    +0.000 C 
ATOM     12  C   UNL     1       0.969  10.046  18.160  0.00  0.00    +0.000 C 
ATOM     13  C   UNL     1       1.510   8.654  17.827  0.00  0.00    +0.000 C 
BRANCH  12  14
ATOM     14  C   UNL     1      -0.538  10.443  17.844  0.00  0.00    +0.000 A 
ATOM     15  C   UNL     1      -1.429   9.596  17.154  0.00  0.00    +0.000 A 
ATOM     16  C   UNL     1      -2.812   9.779  17.227  0.00  0.00    +0.000 A 
ATOM     17  C   UNL     1      -3.331  10.843  17.963  0.00  0.00    +0.000 A 
ATOM     18  C   UNL     1      -2.469  11.809  18.477  0.00  0.00    +0.000 A 
ATOM     19  C   UNL     1      -1.089  11.615  18.398  0.00  0.00    +0.000 A 
BRANCH  17  20
ATOM     20  C   UNL     1      -4.726  10.885  18.287  0.00  0.00    +0.000 C 
ATOM     21  N   UNL     1      -5.839  10.956  18.621  0.00  0.00    +0.000 NA
ENDBRANCH  17  20
ENDBRANCH  12  14
ENDBRANCH   5   8
BRANCH   7  22
ATOM     22  C   UNL     1       4.784   4.828  16.977  0.00  0.00    +0.000 A 
ATOM     23  N   UNL     1       4.676   4.346  15.688  0.00  0.00    +0.000 N 
ATOM     24  C   UNL     1       5.854   4.547  15.012  0.00  0.00    +0.000 A 
ATOM     25  N   UNL     1       6.702   5.204  15.778  0.00  0.00    +0.000 NA
ATOM     26  C   UNL     1       6.058   5.386  16.980  0.00  0.00    +0.000 A 
ATOM     27  H   UNL     1       3.862   3.912  15.280  0.00  0.00    +0.000 HD
BRANCH  24  28
ATOM     28  C   UNL     1       6.019   4.061  13.612  0.00  0.00    +0.000 C 
ATOM     29  F   UNL     1       4.849   4.175  12.919  0.00  0.00    +0.000 F 
ATOM     30  F   UNL     1       6.942   4.771  12.916  0.00  0.00    +0.000 F 
ATOM     31  F   UNL     1       6.375   2.754  13.544  0.00  0.00    +0.000 F 
ENDBRANCH  24  28
BRANCH  26  32
ATOM     32  C   UNL     1       6.727   6.131  18.125  0.00  0.00    +0.000 C 
ATOM     33  C   UNL     1       6.735   5.513  19.508  0.00  0.00    +0.000 C 
ATOM     34  C   UNL     1       7.987   5.506  18.698  0.00  0.00    +0.000 C 
ENDBRANCH  26  32
ENDBRANCH   7  22
TORSDOF 6
ENDMDL
MODEL 3
REMARK VINA RESULT:      -8.8      2.413      4.070
REMARK  Name = 
REMARK  7 active torsions:
REMARK  status: ('A' for Active; 'I' for Inactive)
REMARK    1  A    between atoms: C_1  and  C_2
REMARK    2  A    between atoms: C_5  and  C_6
REMARK    3  A    between atoms: C_10  and  C_11
REMARK    4  A    between atoms: C_14  and  C_15
REMARK    5  A    between atoms: C_21  and  C_22
REMARK    6  A    between atoms: C_24  and  C_25
REMARK    7  A    between atoms: C_30  and  C_31
REMARK                            x       y       z     vdW  Elec       q    Type
REMARK                         _______ _______ _______ _____ _____    ______ ____
ROOT
ATOM      1  C   UNL     1       2.309   5.294  21.039  0.00  0.00    +0.000 C 
ATOM      2  C   UNL     1       1.955   6.637  20.457  0.00  0.00    +0.000 A 
ATOM      3  C   UNL     1       1.095   7.440  21.231  0.00  0.00    +0.000 A 
ATOM      4  C   UNL     1       0.702   8.703  20.798  0.00  0.00    +0.000 A 
ATOM      5  C   UNL     1       1.177   9.208  19.590  0.00  0.00    +0.000 A 
ATOM      6  C   UNL     1       1.986   8.389  18.785  0.00  0.00    +0.000 A 
ATOM      7  C   UNL     1       2.396   7.101  19.195  0.00  0.00    +0.000 A 
ENDROOT
BRANCH   5   8
ATOM      8  C   UNL     1       0.773  10.553  19.083  0.00  0.00    +0.000 C 
ATOM      9  O   UNL     1       1.494  11.517  19.301  0.00  0.00    +0.000 OA
ATOM     10  N   UNL     1      -0.396  10.661  18.354  0.00  0.00    +0.000 N 
ATOM     11  C   UNL     1      -0.972  11.885  17.825  0.00  0.00    +0.000 C 
ATOM     12  C   UNL     1      -2.357  11.222  17.955  0.00  0.00    +0.000 C 
ATOM     13  C   UNL     1      -1.656   9.938  18.405  0.00  0.00    +0.000 C 
BRANCH  12  14
ATOM     14  C   UNL     1      -3.463  11.919  18.860  0.00  0.00    +0.000 A 
ATOM     15  C   UNL     1      -4.847  11.779  18.629  0.00  0.00    +0.000 A 
ATOM     16  C   UNL     1      -5.784  12.057  19.628  0.00  0.00    +0.000 A 
ATOM     17  C   UNL     1      -5.353  12.522  20.869  0.00  0.00    +0.000 A 
ATOM     18  C   UNL     1      -4.015  12.865  21.050  0.00  0.00    +0.000 A 
ATOM     19  C   UNL     1      -3.089  12.582  20.046  0.00  0.00    +0.000 A 
BRANCH  17  20
ATOM     20  C   UNL     1      -6.253  12.540  21.985  0.00  0.00    +0.000 C 
ATOM     21  N   UNL     1      -6.932  12.501  22.929  0.00  0.00    +0.000 NA
ENDBRANCH  17  20
ENDBRANCH  12  14
ENDBRANCH   5   8
BRANCH   7  22
ATOM     22  C   UNL     1       3.227   6.292  18.277  0.00  0.00    +0.000 A 
ATOM     23  N   UNL     1       4.527   6.625  17.950  0.00  0.00    +0.000 N 
ATOM     24  C   UNL     1       5.057   5.675  17.112  0.00  0.00    +0.000 A 
ATOM     25  N   UNL     1       4.188   4.700  16.935  0.00  0.00    +0.000 NA
ATOM     26  C   UNL     1       3.067   5.063  17.645  0.00  0.00    +0.000 A 
ATOM     27  H   UNL     1       5.033   7.435  18.272  0.00  0.00    +0.000 HD
BRANCH  24  28
ATOM     28  C   UNL     1       6.435   5.832  16.562  0.00  0.00    +0.000 C 
ATOM     29  F   UNL     1       7.257   4.849  17.033  0.00  0.00    +0.000 F 
ATOM     30  F   UNL     1       6.472   5.742  15.209  0.00  0.00    +0.000 F 
ATOM     31  F   UNL     1       7.012   7.009  16.909  0.00  0.00    +0.000 F 
ENDBRANCH  24  28
BRANCH  26  32
ATOM     32  C   UNL     1       1.841   4.164  17.694  0.00  0.00    +0.000 C 
ATOM     33  C   UNL     1       2.015   2.664  17.576  0.00  0.00    +0.000 C 
ATOM     34  C   UNL     1       1.709   3.261  18.908  0.00  0.00    +0.000 C 
ENDBRANCH  26  32
ENDBRANCH   7  22
TORSDOF 6
ENDMDL
MODEL 4
REMARK VINA RESULT:      -8.7      2.929      4.036
REMARK  Name = 
REMARK  7 active torsions:
REMARK  status: ('A' for Active; 'I' for Inactive)
REMARK    1  A    between atoms: C_1  and  C_2
REMARK    2  A    between atoms: C_5  and  C_6
REMARK    3  A    between atoms: C_10  and  C_11
REMARK    4  A    between atoms: C_14  and  C_15
REMARK    5  A    between atoms: C_21  and  C_22
REMARK    6  A    between atoms: C_24  and  C_25
REMARK    7  A    between atoms: C_30  and  C_31
REMARK                            x       y       z     vdW  Elec       q    Type
REMARK                         _______ _______ _______ _____ _____    ______ ____
ROOT
ATOM      1  C   UNL     1       4.027   7.300  16.558  0.00  0.00    +0.000 C 
ATOM      2  C   UNL     1       3.174   7.563  17.772  0.00  0.00    +0.000 A 
ATOM      3  C   UNL     1       2.488   8.792  17.793  0.00  0.00    +0.000 A 
ATOM      4  C   UNL     1       1.668   9.143  18.860  0.00  0.00    +0.000 A 
ATOM      5  C   UNL     1       1.491   8.264  19.925  0.00  0.00    +0.000 A 
ATOM      6  C   UNL     1       2.218   7.062  19.940  0.00  0.00    +0.000 A 
ATOM      7  C   UNL     1       3.064   6.682  18.874  0.00  0.00    +0.000 A 
ENDROOT
BRANCH   5   8
ATOM      8  C   UNL     1       0.627   8.604  21.095  0.00  0.00    +0.000 C 
ATOM      9  O   UNL     1       0.033   7.710  21.683  0.00  0.00    +0.000 OA
ATOM     10  N   UNL     1       0.549   9.923  21.497  0.00  0.00    +0.000 N 
ATOM     11  C   UNL     1      -0.271  10.449  22.575  0.00  0.00    +0.000 C 
ATOM     12  C   UNL     1      -0.331  11.781  21.803  0.00  0.00    +0.000 C 
ATOM     13  C   UNL     1       0.623  11.179  20.769  0.00  0.00    +0.000 C 
BRANCH  12  14
ATOM     14  C   UNL     1      -1.749  12.363  21.378  0.00  0.00    +0.000 A 
ATOM     15  C   UNL     1      -2.245  12.296  20.060  0.00  0.00    +0.000 A 
ATOM     16  C   UNL     1      -3.607  12.446  19.786  0.00  0.00    +0.000 A 
ATOM     17  C   UNL     1      -4.496  12.709  20.827  0.00  0.00    +0.000 A 
ATOM     18  C   UNL     1      -4.004  12.986  22.100  0.00  0.00    +0.000 A 
ATOM     19  C   UNL     1      -2.642  12.832  22.362  0.00  0.00    +0.000 A 
BRANCH  17  20
ATOM     20  C   UNL     1      -5.909  12.583  20.619  0.00  0.00    +0.000 C 
ATOM     21  N   UNL     1      -7.039  12.446  20.377  0.00  0.00    +0.000 NA
ENDBRANCH  17  20
ENDBRANCH  12  14
ENDBRANCH   5   8
BRANCH   7  22
ATOM     22  C   UNL     1       3.815   5.412  18.978  0.00  0.00    +0.000 A 
ATOM     23  N   UNL     1       3.215   4.173  18.864  0.00  0.00    +0.000 N 
ATOM     24  C   UNL     1       4.161   3.183  18.967  0.00  0.00    +0.000 A 
ATOM     25  N   UNL     1       5.361   3.721  19.069  0.00  0.00    +0.000 NA
ATOM     26  C   UNL     1       5.163   5.082  19.073  0.00  0.00    +0.000 A 
ATOM     27  H   UNL     1       2.233   3.998  18.721  0.00  0.00    +0.000 HD
BRANCH  24  28
ATOM     28  C   UNL     1       3.764   1.747  18.935  0.00  0.00    +0.000 C 
ATOM     29  F   UNL     1       3.780   1.269  17.656  0.00  0.00    +0.000 F 
ATOM     30  F   UNL     1       4.605   0.955  19.646  0.00  0.00    +0.000 F 
ATOM     31  F   UNL     1       2.509   1.534  19.404  0.00  0.00    +0.000 F 
ENDBRANCH  24  28
BRANCH  26  32
ATOM     32  C   UNL     1       6.335   6.047  19.162  0.00  0.00    +0.000 C 
ATOM     33  C   UNL     1       7.747   5.512  19.058  0.00  0.00    +0.000 C 
ATOM     34  C   UNL     1       7.155   6.238  17.898  0.00  0.00    +0.000 C 
ENDBRANCH  26  32
ENDBRANCH   7  22
TORSDOF 6
ENDMDL
MODEL 5
REMARK VINA RESULT:      -8.6      3.056      4.522
REMARK  Name = 
REMARK  7 active torsions:
REMARK  status: ('A' for Active; 'I' for Inactive)
REMARK    1  A    between atoms: C_1  and  C_2
REMARK    2  A    between atoms: C_5  and  C_6
REMARK    3  A    between atoms: C_10  and  C_11
REMARK    4  A    between atoms: C_14  and  C_15
REMARK    5  A    between atoms: C_21  and  C_22
REMARK    6  A    between atoms: C_24  and  C_25
REMARK    7  A    between atoms: C_30  and  C_31
REMARK                            x       y       z     vdW  Elec       q    Type
REMARK                         _______ _______ _______ _____ _____    ______ ____
ROOT
ATOM      1  C   UNL     1       2.647   4.793  20.920  0.00  0.00    +0.000 C 
ATOM      2  C   UNL     1       2.355   6.112  20.253  0.00  0.00    +0.000 A 
ATOM      3  C   UNL     1       1.448   6.957  20.921  0.00  0.00    +0.000 A 
ATOM      4  C   UNL     1       1.105   8.202  20.403  0.00  0.00    +0.000 A 
ATOM      5  C   UNL     1       1.678   8.647  19.215  0.00  0.00    +0.000 A 
ATOM      6  C   UNL     1       2.537   7.786  18.512  0.00  0.00    +0.000 A 
ATOM      7  C   UNL     1       2.899   6.515  19.009  0.00  0.00    +0.000 A 
ENDROOT
BRANCH   5   8
ATOM      8  C   UNL     1       1.331   9.972  18.618  0.00  0.00    +0.000 C 
ATOM      9  O   UNL     1       2.205  10.631  18.071  0.00  0.00    +0.000 OA
ATOM     10  N   UNL     1       0.019  10.400  18.679  0.00  0.00    +0.000 N 
ATOM     11  C   UNL     1      -0.495  11.672  18.200  0.00  0.00    +0.000 C 
ATOM     12  C   UNL     1      -1.584  11.575  19.287  0.00  0.00    +0.000 C 
ATOM     13  C   UNL     1      -1.039  10.193  19.654  0.00  0.00    +0.000 C 
BRANCH  12  14
ATOM     14  C   UNL     1      -1.695  12.733  20.372  0.00  0.00    +0.000 A 
ATOM     15  C   UNL     1      -2.745  12.810  21.310  0.00  0.00    +0.000 A 
ATOM     16  C   UNL     1      -2.627  13.575  22.473  0.00  0.00    +0.000 A 
ATOM     17  C   UNL     1      -1.467  14.314  22.700  0.00  0.00    +0.000 A 
ATOM     18  C   UNL     1      -0.510  14.419  21.693  0.00  0.00    +0.000 A 
ATOM     19  C   UNL     1      -0.638  13.649  20.537  0.00  0.00    +0.000 A 
BRANCH  17  20
ATOM     20  C   UNL     1      -1.205  14.868  23.995  0.00  0.00    +0.000 C 
ATOM     21  N   UNL     1      -0.930  15.358  25.014  0.00  0.00    +0.000 NA
ENDBRANCH  17  20
ENDBRANCH  12  14
ENDBRANCH   5   8
BRANCH   7  22
ATOM     22  C   UNL     1       3.788   5.657  18.196  0.00  0.00    +0.000 A 
ATOM     23  N   UNL     1       5.144   5.888  18.070  0.00  0.00    +0.000 N 
ATOM     24  C   UNL     1       5.715   4.915  17.287  0.00  0.00    +0.000 A 
ATOM     25  N   UNL     1       4.807   4.019  16.957  0.00  0.00    +0.000 NA
ATOM     26  C   UNL     1       3.626   4.459  17.510  0.00  0.00    +0.000 A 
ATOM     27  H   UNL     1       5.660   6.648  18.486  0.00  0.00    +0.000 HD
BRANCH  24  28
ATOM     28  C   UNL     1       7.165   4.968  16.947  0.00  0.00    +0.000 C 
ATOM     29  F   UNL     1       7.387   4.464  15.698  0.00  0.00    +0.000 F 
ATOM     30  F   UNL     1       7.656   6.232  16.938  0.00  0.00    +0.000 F 
ATOM     31  F   UNL     1       7.935   4.238  17.793  0.00  0.00    +0.000 F 
ENDBRANCH  24  28
BRANCH  26  32
ATOM     32  C   UNL     1       2.339   3.663  17.354  0.00  0.00    +0.000 C 
ATOM     33  C   UNL     1       2.385   2.152  17.444  0.00  0.00    +0.000 C 
ATOM     34  C   UNL     1       1.837   2.935  18.589  0.00  0.00    +0.000 C 
ENDBRANCH  26  32
ENDBRANCH   7  22
TORSDOF 6
ENDMDL
MODEL 6
REMARK VINA RESULT:      -8.6      0.854      1.111
REMARK  Name = 
REMARK  7 active torsions:
REMARK  status: ('A' for Active; 'I' for Inactive)
REMARK    1  A    between atoms: C_1  and  C_2
REMARK    2  A    between atoms: C_5  and  C_6
REMARK    3  A    between atoms: C_10  and  C_11
REMARK    4  A    between atoms: C_14  and  C_15
REMARK    5  A    between atoms: C_21  and  C_22
REMARK    6  A    between atoms: C_24  and  C_25
REMARK    7  A    between atoms: C_30  and  C_31
REMARK                            x       y       z     vdW  Elec       q    Type
REMARK                         _______ _______ _______ _____ _____    ______ ____
ROOT
ATOM      1  C   UNL     1       2.915   2.110  17.180  0.00  0.00    +0.000 C 
ATOM      2  C   UNL     1       2.777   3.493  17.761  0.00  0.00    +0.000 A 
ATOM      3  C   UNL     1       1.612   3.735  18.514  0.00  0.00    +0.000 A 
ATOM      4  C   UNL     1       1.377   4.974  19.103  0.00  0.00    +0.000 A 
ATOM      5  C   UNL     1       2.312   5.998  18.975  0.00  0.00    +0.000 A 
ATOM      6  C   UNL     1       3.447   5.784  18.176  0.00  0.00    +0.000 A 
ATOM      7  C   UNL     1       3.709   4.539  17.560  0.00  0.00    +0.000 A 
ENDROOT
BRANCH   5   8
ATOM      8  C   UNL     1       2.096   7.345  19.582  0.00  0.00    +0.000 C 
ATOM      9  O   UNL     1       2.234   7.488  20.790  0.00  0.00    +0.000 OA
ATOM     10  N   UNL     1       1.774   8.400  18.751  0.00  0.00    +0.000 N 
ATOM     11  C   UNL     1       1.481   9.763  19.161  0.00  0.00    +0.000 C 
ATOM     12  C   UNL     1       0.580   9.883  17.917  0.00  0.00    +0.000 C 
ATOM     13  C   UNL     1       1.027   8.479  17.506  0.00  0.00    +0.000 C 
BRANCH  12  14
ATOM     14  C   UNL     1      -0.959  10.236  18.110  0.00  0.00    +0.000 A 
ATOM     15  C   UNL     1      -1.414  11.240  18.988  0.00  0.00    +0.000 A 
ATOM     16  C   UNL     1      -2.690  11.796  18.861  0.00  0.00    +0.000 A 
ATOM     17  C   UNL     1      -3.553  11.325  17.872  0.00  0.00    +0.000 A 
ATOM     18  C   UNL     1      -3.203  10.197  17.133  0.00  0.00    +0.000 A 
ATOM     19  C   UNL     1      -1.927   9.652  17.269  0.00  0.00    +0.000 A 
BRANCH  17  20
ATOM     20  C   UNL     1      -4.737  12.060  17.538  0.00  0.00    +0.000 C 
ATOM     21  N   UNL     1      -5.741  12.605  17.315  0.00  0.00    +0.000 NA
ENDBRANCH  17  20
ENDBRANCH  12  14
ENDBRANCH   5   8
BRANCH   7  22
ATOM     22  C   UNL     1       4.914   4.403  16.713  0.00  0.00    +0.000 A 
ATOM     23  N   UNL     1       4.857   4.298  15.337  0.00  0.00    +0.000 N 
ATOM     24  C   UNL     1       6.126   4.220  14.820  0.00  0.00    +0.000 A 
ATOM     25  N   UNL     1       7.011   4.341  15.789  0.00  0.00    +0.000 NA
ATOM     26  C   UNL     1       6.283   4.458  16.950  0.00  0.00    +0.000 A 
ATOM     27  H   UNL     1       4.020   4.285  14.775  0.00  0.00    +0.000 HD
BRANCH  24  28
ATOM     28  C   UNL     1       6.340   4.040  13.355  0.00  0.00    +0.000 C 
ATOM     29  F   UNL     1       6.449   2.717  13.041  0.00  0.00    +0.000 F 
ATOM     30  F   UNL     1       5.311   4.522  12.614  0.00  0.00    +0.000 F 
ATOM     31  F   UNL     1       7.476   4.632  12.910  0.00  0.00    +0.000 F 
ENDBRANCH  24  28
BRANCH  26  32
ATOM     32  C   UNL     1       6.970   4.636  18.296  0.00  0.00    +0.000 C 
ATOM     33  C   UNL     1       7.845   5.850  18.528  0.00  0.00    +0.000 C 
ATOM     34  C   UNL     1       6.493   5.795  19.154  0.00  0.00    +0.000 C 
ENDBRANCH  26  32
ENDBRANCH   7  22
TORSDOF 6
ENDMDL
MODEL 7
REMARK VINA RESULT:      -8.6      2.249      3.907
REMARK  Name = 
REMARK  7 active torsions:
REMARK  status: ('A' for Active; 'I' for Inactive)
REMARK    1  A    between atoms: C_1  and  C_2
REMARK    2  A    between atoms: C_5  and  C_6
REMARK    3  A    between atoms: C_10  and  C_11
REMARK    4  A    between atoms: C_14  and  C_15
REMARK    5  A    between atoms: C_21  and  C_22
REMARK    6  A    between atoms: C_24  and  C_25
REMARK    7  A    between atoms: C_30  and  C_31
REMARK                            x       y       z     vdW  Elec       q    Type
REMARK                         _______ _______ _______ _____ _____    ______ ____
ROOT
ATOM      1  C   UNL     1       2.214   5.494  21.153  0.00  0.00    +0.000 C 
ATOM      2  C   UNL     1       1.802   6.813  20.552  0.00  0.00    +0.000 A 
ATOM      3  C   UNL     1       0.857   7.558  21.283  0.00  0.00    +0.000 A 
ATOM      4  C   UNL     1       0.404   8.793  20.830  0.00  0.00    +0.000 A 
ATOM      5  C   UNL     1       0.901   9.328  19.644  0.00  0.00    +0.000 A 
ATOM      6  C   UNL     1       1.798   8.564  18.879  0.00  0.00    +0.000 A 
ATOM      7  C   UNL     1       2.271   7.305  19.311  0.00  0.00    +0.000 A 
ENDROOT
BRANCH   5   8
ATOM      8  C   UNL     1       0.436  10.645  19.115  0.00  0.00    +0.000 C 
ATOM      9  O   UNL     1       0.959  11.674  19.522  0.00  0.00    +0.000 OA
ATOM     10  N   UNL     1      -0.558  10.658  18.156  0.00  0.00    +0.000 N 
ATOM     11  C   UNL     1      -1.169  11.834  17.563  0.00  0.00    +0.000 C 
ATOM     12  C   UNL     1      -2.449  11.000  17.364  0.00  0.00    +0.000 C 
ATOM     13  C   UNL     1      -1.692   9.784  17.903  0.00  0.00    +0.000 C 
BRANCH  12  14
ATOM     14  C   UNL     1      -3.804  11.492  18.035  0.00  0.00    +0.000 A 
ATOM     15  C   UNL     1      -3.861  12.072  19.319  0.00  0.00    +0.000 A 
ATOM     16  C   UNL     1      -4.957  12.838  19.724  0.00  0.00    +0.000 A 
ATOM     17  C   UNL     1      -6.040  13.005  18.863  0.00  0.00    +0.000 A 
ATOM     18  C   UNL     1      -6.096  12.274  17.679  0.00  0.00    +0.000 A 
ATOM     19  C   UNL     1      -4.996  11.513  17.284  0.00  0.00    +0.000 A 
BRANCH  17  20
ATOM     20  C   UNL     1      -7.031  14.004  19.134  0.00  0.00    +0.000 C 
ATOM     21  N   UNL     1      -7.775  14.871  19.356  0.00  0.00    +0.000 NA
ENDBRANCH  17  20
ENDBRANCH  12  14
ENDBRANCH   5   8
BRANCH   7  22
ATOM     22  C   UNL     1       3.195   6.552  18.435  0.00  0.00    +0.000 A 
ATOM     23  N   UNL     1       4.504   6.935  18.217  0.00  0.00    +0.000 N 
ATOM     24  C   UNL     1       5.126   6.030  17.394  0.00  0.00    +0.000 A 
ATOM     25  N   UNL     1       4.305   5.035  17.122  0.00  0.00    +0.000 NA
ATOM     26  C   UNL     1       3.123   5.340  17.756  0.00  0.00    +0.000 A 
ATOM     27  H   UNL     1       4.958   7.750  18.600  0.00  0.00    +0.000 HD
BRANCH  24  28
ATOM     28  C   UNL     1       6.535   6.246  16.955  0.00  0.00    +0.000 C 
ATOM     29  F   UNL     1       6.692   5.897  15.645  0.00  0.00    +0.000 F 
ATOM     30  F   UNL     1       6.920   7.543  17.051  0.00  0.00    +0.000 F 
ATOM     31  F   UNL     1       7.427   5.502  17.656  0.00  0.00    +0.000 F 
ENDBRANCH  24  28
BRANCH  26  32
ATOM     32  C   UNL     1       1.927   4.402  17.685  0.00  0.00    +0.000 C 
ATOM     33  C   UNL     1       2.156   2.924  17.450  0.00  0.00    +0.000 C 
ATOM     34  C   UNL     1       1.784   3.397  18.815  0.00  0.00    +0.000 C 
ENDBRANCH  26  32
ENDBRANCH   7  22
TORSDOF 6
ENDMDL
MODEL 8
REMARK VINA RESULT:      -8.6      3.744      5.558
REMARK  Name = 
REMARK  7 active torsions:
REMARK  status: ('A' for Active; 'I' for Inactive)
REMARK    1  A    between atoms: C_1  and  C_2
REMARK    2  A    between atoms: C_5  and  C_6
REMARK    3  A    between atoms: C_10  and  C_11
REMARK    4  A    between atoms: C_14  and  C_15
REMARK    5  A    between atoms: C_21  and  C_22
REMARK    6  A    between atoms: C_24  and  C_25
REMARK    7  A    between atoms: C_30  and  C_31
REMARK                            x       y       z     vdW  Elec       q    Type
REMARK                         _______ _______ _______ _____ _____    ______ ____
ROOT
ATOM      1  C   UNL     1       2.531   4.908  21.059  0.00  0.00    +0.000 C 
ATOM      2  C   UNL     1       2.277   6.208  20.341  0.00  0.00    +0.000 A 
ATOM      3  C   UNL     1       1.373   7.091  20.961  0.00  0.00    +0.000 A 
ATOM      4  C   UNL     1       1.063   8.323  20.393  0.00  0.00    +0.000 A 
ATOM      5  C   UNL     1       1.667   8.716  19.202  0.00  0.00    +0.000 A 
ATOM      6  C   UNL     1       2.524   7.817  18.547  0.00  0.00    +0.000 A 
ATOM      7  C   UNL     1       2.852   6.557  19.095  0.00  0.00    +0.000 A 
ENDROOT
BRANCH   5   8
ATOM      8  C   UNL     1       1.356  10.025  18.553  0.00  0.00    +0.000 C 
ATOM      9  O   UNL     1       1.611  10.182  17.366  0.00  0.00    +0.000 OA
ATOM     10  N   UNL     1       0.760  11.014  19.312  0.00  0.00    +0.000 N 
ATOM     11  C   UNL     1       0.430  12.358  18.871  0.00  0.00    +0.000 C 
ATOM     12  C   UNL     1       0.617  12.821  20.328  0.00  0.00    +0.000 C 
ATOM     13  C   UNL     1       0.849  11.360  20.720  0.00  0.00    +0.000 C 
BRANCH  12  14
ATOM     14  C   UNL     1       1.698  13.943  20.648  0.00  0.00    +0.000 A 
ATOM     15  C   UNL     1       3.085  13.693  20.668  0.00  0.00    +0.000 A 
ATOM     16  C   UNL     1       4.014  14.731  20.561  0.00  0.00    +0.000 A 
ATOM     17  C   UNL     1       3.570  16.050  20.474  0.00  0.00    +0.000 A 
ATOM     18  C   UNL     1       2.219  16.335  20.662  0.00  0.00    +0.000 A 
ATOM     19  C   UNL     1       1.301  15.290  20.767  0.00  0.00    +0.000 A 
BRANCH  17  20
ATOM     20  C   UNL     1       4.472  17.091  20.080  0.00  0.00    +0.000 C 
ATOM     21  N   UNL     1       5.266  17.881  19.765  0.00  0.00    +0.000 NA
ENDBRANCH  17  20
ENDBRANCH  12  14
ENDBRANCH   5   8
BRANCH   7  22
ATOM     22  C   UNL     1       3.742   5.656  18.331  0.00  0.00    +0.000 A 
ATOM     23  N   UNL     1       5.098   5.882  18.190  0.00  0.00    +0.000 N 
ATOM     24  C   UNL     1       5.669   4.867  17.463  0.00  0.00    +0.000 A 
ATOM     25  N   UNL     1       4.761   3.952  17.185  0.00  0.00    +0.000 NA
ATOM     26  C   UNL     1       3.581   4.421  17.714  0.00  0.00    +0.000 A 
ATOM     27  H   UNL     1       5.613   6.665  18.562  0.00  0.00    +0.000 HD
BRANCH  24  28
ATOM     28  C   UNL     1       7.119   4.902  17.118  0.00  0.00    +0.000 C 
ATOM     29  F   UNL     1       7.860   4.281  18.082  0.00  0.00    +0.000 F 
ATOM     30  F   UNL     1       7.396   4.262  15.955  0.00  0.00    +0.000 F 
ATOM     31  F   UNL     1       7.608   6.163  17.016  0.00  0.00    +0.000 F 
ENDBRANCH  24  28
BRANCH  26  32
ATOM     32  C   UNL     1       2.295   3.615  17.604  0.00  0.00    +0.000 C 
ATOM     33  C   UNL     1       2.370   2.106  17.508  0.00  0.00    +0.000 C 
ATOM     34  C   UNL     1       1.942   2.736  18.791  0.00  0.00    +0.000 C 
ENDBRANCH  26  32
ENDBRANCH   7  22
TORSDOF 6
ENDMDL
MODEL 9
REMARK VINA RESULT:      -8.5      2.748      3.502
REMARK  Name = 
REMARK  7 active torsions:
REMARK  status: ('A' for Active; 'I' for Inactive)
REMARK    1  A    between atoms: C_1  and  C_2
REMARK    2  A    between atoms: C_5  and  C_6
REMARK    3  A    between atoms: C_10  and  C_11
REMARK    4  A    between atoms: C_14  and  C_15
REMARK    5  A    between atoms: C_21  and  C_22
REMARK    6  A    between atoms: C_24  and  C_25
REMARK    7  A    between atoms: C_30  and  C_31
REMARK                            x       y       z     vdW  Elec       q    Type
REMARK                         _______ _______ _______ _____ _____    ______ ____
ROOT
ATOM      1  C   UNL     1       4.171   3.975  19.154  0.00  0.00    +0.000 C 
ATOM      2  C   UNL     1       3.670   5.352  18.806  0.00  0.00    +0.000 A 
ATOM      3  C   UNL     1       2.591   5.831  19.573  0.00  0.00    +0.000 A 
ATOM      4  C   UNL     1       2.046   7.091  19.345  0.00  0.00    +0.000 A 
ATOM      5  C   UNL     1       2.581   7.917  18.360  0.00  0.00    +0.000 A 
ATOM      6  C   UNL     1       3.617   7.423  17.550  0.00  0.00    +0.000 A 
ATOM      7  C   UNL     1       4.186   6.146  17.753  0.00  0.00    +0.000 A 
ENDROOT
BRANCH   5   8
ATOM      8  C   UNL     1       2.021   9.272  18.075  0.00  0.00    +0.000 C 
ATOM      9  O   UNL     1       2.660  10.052  17.382  0.00  0.00    +0.000 OA
ATOM     10  N   UNL     1       0.777   9.593  18.583  0.00  0.00    +0.000 N 
ATOM     11  C   UNL     1       0.096  10.870  18.453  0.00  0.00    +0.000 C 
ATOM     12  C   UNL     1      -0.601  10.569  19.794  0.00  0.00    +0.000 C 
ATOM     13  C   UNL     1       0.078   9.198  19.794  0.00  0.00    +0.000 C 
BRANCH  12  14
ATOM     14  C   UNL     1      -0.415  11.583  21.005  0.00  0.00    +0.000 A 
ATOM     15  C   UNL     1       0.299  12.793  20.893  0.00  0.00    +0.000 A 
ATOM     16  C   UNL     1       0.126  13.829  21.815  0.00  0.00    +0.000 A 
ATOM     17  C   UNL     1      -0.737  13.655  22.896  0.00  0.00    +0.000 A 
ATOM     18  C   UNL     1      -1.289  12.400  23.141  0.00  0.00    +0.000 A 
ATOM     19  C   UNL     1      -1.110  11.374  22.213  0.00  0.00    +0.000 A 
BRANCH  17  20
ATOM     20  C   UNL     1      -1.146  14.782  23.681  0.00  0.00    +0.000 C 
ATOM     21  N   UNL     1      -1.507  15.644  24.375  0.00  0.00    +0.000 NA
ENDBRANCH  17  20
ENDBRANCH  12  14
ENDBRANCH   5   8
BRANCH   7  22
ATOM     22  C   UNL     1       5.257   5.689  16.842  0.00  0.00    +0.000 A 
ATOM     23  N   UNL     1       5.005   5.171  15.587  0.00  0.00    +0.000 N 
ATOM     24  C   UNL     1       6.188   4.867  14.959  0.00  0.00    +0.000 A 
ATOM     25  N   UNL     1       7.203   5.231  15.717  0.00  0.00    +0.000 NA
ATOM     26  C   UNL     1       6.647   5.739  16.869  0.00  0.00    +0.000 A 
ATOM     27  H   UNL     1       4.097   5.033  15.170  0.00  0.00    +0.000 HD
BRANCH  24  28
ATOM     28  C   UNL     1       6.190   4.236  13.608  0.00  0.00    +0.000 C 
ATOM     29  F   UNL     1       6.485   2.906  13.696  0.00  0.00    +0.000 F 
ATOM     30  F   UNL     1       4.986   4.318  12.990  0.00  0.00    +0.000 F 
ATOM     31  F   UNL     1       7.114   4.775  12.773  0.00  0.00    +0.000 F 
ENDBRANCH  24  28
BRANCH  26  32
ATOM     32  C   UNL     1       7.519   6.282  17.990  0.00  0.00    +0.000 C 
ATOM     33  C   UNL     1       7.135   6.009  19.429  0.00  0.00    +0.000 C 
ATOM     34  C   UNL     1       8.272   5.259  18.822  0.00  0.00    +0.000 C 
ENDBRANCH  26  32
ENDBRANCH   7  22
TORSDOF 6
ENDMDL
