MODEL 1
REMARK VINA RESULT:      -7.9      0.000      0.000
REMARK  Name = 
REMARK  7 active torsions:
REMARK  status: ('A' for Active; 'I' for Inactive)
REMARK    1  A    between atoms: N_1  and  C_2
REMARK    2  A    between atoms: C_2  and  C_3
REMARK    3  A    between atoms: C_8  and  C_9
REMARK    4  A    between atoms: C_9  and  N_10
REMARK    5  A    between atoms: N_10  and  C_11
REMARK    6  A    between atoms: N_10  and  C_21
REMARK    7  A    between atoms: C_11  and  C_12
REMARK                            x       y       z     vdW  Elec       q    Type
REMARK                         _______ _______ _______ _____ _____    ______ ____
ROOT
ATOM      1  N   UNL     1       3.650   6.133  18.433  0.00  0.00    +0.000 NA
ENDROOT
BRANCH   1   2
ATOM      2  C   UNL     1       3.446   4.651  18.448  0.00  0.00    +0.000 C 
ATOM      3  C   UNL     1       2.851   4.189  17.088  0.00  0.00    +0.000 C 
ATOM      4  C   UNL     1       2.689   2.675  17.046  0.00  0.00    +0.000 C 
ATOM      5  C   UNL     1       1.672   2.229  18.090  0.00  0.00    +0.000 C 
ATOM      6  C   UNL     1       1.881   2.870  19.434  0.00  0.00    +0.000 A 
ATOM      7  C   UNL     1       1.223   2.314  20.544  0.00  0.00    +0.000 A 
ATOM      8  C   UNL     1       1.371   2.887  21.796  0.00  0.00    +0.000 A 
ATOM      9  C   UNL     1       2.192   3.994  21.901  0.00  0.00    +0.000 A 
ATOM     10  N   UNL     1       2.855   4.546  20.859  0.00  0.00    +0.000 NA
ATOM     11  C   UNL     1       2.665   4.020  19.621  0.00  0.00    +0.000 A 
ENDBRANCH   1   2
BRANCH   1  12
ATOM     12  C   UNL     1       4.700   6.544  17.464  0.00  0.00    +0.000 C 
BRANCH  12  18
ATOM     13  C   UNL     1       6.614   5.079  16.553  0.00  0.00    +0.000 A 
ATOM     14  N   UNL     1       7.809   4.434  16.727  0.00  0.00    +0.000 NA
ATOM     15  C   UNL     1       8.376   4.546  17.950  0.00  0.00    +0.000 A 
ATOM     16  C   UNL     1       7.809   5.287  18.965  0.00  0.00    +0.000 A 
ATOM     17  N   UNL     1       6.641   5.942  18.810  0.00  0.00    +0.000 NA
ATOM     18  C   UNL     1       6.033   5.823  17.593  0.00  0.00    +0.000 A 
BRANCH  13  19
ATOM     19  C   UNL     1       5.945   4.931  15.196  0.00  0.00    +0.000 C 
BRANCH  19  20
ATOM     20  N   UNL     1       6.203   3.633  14.543  0.00  0.00    +0.000 NA
ATOM     21  H   UNL     1       6.444   3.796  13.568  0.00  0.00    +0.000 HD
ATOM     22  H   UNL     1       7.078   3.287  14.958  0.00  0.00    +0.000 HD
ENDBRANCH  19  20
ENDBRANCH  13  19
ENDBRANCH  12  18
ENDBRANCH   1  12
BRANCH   1  23
ATOM     23  C   UNL     1       2.441   6.957  18.175  0.00  0.00    +0.000 C 
BRANCH  23  24
ATOM     24  C   UNL     1       2.045   8.030  19.152  0.00  0.00    +0.000 A 
ATOM     25  N   UNL     1       1.466   9.174  18.834  0.00  0.00    +0.000 NA
ATOM     26  C   UNL     1       0.827   9.600  19.974  0.00  0.00    +0.000 A 
ATOM     27  C   UNL     1      -0.078  10.658  20.155  0.00  0.00    +0.000 A 
ATOM     28  C   UNL     1      -0.672  10.831  21.414  0.00  0.00    +0.000 A 
ATOM     29  C   UNL     1      -0.337   9.990  22.479  0.00  0.00    +0.000 A 
ATOM     30  C   UNL     1       0.580   8.937  22.321  0.00  0.00    +0.000 A 
ATOM     31  C   UNL     1       1.122   8.763  21.044  0.00  0.00    +0.000 A 
ATOM     32  N   UNL     1       1.938   7.798  20.504  0.00  0.00    +0.000 N 
ATOM     33  H   UNL     1       2.246   6.955  20.966  0.00  0.00    +0.000 HD
ENDBRANCH  23  24
ENDBRANCH   1  23
TORSDOF 7
ENDMDL
MODEL 2
REMARK VINA RESULT:      -7.7      1.456      1.975
REMARK  Name = 
REMARK  7 active torsions:
REMARK  status: ('A' for Active; 'I' for Inactive)
REMARK    1  A    between atoms: N_1  and  C_2
REMARK    2  A    between atoms: C_2  and  C_3
REMARK    3  A    between atoms: C_8  and  C_9
REMARK    4  A    between atoms: C_9  and  N_10
REMARK    5  A    between atoms: N_10  and  C_11
REMARK    6  A    between atoms: N_10  and  C_21
REMARK    7  A    between atoms: C_11  and  C_12
REMARK                            x       y       z     vdW  Elec       q    Type
REMARK                         _______ _______ _______ _____ _____    ______ ____
ROOT
ATOM      1  N   UNL     1       4.338   5.951  17.941  0.00  0.00    +0.000 NA
ENDROOT
BRANCH   1   2
ATOM      2  C   UNL     1       4.147   4.492  18.208  0.00  0.00    +0.000 C 
ATOM      3  C   UNL     1       3.907   3.740  16.869  0.00  0.00    +0.000 C 
ATOM      4  C   UNL     1       3.771   2.240  17.097  0.00  0.00    +0.000 C 
ATOM      5  C   UNL     1       2.532   1.950  17.937  0.00  0.00    +0.000 C 
ATOM      6  C   UNL     1       2.400   2.852  19.132  0.00  0.00    +0.000 A 
ATOM      7  C   UNL     1       1.494   2.487  20.142  0.00  0.00    +0.000 A 
ATOM      8  C   UNL     1       1.327   3.301  21.250  0.00  0.00    +0.000 A 
ATOM      9  C   UNL     1       2.089   4.452  21.321  0.00  0.00    +0.000 A 
ATOM     10  N   UNL     1       2.983   4.827  20.378  0.00  0.00    +0.000 NA
ATOM     11  C   UNL     1       3.107   4.058  19.264  0.00  0.00    +0.000 A 
ENDBRANCH   1   2
BRANCH   1  12
ATOM     12  C   UNL     1       5.444   6.205  16.981  0.00  0.00    +0.000 C 
BRANCH  12  18
ATOM     13  C   UNL     1       7.608   6.526  18.344  0.00  0.00    +0.000 A 
ATOM     14  N   UNL     1       8.617   7.326  18.809  0.00  0.00    +0.000 NA
ATOM     15  C   UNL     1       8.570   8.625  18.436  0.00  0.00    +0.000 A 
ATOM     16  C   UNL     1       7.584   9.125  17.611  0.00  0.00    +0.000 A 
ATOM     17  N   UNL     1       6.591   8.351  17.129  0.00  0.00    +0.000 NA
ATOM     18  C   UNL     1       6.598   7.040  17.513  0.00  0.00    +0.000 A 
BRANCH  13  19
ATOM     19  C   UNL     1       7.625   5.072  18.785  0.00  0.00    +0.000 C 
BRANCH  19  20
ATOM     20  N   UNL     1       8.124   4.143  17.753  0.00  0.00    +0.000 NA
ATOM     21  H   UNL     1       8.012   4.574  16.838  0.00  0.00    +0.000 HD
ATOM     22  H   UNL     1       9.144   4.109  17.884  0.00  0.00    +0.000 HD
ENDBRANCH  19  20
ENDBRANCH  13  19
ENDBRANCH  12  18
ENDBRANCH   1  12
BRANCH   1  23
ATOM     23  C   UNL     1       3.141   6.691  17.466  0.00  0.00    +0.000 C 
BRANCH  23  24
ATOM     24  C   UNL     1       2.580   7.815  18.293  0.00  0.00    +0.000 A 
ATOM     25  N   UNL     1       2.055   8.929  17.812  0.00  0.00    +0.000 NA
ATOM     26  C   UNL     1       1.232   9.412  18.800  0.00  0.00    +0.000 A 
ATOM     27  C   UNL     1       0.303  10.465  18.760  0.00  0.00    +0.000 A 
ATOM     28  C   UNL     1      -0.495  10.704  19.887  0.00  0.00    +0.000 A 
ATOM     29  C   UNL     1      -0.339   9.936  21.044  0.00  0.00    +0.000 A 
ATOM     30  C   UNL     1       0.597   8.891  21.109  0.00  0.00    +0.000 A 
ATOM     31  C   UNL     1       1.348   8.648  19.954  0.00  0.00    +0.000 A 
ATOM     32  N   UNL     1       2.248   7.665  19.620  0.00  0.00    +0.000 N 
ATOM     33  H   UNL     1       2.480   6.857  20.180  0.00  0.00    +0.000 HD
ENDBRANCH  23  24
ENDBRANCH   1  23
TORSDOF 7
ENDMDL
MODEL 3
REMARK VINA RESULT:      -7.6      0.820      1.738
REMARK  Name = 
REMARK  7 active torsions:
REMARK  status: ('A' for Active; 'I' for Inactive)
REMARK    1  A    between atoms: N_1  and  C_2
REMARK    2  A    between atoms: C_2  and  C_3
REMARK    3  A    between atoms: C_8  and  C_9
REMARK    4  A    between atoms: C_9  and  N_10
REMARK    5  A    between atoms: N_10  and  C_11
REMARK    6  A    between atoms: N_10  and  C_21
REMARK    7  A    between atoms: C_11  and  C_12
REMARK                            x       y       z     vdW  Elec       q    Type
REMARK                         _______ _______ _______ _____ _____    ______ ____
ROOT
ATOM      1  N   UNL     1       3.554   6.363  18.543  0.00  0.00    +0.000 NA
ENDROOT
BRANCH   1   2
ATOM      2  C   UNL     1       3.457   4.873  18.458  0.00  0.00    +0.000 C 
ATOM      3  C   UNL     1       2.882   4.463  17.073  0.00  0.00    +0.000 C 
ATOM      4  C   UNL     1       2.828   2.948  16.927  0.00  0.00    +0.000 C 
ATOM      5  C   UNL     1       1.857   2.359  17.944  0.00  0.00    +0.000 C 
ATOM      6  C   UNL     1       2.034   2.920  19.327  0.00  0.00    +0.000 A 
ATOM      7  C   UNL     1       1.430   2.244  20.400  0.00  0.00    +0.000 A 
ATOM      8  C   UNL     1       1.550   2.739  21.688  0.00  0.00    +0.000 A 
ATOM      9  C   UNL     1       2.291   3.893  21.864  0.00  0.00    +0.000 A 
ATOM     10  N   UNL     1       2.901   4.561  20.859  0.00  0.00    +0.000 NA
ATOM     11  C   UNL     1       2.736   4.108  19.589  0.00  0.00    +0.000 A 
ENDBRANCH   1   2
BRANCH   1  12
ATOM     12  C   UNL     1       4.513   6.919  17.553  0.00  0.00    +0.000 C 
BRANCH  12  18
ATOM     13  C   UNL     1       6.562   5.398  17.912  0.00  0.00    +0.000 A 
ATOM     14  N   UNL     1       7.520   4.552  17.421  0.00  0.00    +0.000 NA
ATOM     15  C   UNL     1       7.480   4.311  16.091  0.00  0.00    +0.000 A 
ATOM     16  C   UNL     1       6.517   4.855  15.268  0.00  0.00    +0.000 A 
ATOM     17  N   UNL     1       5.556   5.677  15.733  0.00  0.00    +0.000 NA
ATOM     18  C   UNL     1       5.590   5.960  17.068  0.00  0.00    +0.000 A 
BRANCH  13  19
ATOM     19  C   UNL     1       6.617   5.710  19.398  0.00  0.00    +0.000 C 
BRANCH  19  20
ATOM     20  N   UNL     1       7.938   5.467  20.009  0.00  0.00    +0.000 NA
ATOM     21  H   UNL     1       8.216   6.292  20.535  0.00  0.00    +0.000 HD
ATOM     22  H   UNL     1       7.778   4.757  20.735  0.00  0.00    +0.000 HD
ENDBRANCH  19  20
ENDBRANCH  13  19
ENDBRANCH  12  18
ENDBRANCH   1  12
BRANCH   1  23
ATOM     23  C   UNL     1       2.277   7.110  18.413  0.00  0.00    +0.000 C 
BRANCH  23  24
ATOM     24  C   UNL     1       1.917   8.158  19.432  0.00  0.00    +0.000 A 
ATOM     25  N   UNL     1       1.374   9.331  19.160  0.00  0.00    +0.000 NA
ATOM     26  C   UNL     1       0.751   9.733  20.316  0.00  0.00    +0.000 A 
ATOM     27  C   UNL     1      -0.119  10.812  20.540  0.00  0.00    +0.000 A 
ATOM     28  C   UNL     1      -0.705  10.956  21.805  0.00  0.00    +0.000 A 
ATOM     29  C   UNL     1      -0.396  10.065  22.837  0.00  0.00    +0.000 A 
ATOM     30  C   UNL     1       0.486   8.990  22.637  0.00  0.00    +0.000 A 
ATOM     31  C   UNL     1       1.021   8.847  21.353  0.00  0.00    +0.000 A 
ATOM     32  N   UNL     1       1.804   7.878  20.774  0.00  0.00    +0.000 N 
ATOM     33  H   UNL     1       2.087   7.009  21.204  0.00  0.00    +0.000 HD
ENDBRANCH  23  24
ENDBRANCH   1  23
TORSDOF 7
ENDMDL
MODEL 4
REMARK VINA RESULT:      -7.3      1.372      5.052
REMARK  Name = 
REMARK  7 active torsions:
REMARK  status: ('A' for Active; 'I' for Inactive)
REMARK    1  A    between atoms: N_1  and  C_2
REMARK    2  A    between atoms: C_2  and  C_3
REMARK    3  A    between atoms: C_8  and  C_9
REMARK    4  A    between atoms: C_9  and  N_10
REMARK    5  A    between atoms: N_10  and  C_11
REMARK    6  A    between atoms: N_10  and  C_21
REMARK    7  A    between atoms: C_11  and  C_12
REMARK                            x       y       z     vdW  Elec       q    Type
REMARK                         _______ _______ _______ _____ _____    ______ ____
ROOT
ATOM      1  N   UNL     1       3.138   6.332  17.507  0.00  0.00    +0.000 NA
ENDROOT
BRANCH   1   2
ATOM      2  C   UNL     1       4.343   5.496  17.800  0.00  0.00    +0.000 C 
ATOM      3  C   UNL     1       5.108   6.086  19.019  0.00  0.00    +0.000 C 
ATOM      4  C   UNL     1       6.308   5.223  19.385  0.00  0.00    +0.000 C 
ATOM      5  C   UNL     1       7.322   5.228  18.247  0.00  0.00    +0.000 C 
ATOM      6  C   UNL     1       6.699   5.016  16.896  0.00  0.00    +0.000 A 
ATOM      7  C   UNL     1       7.540   4.687  15.820  0.00  0.00    +0.000 A 
ATOM      8  C   UNL     1       7.009   4.505  14.554  0.00  0.00    +0.000 A 
ATOM      9  C   UNL     1       5.642   4.642  14.408  0.00  0.00    +0.000 A 
ATOM     10  N   UNL     1       4.798   4.941  15.421  0.00  0.00    +0.000 NA
ATOM     11  C   UNL     1       5.324   5.176  16.652  0.00  0.00    +0.000 A 
ENDBRANCH   1   2
BRANCH   1  12
ATOM     12  C   UNL     1       1.878   5.665  17.928  0.00  0.00    +0.000 C 
BRANCH  12  18
ATOM     13  C   UNL     1       1.768   3.660  19.545  0.00  0.00    +0.000 A 
ATOM     14  N   UNL     1       1.904   2.321  19.795  0.00  0.00    +0.000 NA
ATOM     15  C   UNL     1       2.283   1.553  18.749  0.00  0.00    +0.000 A 
ATOM     16  C   UNL     1       2.495   2.069  17.488  0.00  0.00    +0.000 A 
ATOM     17  N   UNL     1       2.351   3.381  17.216  0.00  0.00    +0.000 NA
ATOM     18  C   UNL     1       1.996   4.185  18.261  0.00  0.00    +0.000 A 
BRANCH  13  19
ATOM     19  C   UNL     1       1.380   4.544  20.719  0.00  0.00    +0.000 C 
BRANCH  19  20
ATOM     20  N   UNL     1       2.527   5.214  21.363  0.00  0.00    +0.000 NA
ATOM     21  H   UNL     1       3.225   4.514  21.605  0.00  0.00    +0.000 HD
ATOM     22  H   UNL     1       2.978   5.762  20.619  0.00  0.00    +0.000 HD
ENDBRANCH  19  20
ENDBRANCH  13  19
ENDBRANCH  12  18
ENDBRANCH   1  12
BRANCH   1  23
ATOM     23  C   UNL     1       3.140   7.705  18.074  0.00  0.00    +0.000 C 
BRANCH  23  24
ATOM     24  C   UNL     1       2.003   8.154  18.950  0.00  0.00    +0.000 A 
ATOM     25  N   UNL     1       1.868   7.865  20.232  0.00  0.00    +0.000 NA
ATOM     26  C   UNL     1       1.049   8.839  20.751  0.00  0.00    +0.000 A 
ATOM     27  C   UNL     1       0.719   9.118  22.087  0.00  0.00    +0.000 A 
ATOM     28  C   UNL     1      -0.073  10.241  22.367  0.00  0.00    +0.000 A 
ATOM     29  C   UNL     1      -0.558  11.044  21.332  0.00  0.00    +0.000 A 
ATOM     30  C   UNL     1      -0.252  10.771  19.988  0.00  0.00    +0.000 A 
ATOM     31  C   UNL     1       0.574   9.670  19.743  0.00  0.00    +0.000 A 
ATOM     32  N   UNL     1       1.159   9.183  18.599  0.00  0.00    +0.000 N 
ATOM     33  H   UNL     1       1.136   9.619  17.689  0.00  0.00    +0.000 HD
ENDBRANCH  23  24
ENDBRANCH   1  23
TORSDOF 7
ENDMDL
MODEL 5
REMARK VINA RESULT:      -7.2      1.483      4.625
REMARK  Name = 
REMARK  7 active torsions:
REMARK  status: ('A' for Active; 'I' for Inactive)
REMARK    1  A    between atoms: N_1  and  C_2
REMARK    2  A    between atoms: C_2  and  C_3
REMARK    3  A    between atoms: C_8  and  C_9
REMARK    4  A    between atoms: C_9  and  N_10
REMARK    5  A    between atoms: N_10  and  C_11
REMARK    6  A    between atoms: N_10  and  C_21
REMARK    7  A    between atoms: C_11  and  C_12
REMARK                            x       y       z     vdW  Elec       q    Type
REMARK                         _______ _______ _______ _____ _____    ______ ____
ROOT
ATOM      1  N   UNL     1       3.208   5.369  17.597  0.00  0.00    +0.000 NA
ENDROOT
BRANCH   1   2
ATOM      2  C   UNL     1       4.495   5.452  16.838  0.00  0.00    +0.000 C 
ATOM      3  C   UNL     1       4.440   4.506  15.606  0.00  0.00    +0.000 C 
ATOM      4  C   UNL     1       5.711   4.612  14.774  0.00  0.00    +0.000 C 
ATOM      5  C   UNL     1       6.908   4.129  15.585  0.00  0.00    +0.000 C 
ATOM      6  C   UNL     1       6.941   4.683  16.983  0.00  0.00    +0.000 A 
ATOM      7  C   UNL     1       8.136   4.573  17.712  0.00  0.00    +0.000 A 
ATOM      8  C   UNL     1       8.203   5.051  19.011  0.00  0.00    +0.000 A 
ATOM      9  C   UNL     1       7.069   5.644  19.533  0.00  0.00    +0.000 A 
ATOM     10  N   UNL     1       5.907   5.784  18.856  0.00  0.00    +0.000 NA
ATOM     11  C   UNL     1       5.823   5.265  17.603  0.00  0.00    +0.000 A 
ENDBRANCH   1   2
BRANCH   1  12
ATOM     12  C   UNL     1       2.700   3.976  17.687  0.00  0.00    +0.000 C 
BRANCH  12  18
ATOM     13  C   UNL     1       3.166   2.750  19.906  0.00  0.00    +0.000 A 
ATOM     14  N   UNL     1       2.764   2.336  21.148  0.00  0.00    +0.000 NA
ATOM     15  C   UNL     1       1.509   2.683  21.516  0.00  0.00    +0.000 A 
ATOM     16  C   UNL     1       0.681   3.434  20.709  0.00  0.00    +0.000 A 
ATOM     17  N   UNL     1       1.063   3.864  19.490  0.00  0.00    +0.000 NA
ATOM     18  C   UNL     1       2.315   3.505  19.082  0.00  0.00    +0.000 A 
BRANCH  13  19
ATOM     19  C   UNL     1       4.559   2.336  19.462  0.00  0.00    +0.000 C 
BRANCH  19  20
ATOM     20  N   UNL     1       5.255   1.460  20.425  0.00  0.00    +0.000 NA
ATOM     21  H   UNL     1       4.689   0.631  20.587  0.00  0.00    +0.000 HD
ATOM     22  H   UNL     1       6.078   1.101  19.924  0.00  0.00    +0.000 HD
ENDBRANCH  19  20
ENDBRANCH  13  19
ENDBRANCH  12  18
ENDBRANCH   1  12
BRANCH   1  23
ATOM     23  C   UNL     1       3.219   5.943  18.967  0.00  0.00    +0.000 C 
BRANCH  23  24
ATOM     24  C   UNL     1       2.625   7.303  19.212  0.00  0.00    +0.000 A 
ATOM     25  N   UNL     1       2.292   8.171  18.273  0.00  0.00    +0.000 NA
ATOM     26  C   UNL     1       1.356   9.000  18.843  0.00  0.00    +0.000 A 
ATOM     27  C   UNL     1       0.545   9.981  18.250  0.00  0.00    +0.000 A 
ATOM     28  C   UNL     1      -0.412  10.633  19.040  0.00  0.00    +0.000 A 
ATOM     29  C   UNL     1      -0.527  10.342  20.402  0.00  0.00    +0.000 A 
ATOM     30  C   UNL     1       0.288   9.376  21.016  0.00  0.00    +0.000 A 
ATOM     31  C   UNL     1       1.202   8.711  20.194  0.00  0.00    +0.000 A 
ATOM     32  N   UNL     1       2.056   7.658  20.414  0.00  0.00    +0.000 N 
ATOM     33  H   UNL     1       2.115   7.108  21.259  0.00  0.00    +0.000 HD
ENDBRANCH  23  24
ENDBRANCH   1  23
TORSDOF 7
ENDMDL
MODEL 6
REMARK VINA RESULT:      -7.1      1.414      4.803
REMARK  Name = 
REMARK  7 active torsions:
REMARK  status: ('A' for Active; 'I' for Inactive)
REMARK    1  A    between atoms: N_1  and  C_2
REMARK    2  A    between atoms: C_2  and  C_3
REMARK    3  A    between atoms: C_8  and  C_9
REMARK    4  A    between atoms: C_9  and  N_10
REMARK    5  A    between atoms: N_10  and  C_11
REMARK    6  A    between atoms: N_10  and  C_21
REMARK    7  A    between atoms: C_11  and  C_12
REMARK                            x       y       z     vdW  Elec       q    Type
REMARK                         _______ _______ _______ _____ _____    ______ ____
ROOT
ATOM      1  N   UNL     1       3.250   6.187  17.724  0.00  0.00    +0.000 NA
ENDROOT
BRANCH   1   2
ATOM      2  C   UNL     1       4.480   5.356  17.910  0.00  0.00    +0.000 C 
ATOM      3  C   UNL     1       5.361   5.965  19.036  0.00  0.00    +0.000 C 
ATOM      4  C   UNL     1       6.593   5.107  19.295  0.00  0.00    +0.000 C 
ATOM      5  C   UNL     1       7.489   5.092  18.062  0.00  0.00    +0.000 C 
ATOM      6  C   UNL     1       6.733   4.859  16.783  0.00  0.00    +0.000 A 
ATOM      7  C   UNL     1       7.464   4.510  15.635  0.00  0.00    +0.000 A 
ATOM      8  C   UNL     1       6.809   4.308  14.431  0.00  0.00    +0.000 A 
ATOM      9  C   UNL     1       5.434   4.444  14.419  0.00  0.00    +0.000 A 
ATOM     10  N   UNL     1       4.695   4.761  15.507  0.00  0.00    +0.000 NA
ATOM     11  C   UNL     1       5.341   5.015  16.675  0.00  0.00    +0.000 A 
ENDBRANCH   1   2
BRANCH   1  12
ATOM     12  C   UNL     1       2.026   5.490  18.197  0.00  0.00    +0.000 C 
BRANCH  12  18
ATOM     13  C   UNL     1       2.516   3.137  19.129  0.00  0.00    +0.000 A 
ATOM     14  N   UNL     1       2.673   2.283  20.186  0.00  0.00    +0.000 NA
ATOM     15  C   UNL     1       2.523   2.821  21.418  0.00  0.00    +0.000 A 
ATOM     16  C   UNL     1       2.254   4.159  21.614  0.00  0.00    +0.000 A 
ATOM     17  N   UNL     1       2.110   5.021  20.588  0.00  0.00    +0.000 NA
ATOM     18  C   UNL     1       2.230   4.498  19.332  0.00  0.00    +0.000 A 
BRANCH  13  19
ATOM     19  C   UNL     1       2.643   2.540  17.737  0.00  0.00    +0.000 C 
BRANCH  19  20
ATOM     20  N   UNL     1       3.876   1.753  17.538  0.00  0.00    +0.000 NA
ATOM     21  H   UNL     1       3.818   0.903  18.095  0.00  0.00    +0.000 HD
ATOM     22  H   UNL     1       3.831   1.415  16.568  0.00  0.00    +0.000 HD
ENDBRANCH  19  20
ENDBRANCH  13  19
ENDBRANCH  12  18
ENDBRANCH   1  12
BRANCH   1  23
ATOM     23  C   UNL     1       3.276   7.538  18.342  0.00  0.00    +0.000 C 
BRANCH  23  24
ATOM     24  C   UNL     1       1.989   8.186  18.775  0.00  0.00    +0.000 A 
ATOM     25  N   UNL     1       1.586   8.322  20.026  0.00  0.00    +0.000 NA
ATOM     26  C   UNL     1       0.695   9.367  20.022  0.00  0.00    +0.000 A 
ATOM     27  C   UNL     1       0.100  10.045  21.098  0.00  0.00    +0.000 A 
ATOM     28  C   UNL     1      -0.714  11.155  20.830  0.00  0.00    +0.000 A 
ATOM     29  C   UNL     1      -0.961  11.553  19.514  0.00  0.00    +0.000 A 
ATOM     30  C   UNL     1      -0.388  10.877  18.424  0.00  0.00    +0.000 A 
ATOM     31  C   UNL     1       0.452   9.801  18.724  0.00  0.00    +0.000 A 
ATOM     32  N   UNL     1       1.253   9.001  17.945  0.00  0.00    +0.000 N 
ATOM     33  H   UNL     1       1.426   9.117  16.957  0.00  0.00    +0.000 HD
ENDBRANCH  23  24
ENDBRANCH   1  23
TORSDOF 7
ENDMDL
MODEL 7
REMARK VINA RESULT:      -7.1      1.654      5.365
REMARK  Name = 
REMARK  7 active torsions:
REMARK  status: ('A' for Active; 'I' for Inactive)
REMARK    1  A    between atoms: N_1  and  C_2
REMARK    2  A    between atoms: C_2  and  C_3
REMARK    3  A    between atoms: C_8  and  C_9
REMARK    4  A    between atoms: C_9  and  N_10
REMARK    5  A    between atoms: N_10  and  C_11
REMARK    6  A    between atoms: N_10  and  C_21
REMARK    7  A    between atoms: C_11  and  C_12
REMARK                            x       y       z     vdW  Elec       q    Type
REMARK                         _______ _______ _______ _____ _____    ______ ____
ROOT
ATOM      1  N   UNL     1       3.788   4.939  18.244  0.00  0.00    +0.000 NA
ENDROOT
BRANCH   1   2
ATOM      2  C   UNL     1       5.249   4.849  17.934  0.00  0.00    +0.000 C 
ATOM      3  C   UNL     1       6.015   5.972  18.687  0.00  0.00    +0.000 C 
ATOM      4  C   UNL     1       7.515   5.872  18.445  0.00  0.00    +0.000 C 
ATOM      5  C   UNL     1       7.824   6.107  16.971  0.00  0.00    +0.000 C 
ATOM      6  C   UNL     1       6.916   5.346  16.046  0.00  0.00    +0.000 A 
ATOM      7  C   UNL     1       7.291   5.227  14.697  0.00  0.00    +0.000 A 
ATOM      8  C   UNL     1       6.473   4.553  13.806  0.00  0.00    +0.000 A 
ATOM      9  C   UNL     1       5.307   4.000  14.301  0.00  0.00    +0.000 A 
ATOM     10  N   UNL     1       4.921   4.078  15.595  0.00  0.00    +0.000 NA
ATOM     11  C   UNL     1       5.695   4.788  16.458  0.00  0.00    +0.000 A 
ENDBRANCH   1   2
BRANCH   1  12
ATOM     12  C   UNL     1       3.138   3.603  18.276  0.00  0.00    +0.000 C 
BRANCH  12  18
ATOM     13  C   UNL     1       3.380   2.500  20.593  0.00  0.00    +0.000 A 
ATOM     14  N   UNL     1       2.842   2.112  21.791  0.00  0.00    +0.000 NA
ATOM     15  C   UNL     1       1.532   2.390  21.976  0.00  0.00    +0.000 A 
ATOM     16  C   UNL     1       0.774   3.053  21.034  0.00  0.00    +0.000 A 
ATOM     17  N   UNL     1       1.287   3.458  19.855  0.00  0.00    +0.000 NA
ATOM     18  C   UNL     1       2.602   3.164  19.630  0.00  0.00    +0.000 A 
BRANCH  13  19
ATOM     19  C   UNL     1       4.841   2.160  20.353  0.00  0.00    +0.000 C 
BRANCH  19  20
ATOM     20  N   UNL     1       5.437   1.318  21.408  0.00  0.00    +0.000 NA
ATOM     21  H   UNL     1       5.249   1.741  22.314  0.00  0.00    +0.000 HD
ATOM     22  H   UNL     1       4.879   0.455  21.420  0.00  0.00    +0.000 HD
ENDBRANCH  19  20
ENDBRANCH  13  19
ENDBRANCH  12  18
ENDBRANCH   1  12
BRANCH   1  23
ATOM     23  C   UNL     1       3.427   5.654  19.495  0.00  0.00    +0.000 C 
BRANCH  23  24
ATOM     24  C   UNL     1       2.827   7.031  19.422  0.00  0.00    +0.000 A 
ATOM     25  N   UNL     1       2.600   7.706  18.309  0.00  0.00    +0.000 NA
ATOM     26  C   UNL     1       1.620   8.619  18.617  0.00  0.00    +0.000 A 
ATOM     27  C   UNL     1       0.884   9.467  17.774  0.00  0.00    +0.000 A 
ATOM     28  C   UNL     1      -0.140  10.248  18.329  0.00  0.00    +0.000 A 
ATOM     29  C   UNL     1      -0.394  10.214  19.703  0.00  0.00    +0.000 A 
ATOM     30  C   UNL     1       0.344   9.386  20.564  0.00  0.00    +0.000 A 
ATOM     31  C   UNL     1       1.329   8.587  19.976  0.00  0.00    +0.000 A 
ATOM     32  N   UNL     1       2.145   7.599  20.473  0.00  0.00    +0.000 N 
ATOM     33  H   UNL     1       2.112   7.217  21.407  0.00  0.00    +0.000 HD
ENDBRANCH  23  24
ENDBRANCH   1  23
TORSDOF 7
ENDMDL
MODEL 8
REMARK VINA RESULT:      -6.9      1.219      2.233
REMARK  Name = 
REMARK  7 active torsions:
REMARK  status: ('A' for Active; 'I' for Inactive)
REMARK    1  A    between atoms: N_1  and  C_2
REMARK    2  A    between atoms: C_2  and  C_3
REMARK    3  A    between atoms: C_8  and  C_9
REMARK    4  A    between atoms: C_9  and  N_10
REMARK    5  A    between atoms: N_10  and  C_11
REMARK    6  A    between atoms: N_10  and  C_21
REMARK    7  A    between atoms: C_11  and  C_12
REMARK                            x       y       z     vdW  Elec       q    Type
REMARK                         _______ _______ _______ _____ _____    ______ ____
ROOT
ATOM      1  N   UNL     1       4.235   5.652  19.016  0.00  0.00    +0.000 NA
ENDROOT
BRANCH   1   2
ATOM      2  C   UNL     1       3.585   4.328  18.768  0.00  0.00    +0.000 C 
ATOM      3  C   UNL     1       2.836   4.357  17.406  0.00  0.00    +0.000 C 
ATOM      4  C   UNL     1       2.215   3.002  17.092  0.00  0.00    +0.000 C 
ATOM      5  C   UNL     1       1.142   2.667  18.122  0.00  0.00    +0.000 C 
ATOM      6  C   UNL     1       1.579   2.921  19.538  0.00  0.00    +0.000 A 
ATOM      7  C   UNL     1       0.817   2.364  20.578  0.00  0.00    +0.000 A 
ATOM      8  C   UNL     1       1.172   2.593  21.897  0.00  0.00    +0.000 A 
ATOM      9  C   UNL     1       2.296   3.361  22.134  0.00  0.00    +0.000 A 
ATOM     10  N   UNL     1       3.065   3.899  21.159  0.00  0.00    +0.000 NA
ATOM     11  C   UNL     1       2.685   3.723  19.867  0.00  0.00    +0.000 A 
ENDBRANCH   1   2
BRANCH   1  12
ATOM     12  C   UNL     1       5.717   5.573  18.939  0.00  0.00    +0.000 C 
BRANCH  12  18
ATOM     13  C   UNL     1       7.136   6.268  16.902  0.00  0.00    +0.000 A 
ATOM     14  N   UNL     1       7.614   6.023  15.643  0.00  0.00    +0.000 NA
ATOM     15  C   UNL     1       7.215   4.867  15.066  0.00  0.00    +0.000 A 
ATOM     16  C   UNL     1       6.397   3.961  15.708  0.00  0.00    +0.000 A 
ATOM     17  N   UNL     1       5.928   4.175  16.954  0.00  0.00    +0.000 NA
ATOM     18  C   UNL     1       6.293   5.348  17.549  0.00  0.00    +0.000 A 
BRANCH  13  19
ATOM     19  C   UNL     1       7.543   7.581  17.550  0.00  0.00    +0.000 C 
BRANCH  19  20
ATOM     20  N   UNL     1       8.422   7.418  18.724  0.00  0.00    +0.000 NA
ATOM     21  H   UNL     1       8.919   8.290  18.888  0.00  0.00    +0.000 HD
ATOM     22  H   UNL     1       7.790   7.340  19.531  0.00  0.00    +0.000 HD
ENDBRANCH  19  20
ENDBRANCH  13  19
ENDBRANCH  12  18
ENDBRANCH   1  12
BRANCH   1  23
ATOM     23  C   UNL     1       3.790   6.771  18.146  0.00  0.00    +0.000 C 
BRANCH  23  24
ATOM     24  C   UNL     1       2.607   7.608  18.550  0.00  0.00    +0.000 A 
ATOM     25  N   UNL     1       1.992   7.545  19.718  0.00  0.00    +0.000 NA
ATOM     26  C   UNL     1       1.360   8.755  19.874  0.00  0.00    +0.000 A 
ATOM     27  C   UNL     1       0.712   9.292  20.998  0.00  0.00    +0.000 A 
ATOM     28  C   UNL     1       0.223  10.604  20.933  0.00  0.00    +0.000 A 
ATOM     29  C   UNL     1       0.342  11.349  19.757  0.00  0.00    +0.000 A 
ATOM     30  C   UNL     1       0.973  10.823  18.617  0.00  0.00    +0.000 A 
ATOM     31  C   UNL     1       1.488   9.528  18.726  0.00  0.00    +0.000 A 
ATOM     32  N   UNL     1       2.247   8.755  17.881  0.00  0.00    +0.000 N 
ATOM     33  H   UNL     1       2.640   9.051  16.999  0.00  0.00    +0.000 HD
ENDBRANCH  23  24
ENDBRANCH   1  23
TORSDOF 7
ENDMDL
MODEL 9
REMARK VINA RESULT:      -6.8      7.135     10.990
REMARK  Name = 
REMARK  7 active torsions:
REMARK  status: ('A' for Active; 'I' for Inactive)
REMARK    1  A    between atoms: N_1  and  C_2
REMARK    2  A    between atoms: C_2  and  C_3
REMARK    3  A    between atoms: C_8  and  C_9
REMARK    4  A    between atoms: C_9  and  N_10
REMARK    5  A    between atoms: N_10  and  C_11
REMARK    6  A    between atoms: N_10  and  C_21
REMARK    7  A    between atoms: C_11  and  C_12
REMARK                            x       y       z     vdW  Elec       q    Type
REMARK                         _______ _______ _______ _____ _____    ______ ____
ROOT
ATOM      1  N   UNL     1      -0.934  13.176  20.769  0.00  0.00    +0.000 NA
ENDROOT
BRANCH   1   2
ATOM      2  C   UNL     1      -0.780  11.772  20.278  0.00  0.00    +0.000 C 
ATOM      3  C   UNL     1       0.727  11.450  20.071  0.00  0.00    +0.000 C 
ATOM      4  C   UNL     1       0.925  10.006  19.632  0.00  0.00    +0.000 C 
ATOM      5  C   UNL     1       0.286   9.782  18.266  0.00  0.00    +0.000 C 
ATOM      6  C   UNL     1      -1.098  10.360  18.157  0.00  0.00    +0.000 A 
ATOM      7  C   UNL     1      -1.904   9.953  17.081  0.00  0.00    +0.000 A 
ATOM      8  C   UNL     1      -3.177  10.477  16.931  0.00  0.00    +0.000 A 
ATOM      9  C   UNL     1      -3.612  11.384  17.879  0.00  0.00    +0.000 A 
ATOM     10  N   UNL     1      -2.871  11.787  18.937  0.00  0.00    +0.000 NA
ATOM     11  C   UNL     1      -1.602  11.316  19.053  0.00  0.00    +0.000 A 
ENDBRANCH   1   2
BRANCH   1  12
ATOM     12  C   UNL     1      -1.639  13.239  22.076  0.00  0.00    +0.000 C 
BRANCH  12  18
ATOM     13  C   UNL     1      -4.034  13.507  22.991  0.00  0.00    +0.000 A 
ATOM     14  N   UNL     1      -5.292  14.038  22.900  0.00  0.00    +0.000 NA
ATOM     15  C   UNL     1      -5.524  14.850  21.844  0.00  0.00    +0.000 A 
ATOM     16  C   UNL     1      -4.550  15.158  20.918  0.00  0.00    +0.000 A 
ATOM     17  N   UNL     1      -3.301  14.659  20.997  0.00  0.00    +0.000 NA
ATOM     18  C   UNL     1      -3.047  13.813  22.038  0.00  0.00    +0.000 A 
BRANCH  13  19
ATOM     19  C   UNL     1      -3.768  12.561  24.150  0.00  0.00    +0.000 C 
BRANCH  19  20
ATOM     20  N   UNL     1      -4.978  11.884  24.655  0.00  0.00    +0.000 NA
ATOM     21  H   UNL     1      -4.702  11.033  25.140  0.00  0.00    +0.000 HD
ATOM     22  H   UNL     1      -5.338  12.488  25.405  0.00  0.00    +0.000 HD
ENDBRANCH  19  20
ENDBRANCH  13  19
ENDBRANCH  12  18
ENDBRANCH   1  12
BRANCH   1  23
ATOM     23  C   UNL     1       0.316  13.970  20.884  0.00  0.00    +0.000 C 
BRANCH  23  24
ATOM     24  C   UNL     1       0.422  15.303  20.194  0.00  0.00    +0.000 A 
ATOM     25  N   UNL     1       1.518  15.790  19.641  0.00  0.00    +0.000 NA
ATOM     26  C   UNL     1       1.093  16.714  18.717  0.00  0.00    +0.000 A 
ATOM     27  C   UNL     1       1.821  17.400  17.732  0.00  0.00    +0.000 A 
ATOM     28  C   UNL     1       1.131  18.229  16.837  0.00  0.00    +0.000 A 
ATOM     29  C   UNL     1      -0.251  18.402  16.950  0.00  0.00    +0.000 A 
ATOM     30  C   UNL     1      -0.994  17.738  17.940  0.00  0.00    +0.000 A 
ATOM     31  C   UNL     1      -0.284  16.884  18.790  0.00  0.00    +0.000 A 
ATOM     32  N   UNL     1      -0.682  16.008  19.771  0.00  0.00    +0.000 N 
ATOM     33  H   UNL     1      -1.635  15.774  20.008  0.00  0.00    +0.000 HD
ENDBRANCH  23  24
ENDBRANCH   1  23
TORSDOF 7
ENDMDL
