MODEL 1
REMARK VINA RESULT:      -7.9      0.000      0.000
REMARK  Name = 
REMARK  7 active torsions:
REMARK  status: ('A' for Active; 'I' for Inactive)
REMARK    1  A    between atoms: C_2  and  O_3
REMARK    2  A    between atoms: C_2  and  C_15
REMARK    3  A    between atoms: O_3  and  C_4
REMARK    4  A    between atoms: C_4  and  C_5
REMARK    5  A    between atoms: C_9  and  C_10
REMARK    6  A    between atoms: C_17  and  S_18
REMARK    7  A    between atoms: S_18  and  N_21
REMARK                            x       y       z     vdW  Elec       q    Type
REMARK                         _______ _______ _______ _____ _____    ______ ____
ROOT
ATOM      1  C   UNL     1       2.357   6.506  19.318  0.00  0.00    +0.000 A 
ATOM      2  C   UNL     1       1.780   7.365  20.264  0.00  0.00    +0.000 A 
ATOM      3  C   UNL     1       1.510   8.691  19.909  0.00  0.00    +0.000 A 
ATOM      4  C   UNL     1       1.891   9.191  18.657  0.00  0.00    +0.000 A 
ATOM      5  C   UNL     1       2.515   8.345  17.741  0.00  0.00    +0.000 A 
ATOM      6  C   UNL     1       2.730   7.006  18.067  0.00  0.00    +0.000 A 
ATOM      7  F   UNL     1       3.307   6.220  17.146  0.00  0.00    +0.000 F 
ENDROOT
BRANCH   3   8
ATOM      8  S   UNL     1       0.586   9.719  21.029  0.00  0.00    +0.000 S 
ATOM      9  O   UNL     1      -0.673   9.054  21.270  0.00  0.00    +0.000 OA
ATOM     10  O   UNL     1       1.467  10.086  22.123  0.00  0.00    +0.000 OA
BRANCH   8  11
ATOM     11  N   UNL     1       0.290  11.127  20.114  0.00  0.00    +0.000 NA
ATOM     12  C   UNL     1       0.956  12.398  20.539  0.00  0.00    +0.000 C 
ATOM     13  C   UNL     1       0.198  13.112  21.665  0.00  0.00    +0.000 C 
ATOM     14  O   UNL     1      -1.183  13.318  21.341  0.00  0.00    +0.000 OA
ATOM     15  C   UNL     1      -1.840  12.086  21.012  0.00  0.00    +0.000 C 
ATOM     16  C   UNL     1      -1.155  11.398  19.826  0.00  0.00    +0.000 C 
ENDBRANCH   8  11
ENDBRANCH   3   8
BRANCH   1  18
ATOM     17  O   UNL     1       1.649   4.239  19.427  0.00  0.00    +0.000 OA
ATOM     18  C   UNL     1       2.503   5.078  19.661  0.00  0.00    +0.000 C 
BRANCH  18  19
ATOM     19  O   UNL     1       3.746   4.860  20.145  0.00  0.00    +0.000 OA
BRANCH  19  20
ATOM     20  C   UNL     1       4.531   3.858  19.492  0.00  0.00    +0.000 C 
BRANCH  20  21
ATOM     21  C   UNL     1       5.523   4.546  18.585  0.00  0.00    +0.000 A 
ATOM     22  C   UNL     1       6.446   5.466  19.098  0.00  0.00    +0.000 A 
ATOM     23  C   UNL     1       7.340   6.122  18.250  0.00  0.00    +0.000 A 
ATOM     24  C   UNL     1       7.325   5.863  16.878  0.00  0.00    +0.000 A 
ATOM     25  C   UNL     1       6.416   4.940  16.341  0.00  0.00    +0.000 A 
ATOM     26  C   UNL     1       5.524   4.285  17.205  0.00  0.00    +0.000 A 
BRANCH  25  27
ATOM     27  C   UNL     1       6.381   4.649  14.860  0.00  0.00    +0.000 C 
ATOM     28  F   UNL     1       5.327   5.220  14.214  0.00  0.00    +0.000 F 
ATOM     29  F   UNL     1       7.496   5.092  14.217  0.00  0.00    +0.000 F 
ATOM     30  F   UNL     1       6.302   3.315  14.594  0.00  0.00    +0.000 F 
ENDBRANCH  25  27
ENDBRANCH  20  21
ENDBRANCH  19  20
ENDBRANCH  18  19
ENDBRANCH   1  18
TORSDOF 7
ENDMDL
MODEL 2
REMARK VINA RESULT:      -7.7      4.911      7.495
REMARK  Name = 
REMARK  7 active torsions:
REMARK  status: ('A' for Active; 'I' for Inactive)
REMARK    1  A    between atoms: C_2  and  O_3
REMARK    2  A    between atoms: C_2  and  C_15
REMARK    3  A    between atoms: O_3  and  C_4
REMARK    4  A    between atoms: C_4  and  C_5
REMARK    5  A    between atoms: C_9  and  C_10
REMARK    6  A    between atoms: C_17  and  S_18
REMARK    7  A    between atoms: S_18  and  N_21
REMARK                            x       y       z     vdW  Elec       q    Type
REMARK                         _______ _______ _______ _____ _____    ______ ____
ROOT
ATOM      1  C   UNL     1       6.594   6.364  17.391  0.00  0.00    +0.000 A 
ATOM      2  C   UNL     1       5.354   6.447  18.040  0.00  0.00    +0.000 A 
ATOM      3  C   UNL     1       4.266   5.730  17.528  0.00  0.00    +0.000 A 
ATOM      4  C   UNL     1       4.379   5.011  16.331  0.00  0.00    +0.000 A 
ATOM      5  C   UNL     1       5.602   4.979  15.662  0.00  0.00    +0.000 A 
ATOM      6  C   UNL     1       6.706   5.640  16.201  0.00  0.00    +0.000 A 
ATOM      7  F   UNL     1       7.870   5.559  15.540  0.00  0.00    +0.000 F 
ENDROOT
BRANCH   3   8
ATOM      8  S   UNL     1       2.755   5.661  18.464  0.00  0.00    +0.000 S 
ATOM      9  O   UNL     1       2.465   7.009  18.896  0.00  0.00    +0.000 OA
ATOM     10  O   UNL     1       1.793   4.891  17.698  0.00  0.00    +0.000 OA
BRANCH   8  11
ATOM     11  N   UNL     1       3.184   4.735  19.830  0.00  0.00    +0.000 NA
ATOM     12  C   UNL     1       3.761   3.372  19.606  0.00  0.00    +0.000 C 
ATOM     13  C   UNL     1       2.682   2.308  19.369  0.00  0.00    +0.000 C 
ATOM     14  O   UNL     1       1.692   2.302  20.405  0.00  0.00    +0.000 OA
ATOM     15  C   UNL     1       1.082   3.591  20.564  0.00  0.00    +0.000 C 
ATOM     16  C   UNL     1       2.132   4.658  20.894  0.00  0.00    +0.000 C 
ENDBRANCH   8  11
ENDBRANCH   3   8
BRANCH   1  18
ATOM     17  O   UNL     1       8.324   6.564  19.009  0.00  0.00    +0.000 OA
ATOM     18  C   UNL     1       7.763   7.009  18.023  0.00  0.00    +0.000 C 
BRANCH  18  19
ATOM     19  O   UNL     1       8.151   8.063  17.271  0.00  0.00    +0.000 OA
BRANCH  19  20
ATOM     20  C   UNL     1       7.620   9.343  17.623  0.00  0.00    +0.000 C 
BRANCH  20  21
ATOM     21  C   UNL     1       8.698  10.129  18.330  0.00  0.00    +0.000 A 
ATOM     22  C   UNL     1       8.976   9.907  19.685  0.00  0.00    +0.000 A 
ATOM     23  C   UNL     1       9.953  10.658  20.341  0.00  0.00    +0.000 A 
ATOM     24  C   UNL     1      10.667  11.638  19.650  0.00  0.00    +0.000 A 
ATOM     25  C   UNL     1      10.413  11.874  18.291  0.00  0.00    +0.000 A 
ATOM     26  C   UNL     1       9.430  11.110  17.642  0.00  0.00    +0.000 A 
BRANCH  25  27
ATOM     27  C   UNL     1      11.171  12.932  17.527  0.00  0.00    +0.000 C 
ATOM     28  F   UNL     1      12.196  12.439  16.778  0.00  0.00    +0.000 F 
ATOM     29  F   UNL     1      10.374  13.618  16.661  0.00  0.00    +0.000 F 
ATOM     30  F   UNL     1      11.726  13.869  18.346  0.00  0.00    +0.000 F 
ENDBRANCH  25  27
ENDBRANCH  20  21
ENDBRANCH  19  20
ENDBRANCH  18  19
ENDBRANCH   1  18
TORSDOF 7
ENDMDL
MODEL 3
REMARK VINA RESULT:      -7.6      4.775      9.695
REMARK  Name = 
REMARK  7 active torsions:
REMARK  status: ('A' for Active; 'I' for Inactive)
REMARK    1  A    between atoms: C_2  and  O_3
REMARK    2  A    between atoms: C_2  and  C_15
REMARK    3  A    between atoms: O_3  and  C_4
REMARK    4  A    between atoms: C_4  and  C_5
REMARK    5  A    between atoms: C_9  and  C_10
REMARK    6  A    between atoms: C_17  and  S_18
REMARK    7  A    between atoms: S_18  and  N_21
REMARK                            x       y       z     vdW  Elec       q    Type
REMARK                         _______ _______ _______ _____ _____    ______ ____
ROOT
ATOM      1  C   UNL     1       1.988   8.298  18.773  0.00  0.00    +0.000 A 
ATOM      2  C   UNL     1       2.813   7.369  18.122  0.00  0.00    +0.000 A 
ATOM      3  C   UNL     1       3.087   6.145  18.743  0.00  0.00    +0.000 A 
ATOM      4  C   UNL     1       2.625   5.878  20.038  0.00  0.00    +0.000 A 
ATOM      5  C   UNL     1       1.851   6.830  20.702  0.00  0.00    +0.000 A 
ATOM      6  C   UNL     1       1.523   8.026  20.062  0.00  0.00    +0.000 A 
ATOM      7  F   UNL     1       0.753   8.901  20.725  0.00  0.00    +0.000 F 
ENDROOT
BRANCH   3   8
ATOM      8  S   UNL     1       3.952   4.885  17.833  0.00  0.00    +0.000 S 
ATOM      9  O   UNL     1       4.701   4.110  18.795  0.00  0.00    +0.000 OA
ATOM     10  O   UNL     1       3.002   4.256  16.934  0.00  0.00    +0.000 OA
BRANCH   8  11
ATOM     11  N   UNL     1       5.050   5.775  16.881  0.00  0.00    +0.000 NA
ATOM     12  C   UNL     1       5.315   5.305  15.484  0.00  0.00    +0.000 C 
ATOM     13  C   UNL     1       6.359   4.182  15.429  0.00  0.00    +0.000 C 
ATOM     14  O   UNL     1       7.569   4.536  16.110  0.00  0.00    +0.000 OA
ATOM     15  C   UNL     1       7.322   4.908  17.472  0.00  0.00    +0.000 C 
ATOM     16  C   UNL     1       6.352   6.092  17.551  0.00  0.00    +0.000 C 
ENDBRANCH   8  11
ENDBRANCH   3   8
BRANCH   1  18
ATOM     17  O   UNL     1       2.397  10.313  17.580  0.00  0.00    +0.000 OA
ATOM     18  C   UNL     1       1.595   9.520  18.045  0.00  0.00    +0.000 C 
BRANCH  18  19
ATOM     19  O   UNL     1       0.253   9.534  17.888  0.00  0.00    +0.000 OA
BRANCH  19  20
ATOM     20  C   UNL     1      -0.459  10.627  18.475  0.00  0.00    +0.000 C 
BRANCH  20  21
ATOM     21  C   UNL     1      -1.825  10.705  17.835  0.00  0.00    +0.000 A 
ATOM     22  C   UNL     1      -2.042  10.208  16.545  0.00  0.00    +0.000 A 
ATOM     23  C   UNL     1      -3.299  10.311  15.947  0.00  0.00    +0.000 A 
ATOM     24  C   UNL     1      -4.356  10.909  16.634  0.00  0.00    +0.000 A 
ATOM     25  C   UNL     1      -4.167  11.407  17.931  0.00  0.00    +0.000 A 
ATOM     26  C   UNL     1      -2.898  11.295  18.522  0.00  0.00    +0.000 A 
BRANCH  25  27
ATOM     27  C   UNL     1      -5.296  12.061  18.690  0.00  0.00    +0.000 C 
ATOM     28  F   UNL     1      -6.311  12.497  17.895  0.00  0.00    +0.000 F 
ATOM     29  F   UNL     1      -5.868  11.220  19.596  0.00  0.00    +0.000 F 
ATOM     30  F   UNL     1      -4.885  13.149  19.399  0.00  0.00    +0.000 F 
ENDBRANCH  25  27
ENDBRANCH  20  21
ENDBRANCH  19  20
ENDBRANCH  18  19
ENDBRANCH   1  18
TORSDOF 7
ENDMDL
MODEL 4
REMARK VINA RESULT:      -7.6      1.462      2.074
REMARK  Name = 
REMARK  7 active torsions:
REMARK  status: ('A' for Active; 'I' for Inactive)
REMARK    1  A    between atoms: C_2  and  O_3
REMARK    2  A    between atoms: C_2  and  C_15
REMARK    3  A    between atoms: O_3  and  C_4
REMARK    4  A    between atoms: C_4  and  C_5
REMARK    5  A    between atoms: C_9  and  C_10
REMARK    6  A    between atoms: C_17  and  S_18
REMARK    7  A    between atoms: S_18  and  N_21
REMARK                            x       y       z     vdW  Elec       q    Type
REMARK                         _______ _______ _______ _____ _____    ______ ____
ROOT
ATOM      1  C   UNL     1       2.280   6.558  19.348  0.00  0.00    +0.000 A 
ATOM      2  C   UNL     1       1.748   7.428  20.310  0.00  0.00    +0.000 A 
ATOM      3  C   UNL     1       1.433   8.742  19.944  0.00  0.00    +0.000 A 
ATOM      4  C   UNL     1       1.729   9.220  18.662  0.00  0.00    +0.000 A 
ATOM      5  C   UNL     1       2.310   8.364  17.726  0.00  0.00    +0.000 A 
ATOM      6  C   UNL     1       2.568   7.036  18.066  0.00  0.00    +0.000 A 
ATOM      7  F   UNL     1       3.100   6.240  17.128  0.00  0.00    +0.000 F 
ENDROOT
BRANCH   3   8
ATOM      8  S   UNL     1       0.563   9.779  21.098  0.00  0.00    +0.000 S 
ATOM      9  O   UNL     1      -0.715   9.152  21.346  0.00  0.00    +0.000 OA
ATOM     10  O   UNL     1       1.472  10.094  22.184  0.00  0.00    +0.000 OA
BRANCH   8  11
ATOM     11  N   UNL     1       0.301  11.213  20.214  0.00  0.00    +0.000 NA
ATOM     12  C   UNL     1       0.921  12.478  20.721  0.00  0.00    +0.000 C 
ATOM     13  C   UNL     1       0.084  13.142  21.822  0.00  0.00    +0.000 C 
ATOM     14  O   UNL     1      -1.277  13.341  21.421  0.00  0.00    +0.000 OA
ATOM     15  C   UNL     1      -1.894  12.113  21.012  0.00  0.00    +0.000 C 
ATOM     16  C   UNL     1      -1.128  11.475  19.847  0.00  0.00    +0.000 C 
ENDBRANCH   8  11
ENDBRANCH   3   8
BRANCH   1  18
ATOM     17  O   UNL     1       1.602   4.293  19.596  0.00  0.00    +0.000 OA
ATOM     18  C   UNL     1       2.472   5.140  19.711  0.00  0.00    +0.000 C 
BRANCH  18  19
ATOM     19  O   UNL     1       3.762   4.939  20.059  0.00  0.00    +0.000 OA
BRANCH  19  20
ATOM     20  C   UNL     1       4.458   3.881  19.393  0.00  0.00    +0.000 C 
BRANCH  20  21
ATOM     21  C   UNL     1       5.256   4.476  18.257  0.00  0.00    +0.000 A 
ATOM     22  C   UNL     1       5.259   3.875  16.993  0.00  0.00    +0.000 A 
ATOM     23  C   UNL     1       6.023   4.411  15.954  0.00  0.00    +0.000 A 
ATOM     24  C   UNL     1       6.790   5.558  16.167  0.00  0.00    +0.000 A 
ATOM     25  C   UNL     1       6.797   6.183  17.423  0.00  0.00    +0.000 A 
ATOM     26  C   UNL     1       6.022   5.634  18.458  0.00  0.00    +0.000 A 
BRANCH  25  27
ATOM     27  C   UNL     1       7.623   7.421  17.675  0.00  0.00    +0.000 C 
ATOM     28  F   UNL     1       8.452   7.746  16.646  0.00  0.00    +0.000 F 
ATOM     29  F   UNL     1       6.853   8.522  17.895  0.00  0.00    +0.000 F 
ATOM     30  F   UNL     1       8.422   7.299  18.773  0.00  0.00    +0.000 F 
ENDBRANCH  25  27
ENDBRANCH  20  21
ENDBRANCH  19  20
ENDBRANCH  18  19
ENDBRANCH   1  18
TORSDOF 7
ENDMDL
MODEL 5
REMARK VINA RESULT:      -7.6      4.935     10.392
REMARK  Name = 
REMARK  7 active torsions:
REMARK  status: ('A' for Active; 'I' for Inactive)
REMARK    1  A    between atoms: C_2  and  O_3
REMARK    2  A    between atoms: C_2  and  C_15
REMARK    3  A    between atoms: O_3  and  C_4
REMARK    4  A    between atoms: C_4  and  C_5
REMARK    5  A    between atoms: C_9  and  C_10
REMARK    6  A    between atoms: C_17  and  S_18
REMARK    7  A    between atoms: S_18  and  N_21
REMARK                            x       y       z     vdW  Elec       q    Type
REMARK                         _______ _______ _______ _____ _____    ______ ____
ROOT
ATOM      1  C   UNL     1       1.213   8.980  20.522  0.00  0.00    +0.000 A 
ATOM      2  C   UNL     1       1.657   7.652  20.596  0.00  0.00    +0.000 A 
ATOM      3  C   UNL     1       2.214   7.054  19.460  0.00  0.00    +0.000 A 
ATOM      4  C   UNL     1       2.249   7.732  18.235  0.00  0.00    +0.000 A 
ATOM      5  C   UNL     1       1.754   9.034  18.156  0.00  0.00    +0.000 A 
ATOM      6  C   UNL     1       1.254   9.657  19.300  0.00  0.00    +0.000 A 
ATOM      7  F   UNL     1       0.816  10.919  19.186  0.00  0.00    +0.000 F 
ENDROOT
BRANCH   3   8
ATOM      8  S   UNL     1       2.971   5.451  19.607  0.00  0.00    +0.000 S 
ATOM      9  O   UNL     1       4.387   5.631  19.386  0.00  0.00    +0.000 OA
ATOM     10  O   UNL     1       2.470   4.833  20.821  0.00  0.00    +0.000 OA
BRANCH   8  11
ATOM     11  N   UNL     1       2.322   4.590  18.286  0.00  0.00    +0.000 NA
ATOM     12  C   UNL     1       1.263   3.568  18.561  0.00  0.00    +0.000 C 
ATOM     13  C   UNL     1       1.846   2.220  19.002  0.00  0.00    +0.000 C 
ATOM     14  O   UNL     1       2.831   1.731  18.083  0.00  0.00    +0.000 OA
ATOM     15  C   UNL     1       3.888   2.680  17.883  0.00  0.00    +0.000 C 
ATOM     16  C   UNL     1       3.339   4.008  17.352  0.00  0.00    +0.000 C 
ENDBRANCH   8  11
ENDBRANCH   3   8
BRANCH   1  18
ATOM     17  O   UNL     1       1.402   9.636  22.799  0.00  0.00    +0.000 OA
ATOM     18  C   UNL     1       0.760   9.640  21.762  0.00  0.00    +0.000 C 
BRANCH  18  19
ATOM     19  O   UNL     1      -0.381  10.321  21.515  0.00  0.00    +0.000 OA
BRANCH  19  20
ATOM     20  C   UNL     1      -0.517  11.606  22.129  0.00  0.00    +0.000 C 
BRANCH  20  21
ATOM     21  C   UNL     1      -1.929  12.094  21.907  0.00  0.00    +0.000 A 
ATOM     22  C   UNL     1      -2.383  12.411  20.621  0.00  0.00    +0.000 A 
ATOM     23  C   UNL     1      -3.680  12.891  20.425  0.00  0.00    +0.000 A 
ATOM     24  C   UNL     1      -4.539  13.056  21.513  0.00  0.00    +0.000 A 
ATOM     25  C   UNL     1      -4.110  12.738  22.810  0.00  0.00    +0.000 A 
ATOM     26  C   UNL     1      -2.805  12.254  22.992  0.00  0.00    +0.000 A 
BRANCH  25  27
ATOM     27  C   UNL     1      -5.022  12.913  23.999  0.00  0.00    +0.000 C 
ATOM     28  F   UNL     1      -6.266  12.391  23.819  0.00  0.00    +0.000 F 
ATOM     29  F   UNL     1      -4.529  12.322  25.123  0.00  0.00    +0.000 F 
ATOM     30  F   UNL     1      -5.212  14.224  24.321  0.00  0.00    +0.000 F 
ENDBRANCH  25  27
ENDBRANCH  20  21
ENDBRANCH  19  20
ENDBRANCH  18  19
ENDBRANCH   1  18
TORSDOF 7
ENDMDL
MODEL 6
REMARK VINA RESULT:      -7.5      3.485      4.677
REMARK  Name = 
REMARK  7 active torsions:
REMARK  status: ('A' for Active; 'I' for Inactive)
REMARK    1  A    between atoms: C_2  and  O_3
REMARK    2  A    between atoms: C_2  and  C_15
REMARK    3  A    between atoms: O_3  and  C_4
REMARK    4  A    between atoms: C_4  and  C_5
REMARK    5  A    between atoms: C_9  and  C_10
REMARK    6  A    between atoms: C_17  and  S_18
REMARK    7  A    between atoms: S_18  and  N_21
REMARK                            x       y       z     vdW  Elec       q    Type
REMARK                         _______ _______ _______ _____ _____    ______ ____
ROOT
ATOM      1  C   UNL     1       1.164   9.343  19.631  0.00  0.00    +0.000 A 
ATOM      2  C   UNL     1       0.470  10.556  19.748  0.00  0.00    +0.000 A 
ATOM      3  C   UNL     1      -0.021  10.944  21.000  0.00  0.00    +0.000 A 
ATOM      4  C   UNL     1       0.093  10.098  22.110  0.00  0.00    +0.000 A 
ATOM      5  C   UNL     1       0.737   8.868  21.973  0.00  0.00    +0.000 A 
ATOM      6  C   UNL     1       1.283   8.504  20.742  0.00  0.00    +0.000 A 
ATOM      7  F   UNL     1       1.919   7.326  20.662  0.00  0.00    +0.000 F 
ENDROOT
BRANCH   3   8
ATOM      8  S   UNL     1      -0.711  12.572  21.193  0.00  0.00    +0.000 S 
ATOM      9  O   UNL     1      -0.035  13.186  22.313  0.00  0.00    +0.000 OA
ATOM     10  O   UNL     1      -0.731  13.204  19.887  0.00  0.00    +0.000 OA
BRANCH   8  11
ATOM     11  N   UNL     1      -2.327  12.262  21.639  0.00  0.00    +0.000 NA
ATOM     12  C   UNL     1      -3.416  12.888  20.826  0.00  0.00    +0.000 C 
ATOM     13  C   UNL     1      -3.703  14.336  21.244  0.00  0.00    +0.000 C 
ATOM     14  O   UNL     1      -3.954  14.454  22.650  0.00  0.00    +0.000 OA
ATOM     15  C   UNL     1      -2.871  13.925  23.428  0.00  0.00    +0.000 C 
ATOM     16  C   UNL     1      -2.626  12.449  23.096  0.00  0.00    +0.000 C 
ENDBRANCH   8  11
ENDBRANCH   3   8
BRANCH   1  18
ATOM     17  O   UNL     1       2.189   9.861  17.549  0.00  0.00    +0.000 OA
ATOM     18  C   UNL     1       1.797   9.017  18.338  0.00  0.00    +0.000 C 
BRANCH  18  19
ATOM     19  O   UNL     1       1.965   7.679  18.248  0.00  0.00    +0.000 OA
BRANCH  19  20
ATOM     20  C   UNL     1       3.245   7.213  17.809  0.00  0.00    +0.000 C 
BRANCH  20  21
ATOM     21  C   UNL     1       3.233   5.703  17.822  0.00  0.00    +0.000 A 
ATOM     22  C   UNL     1       4.179   4.973  17.093  0.00  0.00    +0.000 A 
ATOM     23  C   UNL     1       4.144   3.577  17.084  0.00  0.00    +0.000 A 
ATOM     24  C   UNL     1       3.164   2.895  17.806  0.00  0.00    +0.000 A 
ATOM     25  C   UNL     1       2.210   3.603  18.551  0.00  0.00    +0.000 A 
ATOM     26  C   UNL     1       2.258   5.007  18.554  0.00  0.00    +0.000 A 
BRANCH  25  27
ATOM     27  C   UNL     1       1.140   2.884  19.336  0.00  0.00    +0.000 C 
ATOM     28  F   UNL     1       0.235   2.229  18.557  0.00  0.00    +0.000 F 
ATOM     29  F   UNL     1       1.656   1.946  20.177  0.00  0.00    +0.000 F 
ATOM     30  F   UNL     1       0.414   3.730  20.120  0.00  0.00    +0.000 F 
ENDBRANCH  25  27
ENDBRANCH  20  21
ENDBRANCH  19  20
ENDBRANCH  18  19
ENDBRANCH   1  18
TORSDOF 7
ENDMDL
MODEL 7
REMARK VINA RESULT:      -7.5      3.509      5.221
REMARK  Name = 
REMARK  7 active torsions:
REMARK  status: ('A' for Active; 'I' for Inactive)
REMARK    1  A    between atoms: C_2  and  O_3
REMARK    2  A    between atoms: C_2  and  C_15
REMARK    3  A    between atoms: O_3  and  C_4
REMARK    4  A    between atoms: C_4  and  C_5
REMARK    5  A    between atoms: C_9  and  C_10
REMARK    6  A    between atoms: C_17  and  S_18
REMARK    7  A    between atoms: S_18  and  N_21
REMARK                            x       y       z     vdW  Elec       q    Type
REMARK                         _______ _______ _______ _____ _____    ______ ____
ROOT
ATOM      1  C   UNL     1       0.275   9.781  20.572  0.00  0.00    +0.000 A 
ATOM      2  C   UNL     1      -0.523  10.921  20.742  0.00  0.00    +0.000 A 
ATOM      3  C   UNL     1      -1.003  11.236  22.019  0.00  0.00    +0.000 A 
ATOM      4  C   UNL     1      -0.774  10.379  23.103  0.00  0.00    +0.000 A 
ATOM      5  C   UNL     1      -0.026   9.217  22.914  0.00  0.00    +0.000 A 
ATOM      6  C   UNL     1       0.508   8.932  21.658  0.00  0.00    +0.000 A 
ATOM      7  F   UNL     1       1.245   7.819  21.528  0.00  0.00    +0.000 F 
ENDROOT
BRANCH   3   8
ATOM      8  S   UNL     1      -1.831  12.789  22.276  0.00  0.00    +0.000 S 
ATOM      9  O   UNL     1      -1.216  13.409  23.426  0.00  0.00    +0.000 OA
ATOM     10  O   UNL     1      -1.901  13.472  20.997  0.00  0.00    +0.000 OA
BRANCH   8  11
ATOM     11  N   UNL     1      -3.416  12.321  22.695  0.00  0.00    +0.000 NA
ATOM     12  C   UNL     1      -4.524  12.648  21.742  0.00  0.00    +0.000 C 
ATOM     13  C   UNL     1      -5.032  14.086  21.901  0.00  0.00    +0.000 C 
ATOM     14  O   UNL     1      -5.390  14.387  23.256  0.00  0.00    +0.000 OA
ATOM     15  C   UNL     1      -4.301  14.150  24.158  0.00  0.00    +0.000 C 
ATOM     16  C   UNL     1      -3.835  12.691  24.086  0.00  0.00    +0.000 C 
ENDBRANCH   8  11
ENDBRANCH   3   8
BRANCH   1  18
ATOM     17  O   UNL     1       0.711  10.267  18.287  0.00  0.00    +0.000 OA
ATOM     18  C   UNL     1       0.890   9.543  19.252  0.00  0.00    +0.000 C 
BRANCH  18  19
ATOM     19  O   UNL     1       1.742   8.498  19.337  0.00  0.00    +0.000 OA
BRANCH  19  20
ATOM     20  C   UNL     1       2.557   8.228  18.193  0.00  0.00    +0.000 C 
BRANCH  20  21
ATOM     21  C   UNL     1       2.853   6.748  18.156  0.00  0.00    +0.000 A 
ATOM     22  C   UNL     1       3.949   6.253  17.438  0.00  0.00    +0.000 A 
ATOM     23  C   UNL     1       4.199   4.881  17.382  0.00  0.00    +0.000 A 
ATOM     24  C   UNL     1       3.359   3.986  18.046  0.00  0.00    +0.000 A 
ATOM     25  C   UNL     1       2.259   4.457  18.778  0.00  0.00    +0.000 A 
ATOM     26  C   UNL     1       2.020   5.840  18.829  0.00  0.00    +0.000 A 
BRANCH  25  27
ATOM     27  C   UNL     1       1.336   3.506  19.501  0.00  0.00    +0.000 C 
ATOM     28  F   UNL     1       1.986   2.575  20.252  0.00  0.00    +0.000 F 
ATOM     29  F   UNL     1       0.492   4.150  20.354  0.00  0.00    +0.000 F 
ATOM     30  F   UNL     1       0.540   2.804  18.646  0.00  0.00    +0.000 F 
ENDBRANCH  25  27
ENDBRANCH  20  21
ENDBRANCH  19  20
ENDBRANCH  18  19
ENDBRANCH   1  18
TORSDOF 7
ENDMDL
MODEL 8
REMARK VINA RESULT:      -7.4      3.312      4.877
REMARK  Name = 
REMARK  7 active torsions:
REMARK  status: ('A' for Active; 'I' for Inactive)
REMARK    1  A    between atoms: C_2  and  O_3
REMARK    2  A    between atoms: C_2  and  C_15
REMARK    3  A    between atoms: O_3  and  C_4
REMARK    4  A    between atoms: C_4  and  C_5
REMARK    5  A    between atoms: C_9  and  C_10
REMARK    6  A    between atoms: C_17  and  S_18
REMARK    7  A    between atoms: S_18  and  N_21
REMARK                            x       y       z     vdW  Elec       q    Type
REMARK                         _______ _______ _______ _____ _____    ______ ____
ROOT
ATOM      1  C   UNL     1       0.511   9.306  20.822  0.00  0.00    +0.000 A 
ATOM      2  C   UNL     1      -0.350   9.838  19.851  0.00  0.00    +0.000 A 
ATOM      3  C   UNL     1      -1.119  10.964  20.163  0.00  0.00    +0.000 A 
ATOM      4  C   UNL     1      -1.108  11.506  21.455  0.00  0.00    +0.000 A 
ATOM      5  C   UNL     1      -0.290  10.937  22.432  0.00  0.00    +0.000 A 
ATOM      6  C   UNL     1       0.525   9.853  22.108  0.00  0.00    +0.000 A 
ATOM      7  F   UNL     1       1.317   9.355  23.069  0.00  0.00    +0.000 F 
ENDROOT
BRANCH   3   8
ATOM      8  S   UNL     1      -2.045  11.766  18.874  0.00  0.00    +0.000 S 
ATOM      9  O   UNL     1      -3.045  12.585  19.520  0.00  0.00    +0.000 OA
ATOM     10  O   UNL     1      -1.097  12.335  17.934  0.00  0.00    +0.000 OA
BRANCH   8  11
ATOM     11  N   UNL     1      -2.829  10.470  18.092  0.00  0.00    +0.000 NA
ATOM     12  C   UNL     1      -2.267   9.987  16.791  0.00  0.00    +0.000 C 
ATOM     13  C   UNL     1      -2.732  10.833  15.599  0.00  0.00    +0.000 C 
ATOM     14  O   UNL     1      -4.159  10.958  15.548  0.00  0.00    +0.000 OA
ATOM     15  C   UNL     1      -4.688  11.498  16.767  0.00  0.00    +0.000 C 
ATOM     16  C   UNL     1      -4.315  10.616  17.965  0.00  0.00    +0.000 C 
ENDBRANCH   8  11
ENDBRANCH   3   8
BRANCH   1  18
ATOM     17  O   UNL     1       1.400   7.105  20.954  0.00  0.00    +0.000 OA
ATOM     18  C   UNL     1       1.418   8.208  20.433  0.00  0.00    +0.000 C 
BRANCH  18  19
ATOM     19  O   UNL     1       2.149   8.591  19.364  0.00  0.00    +0.000 OA
BRANCH  19  20
ATOM     20  C   UNL     1       1.837   7.977  18.110  0.00  0.00    +0.000 C 
BRANCH  20  21
ATOM     21  C   UNL     1       2.699   6.746  17.953  0.00  0.00    +0.000 A 
ATOM     22  C   UNL     1       4.050   6.857  17.604  0.00  0.00    +0.000 A 
ATOM     23  C   UNL     1       4.834   5.715  17.431  0.00  0.00    +0.000 A 
ATOM     24  C   UNL     1       4.276   4.447  17.609  0.00  0.00    +0.000 A 
ATOM     25  C   UNL     1       2.927   4.310  17.967  0.00  0.00    +0.000 A 
ATOM     26  C   UNL     1       2.151   5.467  18.141  0.00  0.00    +0.000 A 
BRANCH  25  27
ATOM     27  C   UNL     1       2.305   2.949  18.161  0.00  0.00    +0.000 C 
ATOM     28  F   UNL     1       2.403   2.140  17.070  0.00  0.00    +0.000 F 
ATOM     29  F   UNL     1       2.874   2.259  19.188  0.00  0.00    +0.000 F 
ATOM     30  F   UNL     1       0.975   3.022  18.451  0.00  0.00    +0.000 F 
ENDBRANCH  25  27
ENDBRANCH  20  21
ENDBRANCH  19  20
ENDBRANCH  18  19
ENDBRANCH   1  18
TORSDOF 7
ENDMDL
MODEL 9
REMARK VINA RESULT:      -7.4      1.039      1.284
REMARK  Name = 
REMARK  7 active torsions:
REMARK  status: ('A' for Active; 'I' for Inactive)
REMARK    1  A    between atoms: C_2  and  O_3
REMARK    2  A    between atoms: C_2  and  C_15
REMARK    3  A    between atoms: O_3  and  C_4
REMARK    4  A    between atoms: C_4  and  C_5
REMARK    5  A    between atoms: C_9  and  C_10
REMARK    6  A    between atoms: C_17  and  S_18
REMARK    7  A    between atoms: S_18  and  N_21
REMARK                            x       y       z     vdW  Elec       q    Type
REMARK                         _______ _______ _______ _____ _____    ______ ____
ROOT
ATOM      1  C   UNL     1       2.062   6.492  19.761  0.00  0.00    +0.000 A 
ATOM      2  C   UNL     1       1.868   7.491  20.725  0.00  0.00    +0.000 A 
ATOM      3  C   UNL     1       1.674   8.813  20.309  0.00  0.00    +0.000 A 
ATOM      4  C   UNL     1       1.763   9.161  18.956  0.00  0.00    +0.000 A 
ATOM      5  C   UNL     1       2.012   8.169  18.007  0.00  0.00    +0.000 A 
ATOM      6  C   UNL     1       2.144   6.841  18.410  0.00  0.00    +0.000 A 
ATOM      7  F   UNL     1       2.353   5.915  17.462  0.00  0.00    +0.000 F 
ENDROOT
BRANCH   3   8
ATOM      8  S   UNL     1       1.216  10.042  21.511  0.00  0.00    +0.000 S 
ATOM      9  O   UNL     1       1.673   9.565  22.796  0.00  0.00    +0.000 OA
ATOM     10  O   UNL     1       1.623  11.337  20.999  0.00  0.00    +0.000 OA
BRANCH   8  11
ATOM     11  N   UNL     1      -0.488   9.993  21.490  0.00  0.00    +0.000 NA
ATOM     12  C   UNL     1      -1.199  10.672  20.361  0.00  0.00    +0.000 C 
ATOM     13  C   UNL     1      -1.363  12.179  20.591  0.00  0.00    +0.000 C 
ATOM     14  O   UNL     1      -1.971  12.471  21.855  0.00  0.00    +0.000 OA
ATOM     15  C   UNL     1      -1.242  11.887  22.943  0.00  0.00    +0.000 C 
ATOM     16  C   UNL     1      -1.145  10.365  22.784  0.00  0.00    +0.000 C 
ENDBRANCH   8  11
ENDBRANCH   3   8
BRANCH   1  18
ATOM     17  O   UNL     1       1.142   4.365  20.291  0.00  0.00    +0.000 OA
ATOM     18  C   UNL     1       2.123   5.086  20.207  0.00  0.00    +0.000 C 
BRANCH  18  19
ATOM     19  O   UNL     1       3.414   4.726  20.377  0.00  0.00    +0.000 OA
BRANCH  19  20
ATOM     20  C   UNL     1       3.945   3.760  19.465  0.00  0.00    +0.000 C 
BRANCH  20  21
ATOM     21  C   UNL     1       5.070   4.404  18.690  0.00  0.00    +0.000 A 
ATOM     22  C   UNL     1       6.009   5.220  19.333  0.00  0.00    +0.000 A 
ATOM     23  C   UNL     1       7.028   5.837  18.607  0.00  0.00    +0.000 A 
ATOM     24  C   UNL     1       7.124   5.644  17.228  0.00  0.00    +0.000 A 
ATOM     25  C   UNL     1       6.202   4.824  16.561  0.00  0.00    +0.000 A 
ATOM     26  C   UNL     1       5.182   4.207  17.304  0.00  0.00    +0.000 A 
BRANCH  25  27
ATOM     27  C   UNL     1       6.285   4.605  15.071  0.00  0.00    +0.000 C 
ATOM     28  F   UNL     1       5.324   5.261  14.364  0.00  0.00    +0.000 F 
ATOM     29  F   UNL     1       7.475   5.017  14.551  0.00  0.00    +0.000 F 
ATOM     30  F   UNL     1       6.165   3.290  14.731  0.00  0.00    +0.000 F 
ENDBRANCH  25  27
ENDBRANCH  20  21
ENDBRANCH  19  20
ENDBRANCH  18  19
ENDBRANCH   1  18
TORSDOF 7
ENDMDL
