MODEL 1
REMARK VINA RESULT:      -8.0      0.000      0.000
REMARK  Name = 
REMARK  9 active torsions:
REMARK  status: ('A' for Active; 'I' for Inactive)
REMARK    1  A    between atoms: C_1  and  C_2
REMARK    2  A    between atoms: C_2  and  C_3
REMARK    3  A    between atoms: C_3  and  C_4
REMARK    4  A    between atoms: C_7  and  C_8
REMARK    5  A    between atoms: N_10  and  C_11
REMARK    6  A    between atoms: C_15  and  C_16
REMARK    7  A    between atoms: C_25  and  N_26
REMARK    8  A    between atoms: N_26  and  C_27
REMARK    9  A    between atoms: N_26  and  C_28
REMARK                            x       y       z     vdW  Elec       q    Type
REMARK                         _______ _______ _______ _____ _____    ______ ____
ROOT
ATOM      1  C   UNL     1      -0.068  10.247  18.561  0.00  0.00    +0.000 A 
ATOM      2  C   UNL     1      -1.347   9.837  18.164  0.00  0.00    +0.000 A 
ATOM      3  C   UNL     1      -2.419  10.697  18.260  0.00  0.00    +0.000 A 
ATOM      4  N   UNL     1      -3.701  10.488  17.842  0.00  0.00    +0.000 NA
ATOM      5  C   UNL     1      -4.366  11.554  18.110  0.00  0.00    +0.000 A 
ATOM      6  N   UNL     1      -3.544  12.503  18.758  0.00  0.00    +0.000 N 
ATOM      7  C   UNL     1      -2.259  11.957  18.815  0.00  0.00    +0.000 A 
ATOM      8  C   UNL     1      -0.977  12.413  19.227  0.00  0.00    +0.000 A 
ATOM      9  C   UNL     1       0.183  11.582  19.015  0.00  0.00    +0.000 A 
ATOM     10  H   UNL     1      -3.823  13.414  19.075  0.00  0.00    +0.000 HD
ENDROOT
BRANCH   5  11
ATOM     11  C   UNL     1      -5.803  11.756  17.670  0.00  0.00    +0.000 C 
ATOM     12  C   UNL     1      -6.742  10.801  18.412  0.00  0.00    +0.000 C 
ATOM     13  C   UNL     1      -6.961  11.204  19.872  0.00  0.00    +0.000 C 
ATOM     14  C   UNL     1      -7.528  12.615  19.981  0.00  0.00    +0.000 C 
ATOM     15  C   UNL     1      -6.677  13.639  19.234  0.00  0.00    +0.000 C 
ATOM     16  C   UNL     1      -6.357  13.199  17.799  0.00  0.00    +0.000 C 
ENDBRANCH   5  11
BRANCH   1  19
ATOM     17  C   UNL     1       1.478   8.479  19.275  0.00  0.00    +0.000 C 
ATOM     18  O   UNL     1       1.165   8.491  20.464  0.00  0.00    +0.000 OA
ATOM     19  N   UNL     1       0.960   9.313  18.296  0.00  0.00    +0.000 N 
ATOM     20  H   UNL     1       0.935   8.935  17.355  0.00  0.00    +0.000 HD
BRANCH  17  24
ATOM     21  C   UNL     1       4.648   5.942  17.808  0.00  0.00    +0.000 A 
ATOM     22  C   UNL     1       4.274   7.115  17.140  0.00  0.00    +0.000 A 
ATOM     23  C   UNL     1       3.263   7.927  17.655  0.00  0.00    +0.000 A 
ATOM     24  C   UNL     1       2.579   7.571  18.821  0.00  0.00    +0.000 A 
ATOM     25  C   UNL     1       2.892   6.355  19.443  0.00  0.00    +0.000 A 
ATOM     26  C   UNL     1       3.917   5.551  18.937  0.00  0.00    +0.000 A 
BRANCH  21  27
ATOM     27  C   UNL     1       5.840   5.116  17.376  0.00  0.00    +0.000 C 
BRANCH  27  29
ATOM     28  C   UNL     1       7.731   6.331  18.570  0.00  0.00    +0.000 C 
ATOM     29  C   UNL     1       7.146   5.907  17.231  0.00  0.00    +0.000 C 
ENDBRANCH  27  29
ENDBRANCH  21  27
ENDBRANCH  17  24
ENDBRANCH   1  19
BRANCH   9  30
ATOM     30  N   UNL     1       1.455  12.138  19.274  0.00  0.00    +0.000 N 
ATOM     31  C   UNL     1       2.368  12.608  18.230  0.00  0.00    +0.000 C 
ATOM     32  C   UNL     1       1.724  12.807  20.558  0.00  0.00    +0.000 C 
ENDBRANCH   9  30
TORSDOF 6
ENDMDL
MODEL 2
REMARK VINA RESULT:      -7.9      0.642      1.317
REMARK  Name = 
REMARK  9 active torsions:
REMARK  status: ('A' for Active; 'I' for Inactive)
REMARK    1  A    between atoms: C_1  and  C_2
REMARK    2  A    between atoms: C_2  and  C_3
REMARK    3  A    between atoms: C_3  and  C_4
REMARK    4  A    between atoms: C_7  and  C_8
REMARK    5  A    between atoms: N_10  and  C_11
REMARK    6  A    between atoms: C_15  and  C_16
REMARK    7  A    between atoms: C_25  and  N_26
REMARK    8  A    between atoms: N_26  and  C_27
REMARK    9  A    between atoms: N_26  and  C_28
REMARK                            x       y       z     vdW  Elec       q    Type
REMARK                         _______ _______ _______ _____ _____    ______ ____
ROOT
ATOM      1  C   UNL     1      -0.099  10.225  18.469  0.00  0.00    +0.000 A 
ATOM      2  C   UNL     1      -1.388   9.821  18.099  0.00  0.00    +0.000 A 
ATOM      3  C   UNL     1      -2.457  10.680  18.230  0.00  0.00    +0.000 A 
ATOM      4  N   UNL     1      -3.749  10.476  17.840  0.00  0.00    +0.000 NA
ATOM      5  C   UNL     1      -4.406  11.540  18.136  0.00  0.00    +0.000 A 
ATOM      6  N   UNL     1      -3.568  12.481  18.773  0.00  0.00    +0.000 N 
ATOM      7  C   UNL     1      -2.283  11.934  18.794  0.00  0.00    +0.000 A 
ATOM      8  C   UNL     1      -0.990  12.385  19.180  0.00  0.00    +0.000 A 
ATOM      9  C   UNL     1       0.163  11.555  18.931  0.00  0.00    +0.000 A 
ATOM     10  H   UNL     1      -3.838  13.389  19.107  0.00  0.00    +0.000 HD
ENDROOT
BRANCH   5  11
ATOM     11  C   UNL     1      -5.853  11.747  17.733  0.00  0.00    +0.000 C 
ATOM     12  C   UNL     1      -6.772  10.770  18.471  0.00  0.00    +0.000 C 
ATOM     13  C   UNL     1      -6.960  11.135  19.945  0.00  0.00    +0.000 C 
ATOM     14  C   UNL     1      -7.530  12.541  20.102  0.00  0.00    +0.000 C 
ATOM     15  C   UNL     1      -6.698  13.587  19.362  0.00  0.00    +0.000 C 
ATOM     16  C   UNL     1      -6.409  13.184  17.910  0.00  0.00    +0.000 C 
ENDBRANCH   5  11
BRANCH   1  19
ATOM     17  C   UNL     1       1.511   8.499  19.140  0.00  0.00    +0.000 C 
ATOM     18  O   UNL     1       1.275   8.548  20.345  0.00  0.00    +0.000 OA
ATOM     19  N   UNL     1       0.921   9.293  18.169  0.00  0.00    +0.000 N 
ATOM     20  H   UNL     1       0.840   8.884  17.244  0.00  0.00    +0.000 HD
BRANCH  17  24
ATOM     21  C   UNL     1       4.633   5.798  17.877  0.00  0.00    +0.000 A 
ATOM     22  C   UNL     1       3.898   5.578  19.047  0.00  0.00    +0.000 A 
ATOM     23  C   UNL     1       2.877   6.456  19.415  0.00  0.00    +0.000 A 
ATOM     24  C   UNL     1       2.593   7.588  18.646  0.00  0.00    +0.000 A 
ATOM     25  C   UNL     1       3.384   7.858  17.521  0.00  0.00    +0.000 A 
ATOM     26  C   UNL     1       4.395   6.968  17.145  0.00  0.00    +0.000 A 
BRANCH  21  27
ATOM     27  C   UNL     1       5.638   4.793  17.357  0.00  0.00    +0.000 C 
BRANCH  27  29
ATOM     28  C   UNL     1       6.101   4.433  14.880  0.00  0.00    +0.000 C 
ATOM     29  C   UNL     1       5.217   4.079  16.066  0.00  0.00    +0.000 C 
ENDBRANCH  27  29
ENDBRANCH  21  27
ENDBRANCH  17  24
ENDBRANCH   1  19
BRANCH   9  30
ATOM     30  N   UNL     1       1.442  12.107  19.166  0.00  0.00    +0.000 N 
ATOM     31  C   UNL     1       2.248  12.766  18.135  0.00  0.00    +0.000 C 
ATOM     32  C   UNL     1       1.811  12.577  20.511  0.00  0.00    +0.000 C 
ENDBRANCH   9  30
TORSDOF 6
ENDMDL
MODEL 3
REMARK VINA RESULT:      -7.8      0.565      1.169
REMARK  Name = 
REMARK  9 active torsions:
REMARK  status: ('A' for Active; 'I' for Inactive)
REMARK    1  A    between atoms: C_1  and  C_2
REMARK    2  A    between atoms: C_2  and  C_3
REMARK    3  A    between atoms: C_3  and  C_4
REMARK    4  A    between atoms: C_7  and  C_8
REMARK    5  A    between atoms: N_10  and  C_11
REMARK    6  A    between atoms: C_15  and  C_16
REMARK    7  A    between atoms: C_25  and  N_26
REMARK    8  A    between atoms: N_26  and  C_27
REMARK    9  A    between atoms: N_26  and  C_28
REMARK                            x       y       z     vdW  Elec       q    Type
REMARK                         _______ _______ _______ _____ _____    ______ ____
ROOT
ATOM      1  C   UNL     1      -0.101  10.502  18.771  0.00  0.00    +0.000 A 
ATOM      2  C   UNL     1      -1.422  10.148  18.470  0.00  0.00    +0.000 A 
ATOM      3  C   UNL     1      -2.452  11.039  18.679  0.00  0.00    +0.000 A 
ATOM      4  N   UNL     1      -3.770  10.885  18.364  0.00  0.00    +0.000 NA
ATOM      5  C   UNL     1      -4.372  11.964  18.716  0.00  0.00    +0.000 A 
ATOM      6  N   UNL     1      -3.466  12.866  19.318  0.00  0.00    +0.000 N 
ATOM      7  C   UNL     1      -2.201  12.276  19.253  0.00  0.00    +0.000 A 
ATOM      8  C   UNL     1      -0.874  12.677  19.569  0.00  0.00    +0.000 A 
ATOM      9  C   UNL     1       0.234  11.813  19.238  0.00  0.00    +0.000 A 
ATOM     10  H   UNL     1      -3.686  13.775  19.682  0.00  0.00    +0.000 HD
ENDROOT
BRANCH   5  11
ATOM     11  C   UNL     1      -5.832  12.227  18.403  0.00  0.00    +0.000 C 
ATOM     12  C   UNL     1      -6.594  10.914  18.202  0.00  0.00    +0.000 C 
ATOM     13  C   UNL     1      -6.841  10.168  19.514  0.00  0.00    +0.000 C 
ATOM     14  C   UNL     1      -7.619  11.026  20.505  0.00  0.00    +0.000 C 
ATOM     15  C   UNL     1      -6.955  12.380  20.742  0.00  0.00    +0.000 C 
ATOM     16  C   UNL     1      -6.603  13.096  19.431  0.00  0.00    +0.000 C 
ENDBRANCH   5  11
BRANCH   1  19
ATOM     17  C   UNL     1       1.421   8.651  19.301  0.00  0.00    +0.000 C 
ATOM     18  O   UNL     1       1.194   8.625  20.508  0.00  0.00    +0.000 OA
ATOM     19  N   UNL     1       0.868   9.543  18.394  0.00  0.00    +0.000 N 
ATOM     20  H   UNL     1       0.760   9.206  17.444  0.00  0.00    +0.000 HD
BRANCH  17  24
ATOM     21  C   UNL     1       4.399   5.897  17.821  0.00  0.00    +0.000 A 
ATOM     22  C   UNL     1       3.716   5.669  19.022  0.00  0.00    +0.000 A 
ATOM     23  C   UNL     1       2.740   6.565  19.460  0.00  0.00    +0.000 A 
ATOM     24  C   UNL     1       2.450   7.723  18.732  0.00  0.00    +0.000 A 
ATOM     25  C   UNL     1       3.193   7.998  17.576  0.00  0.00    +0.000 A 
ATOM     26  C   UNL     1       4.158   7.091  17.129  0.00  0.00    +0.000 A 
BRANCH  21  27
ATOM     27  C   UNL     1       5.348   4.878  17.228  0.00  0.00    +0.000 C 
BRANCH  27  29
ATOM     28  C   UNL     1       7.421   5.937  18.257  0.00  0.00    +0.000 C 
ATOM     29  C   UNL     1       6.631   4.655  18.038  0.00  0.00    +0.000 C 
ENDBRANCH  27  29
ENDBRANCH  21  27
ENDBRANCH  17  24
ENDBRANCH   1  19
BRANCH   9  30
ATOM     30  N   UNL     1       1.542  12.319  19.405  0.00  0.00    +0.000 N 
ATOM     31  C   UNL     1       2.419  12.697  18.295  0.00  0.00    +0.000 C 
ATOM     32  C   UNL     1       1.909  13.032  20.640  0.00  0.00    +0.000 C 
ENDBRANCH   9  30
TORSDOF 6
ENDMDL
MODEL 4
REMARK VINA RESULT:      -7.5      0.590      1.131
REMARK  Name = 
REMARK  9 active torsions:
REMARK  status: ('A' for Active; 'I' for Inactive)
REMARK    1  A    between atoms: C_1  and  C_2
REMARK    2  A    between atoms: C_2  and  C_3
REMARK    3  A    between atoms: C_3  and  C_4
REMARK    4  A    between atoms: C_7  and  C_8
REMARK    5  A    between atoms: N_10  and  C_11
REMARK    6  A    between atoms: C_15  and  C_16
REMARK    7  A    between atoms: C_25  and  N_26
REMARK    8  A    between atoms: N_26  and  C_27
REMARK    9  A    between atoms: N_26  and  C_28
REMARK                            x       y       z     vdW  Elec       q    Type
REMARK                         _______ _______ _______ _____ _____    ______ ____
ROOT
ATOM      1  C   UNL     1      -0.200  10.273  18.534  0.00  0.00    +0.000 A 
ATOM      2  C   UNL     1      -1.482   9.845  18.167  0.00  0.00    +0.000 A 
ATOM      3  C   UNL     1      -2.558  10.702  18.252  0.00  0.00    +0.000 A 
ATOM      4  N   UNL     1      -3.845  10.474  17.857  0.00  0.00    +0.000 NA
ATOM      5  C   UNL     1      -4.511  11.544  18.103  0.00  0.00    +0.000 A 
ATOM      6  N   UNL     1      -3.685  12.516  18.711  0.00  0.00    +0.000 N 
ATOM      7  C   UNL     1      -2.397  11.979  18.766  0.00  0.00    +0.000 A 
ATOM      8  C   UNL     1      -1.111  12.453  19.147  0.00  0.00    +0.000 A 
ATOM      9  C   UNL     1       0.049  11.621  18.943  0.00  0.00    +0.000 A 
ATOM     10  H   UNL     1      -3.965  13.435  19.004  0.00  0.00    +0.000 HD
ENDROOT
BRANCH   5  11
ATOM     11  C   UNL     1      -5.955  11.726  17.678  0.00  0.00    +0.000 C 
ATOM     12  C   UNL     1      -6.885  10.828  18.498  0.00  0.00    +0.000 C 
ATOM     13  C   UNL     1      -7.074  11.327  19.932  0.00  0.00    +0.000 C 
ATOM     14  C   UNL     1      -7.632  12.746  19.958  0.00  0.00    +0.000 C 
ATOM     15  C   UNL     1      -6.790  13.713  19.129  0.00  0.00    +0.000 C 
ATOM     16  C   UNL     1      -6.500  13.177  17.721  0.00  0.00    +0.000 C 
ENDBRANCH   5  11
BRANCH   1  19
ATOM     17  C   UNL     1       1.383   8.554  19.283  0.00  0.00    +0.000 C 
ATOM     18  O   UNL     1       1.104   8.618  20.478  0.00  0.00    +0.000 OA
ATOM     19  N   UNL     1       0.829   9.336  18.282  0.00  0.00    +0.000 N 
ATOM     20  H   UNL     1       0.780   8.915  17.360  0.00  0.00    +0.000 HD
BRANCH  17  24
ATOM     21  C   UNL     1       4.537   5.981  17.844  0.00  0.00    +0.000 A 
ATOM     22  C   UNL     1       4.148   7.130  17.146  0.00  0.00    +0.000 A 
ATOM     23  C   UNL     1       3.142   7.956  17.651  0.00  0.00    +0.000 A 
ATOM     24  C   UNL     1       2.480   7.635  18.840  0.00  0.00    +0.000 A 
ATOM     25  C   UNL     1       2.808   6.440  19.495  0.00  0.00    +0.000 A 
ATOM     26  C   UNL     1       3.827   5.624  18.997  0.00  0.00    +0.000 A 
BRANCH  21  27
ATOM     27  C   UNL     1       5.725   5.145  17.419  0.00  0.00    +0.000 C 
BRANCH  27  29
ATOM     28  C   UNL     1       6.310   4.125  15.162  0.00  0.00    +0.000 C 
ATOM     29  C   UNL     1       5.404   4.061  16.382  0.00  0.00    +0.000 C 
ENDBRANCH  27  29
ENDBRANCH  21  27
ENDBRANCH  17  24
ENDBRANCH   1  19
BRANCH   9  30
ATOM     30  N   UNL     1       1.322  12.191  19.168  0.00  0.00    +0.000 N 
ATOM     31  C   UNL     1       1.885  12.430  20.499  0.00  0.00    +0.000 C 
ATOM     32  C   UNL     1       2.384  12.057  18.157  0.00  0.00    +0.000 C 
ENDBRANCH   9  30
TORSDOF 6
ENDMDL
MODEL 5
REMARK VINA RESULT:      -7.5      0.985      1.732
REMARK  Name = 
REMARK  9 active torsions:
REMARK  status: ('A' for Active; 'I' for Inactive)
REMARK    1  A    between atoms: C_1  and  C_2
REMARK    2  A    between atoms: C_2  and  C_3
REMARK    3  A    between atoms: C_3  and  C_4
REMARK    4  A    between atoms: C_7  and  C_8
REMARK    5  A    between atoms: N_10  and  C_11
REMARK    6  A    between atoms: C_15  and  C_16
REMARK    7  A    between atoms: C_25  and  N_26
REMARK    8  A    between atoms: N_26  and  C_27
REMARK    9  A    between atoms: N_26  and  C_28
REMARK                            x       y       z     vdW  Elec       q    Type
REMARK                         _______ _______ _______ _____ _____    ______ ____
ROOT
ATOM      1  C   UNL     1      -0.192  10.652  18.918  0.00  0.00    +0.000 A 
ATOM      2  C   UNL     1      -1.525  10.291  18.688  0.00  0.00    +0.000 A 
ATOM      3  C   UNL     1      -2.542  11.199  18.892  0.00  0.00    +0.000 A 
ATOM      4  N   UNL     1      -3.873  11.037  18.636  0.00  0.00    +0.000 NA
ATOM      5  C   UNL     1      -4.455  12.137  18.956  0.00  0.00    +0.000 A 
ATOM      6  N   UNL     1      -3.522  13.062  19.475  0.00  0.00    +0.000 N 
ATOM      7  C   UNL     1      -2.264  12.461  19.391  0.00  0.00    +0.000 A 
ATOM      8  C   UNL     1      -0.923  12.869  19.634  0.00  0.00    +0.000 A 
ATOM      9  C   UNL     1       0.167  11.983  19.304  0.00  0.00    +0.000 A 
ATOM     10  H   UNL     1      -3.723  13.991  19.801  0.00  0.00    +0.000 HD
ENDROOT
BRANCH   5  11
ATOM     11  C   UNL     1      -5.925  12.393  18.687  0.00  0.00    +0.000 C 
ATOM     12  C   UNL     1      -6.627  11.116  18.218  0.00  0.00    +0.000 C 
ATOM     13  C   UNL     1      -6.841  10.110  19.352  0.00  0.00    +0.000 C 
ATOM     14  C   UNL     1      -7.659  10.716  20.487  0.00  0.00    +0.000 C 
ATOM     15  C   UNL     1      -7.056  12.024  20.998  0.00  0.00    +0.000 C 
ATOM     16  C   UNL     1      -6.735  13.003  19.861  0.00  0.00    +0.000 C 
ENDBRANCH   5  11
BRANCH   1  19
ATOM     17  C   UNL     1       1.289   8.774  19.470  0.00  0.00    +0.000 C 
ATOM     18  O   UNL     1       1.059   8.764  20.677  0.00  0.00    +0.000 OA
ATOM     19  N   UNL     1       0.757   9.668  18.554  0.00  0.00    +0.000 N 
ATOM     20  H   UNL     1       0.644   9.324  17.606  0.00  0.00    +0.000 HD
BRANCH  17  24
ATOM     21  C   UNL     1       4.213   5.944  18.026  0.00  0.00    +0.000 A 
ATOM     22  C   UNL     1       3.539   5.754  19.238  0.00  0.00    +0.000 A 
ATOM     23  C   UNL     1       2.580   6.674  19.665  0.00  0.00    +0.000 A 
ATOM     24  C   UNL     1       2.299   7.818  18.914  0.00  0.00    +0.000 A 
ATOM     25  C   UNL     1       3.034   8.056  17.744  0.00  0.00    +0.000 A 
ATOM     26  C   UNL     1       3.981   7.125  17.309  0.00  0.00    +0.000 A 
BRANCH  21  27
ATOM     27  C   UNL     1       5.141   4.898  17.448  0.00  0.00    +0.000 C 
BRANCH  27  29
ATOM     28  C   UNL     1       3.824   2.721  17.498  0.00  0.00    +0.000 C 
ATOM     29  C   UNL     1       4.442   3.806  16.629  0.00  0.00    +0.000 C 
ENDBRANCH  27  29
ENDBRANCH  21  27
ENDBRANCH  17  24
ENDBRANCH   1  19
BRANCH   9  30
ATOM     30  N   UNL     1       1.483  12.487  19.395  0.00  0.00    +0.000 N 
ATOM     31  C   UNL     1       2.280  12.900  18.237  0.00  0.00    +0.000 C 
ATOM     32  C   UNL     1       1.935  13.165  20.621  0.00  0.00    +0.000 C 
ENDBRANCH   9  30
TORSDOF 6
ENDMDL
MODEL 6
REMARK VINA RESULT:      -7.4      3.667      9.503
REMARK  Name = 
REMARK  9 active torsions:
REMARK  status: ('A' for Active; 'I' for Inactive)
REMARK    1  A    between atoms: C_1  and  C_2
REMARK    2  A    between atoms: C_2  and  C_3
REMARK    3  A    between atoms: C_3  and  C_4
REMARK    4  A    between atoms: C_7  and  C_8
REMARK    5  A    between atoms: N_10  and  C_11
REMARK    6  A    between atoms: C_15  and  C_16
REMARK    7  A    between atoms: C_25  and  N_26
REMARK    8  A    between atoms: N_26  and  C_27
REMARK    9  A    between atoms: N_26  and  C_28
REMARK                            x       y       z     vdW  Elec       q    Type
REMARK                         _______ _______ _______ _____ _____    ______ ____
ROOT
ATOM      1  C   UNL     1       0.572  10.702  20.437  0.00  0.00    +0.000 A 
ATOM      2  C   UNL     1       0.780   9.398  20.903  0.00  0.00    +0.000 A 
ATOM      3  C   UNL     1       1.432   8.469  20.120  0.00  0.00    +0.000 A 
ATOM      4  N   UNL     1       1.788   7.195  20.454  0.00  0.00    +0.000 NA
ATOM      5  C   UNL     1       2.390   6.692  19.436  0.00  0.00    +0.000 A 
ATOM      6  N   UNL     1       2.419   7.616  18.368  0.00  0.00    +0.000 N 
ATOM      7  C   UNL     1       1.831   8.794  18.834  0.00  0.00    +0.000 A 
ATOM      8  C   UNL     1       1.641  10.108  18.323  0.00  0.00    +0.000 A 
ATOM      9  C   UNL     1       1.081  11.133  19.170  0.00  0.00    +0.000 A 
ATOM     10  H   UNL     1       2.826   7.466  17.463  0.00  0.00    +0.000 HD
ENDROOT
BRANCH   5  11
ATOM     11  C   UNL     1       3.056   5.330  19.469  0.00  0.00    +0.000 C 
ATOM     12  C   UNL     1       2.474   4.463  20.589  0.00  0.00    +0.000 C 
ATOM     13  C   UNL     1       1.069   3.949  20.268  0.00  0.00    +0.000 C 
ATOM     14  C   UNL     1       1.054   3.137  18.977  0.00  0.00    +0.000 C 
ATOM     15  C   UNL     1       1.656   3.909  17.804  0.00  0.00    +0.000 C 
ATOM     16  C   UNL     1       3.019   4.522  18.145  0.00  0.00    +0.000 C 
ENDBRANCH   5  11
BRANCH   1  19
ATOM     17  C   UNL     1      -1.341  11.924  21.369  0.00  0.00    +0.000 C 
ATOM     18  O   UNL     1      -2.160  11.567  20.526  0.00  0.00    +0.000 OA
ATOM     19  N   UNL     1       0.003  11.584  21.385  0.00  0.00    +0.000 N 
ATOM     20  H   UNL     1       0.443  11.540  22.297  0.00  0.00    +0.000 HD
BRANCH  17  24
ATOM     21  C   UNL     1      -2.391  14.755  24.455  0.00  0.00    +0.000 A 
ATOM     22  C   UNL     1      -1.136  14.772  23.836  0.00  0.00    +0.000 A 
ATOM     23  C   UNL     1      -0.836  13.860  22.823  0.00  0.00    +0.000 A 
ATOM     24  C   UNL     1      -1.764  12.891  22.432  0.00  0.00    +0.000 A 
ATOM     25  C   UNL     1      -2.989  12.816  23.109  0.00  0.00    +0.000 A 
ATOM     26  C   UNL     1      -3.294  13.741  24.112  0.00  0.00    +0.000 A 
BRANCH  21  27
ATOM     27  C   UNL     1      -2.816  15.820  25.442  0.00  0.00    +0.000 C 
BRANCH  27  29
ATOM     28  C   UNL     1      -3.775  17.444  23.733  0.00  0.00    +0.000 C 
ATOM     29  C   UNL     1      -4.030  16.649  25.004  0.00  0.00    +0.000 C 
ENDBRANCH  27  29
ENDBRANCH  21  27
ENDBRANCH  17  24
ENDBRANCH   1  19
BRANCH   9  30
ATOM     30  N   UNL     1       1.072  12.461  18.688  0.00  0.00    +0.000 N 
ATOM     31  C   UNL     1      -0.137  13.160  18.246  0.00  0.00    +0.000 C 
ATOM     32  C   UNL     1       2.111  13.412  19.116  0.00  0.00    +0.000 C 
ENDBRANCH   9  30
TORSDOF 6
ENDMDL
MODEL 7
REMARK VINA RESULT:      -7.4      3.507      9.565
REMARK  Name = 
REMARK  9 active torsions:
REMARK  status: ('A' for Active; 'I' for Inactive)
REMARK    1  A    between atoms: C_1  and  C_2
REMARK    2  A    between atoms: C_2  and  C_3
REMARK    3  A    between atoms: C_3  and  C_4
REMARK    4  A    between atoms: C_7  and  C_8
REMARK    5  A    between atoms: N_10  and  C_11
REMARK    6  A    between atoms: C_15  and  C_16
REMARK    7  A    between atoms: C_25  and  N_26
REMARK    8  A    between atoms: N_26  and  C_27
REMARK    9  A    between atoms: N_26  and  C_28
REMARK                            x       y       z     vdW  Elec       q    Type
REMARK                         _______ _______ _______ _____ _____    ______ ____
ROOT
ATOM      1  C   UNL     1       0.107  10.696  20.199  0.00  0.00    +0.000 A 
ATOM      2  C   UNL     1       0.287   9.420  20.748  0.00  0.00    +0.000 A 
ATOM      3  C   UNL     1       1.118   8.505  20.137  0.00  0.00    +0.000 A 
ATOM      4  N   UNL     1       1.466   7.263  20.582  0.00  0.00    +0.000 NA
ATOM      5  C   UNL     1       2.272   6.763  19.714  0.00  0.00    +0.000 A 
ATOM      6  N   UNL     1       2.456   7.655  18.635  0.00  0.00    +0.000 N 
ATOM      7  C   UNL     1       1.735   8.813  18.935  0.00  0.00    +0.000 A 
ATOM      8  C   UNL     1       1.581  10.099  18.347  0.00  0.00    +0.000 A 
ATOM      9  C   UNL     1       0.823  11.116  19.033  0.00  0.00    +0.000 A 
ATOM     10  H   UNL     1       3.033   7.501  17.827  0.00  0.00    +0.000 HD
ENDROOT
BRANCH   5  11
ATOM     11  C   UNL     1       2.984   5.442  19.925  0.00  0.00    +0.000 C 
ATOM     12  C   UNL     1       2.210   4.551  20.900  0.00  0.00    +0.000 C 
ATOM     13  C   UNL     1       0.945   3.956  20.279  0.00  0.00    +0.000 C 
ATOM     14  C   UNL     1       1.267   3.136  19.035  0.00  0.00    +0.000 C 
ATOM     15  C   UNL     1       2.078   3.932  18.014  0.00  0.00    +0.000 C 
ATOM     16  C   UNL     1       3.293   4.624  18.644  0.00  0.00    +0.000 C 
ENDBRANCH   5  11
BRANCH   1  19
ATOM     17  C   UNL     1      -0.678  11.518  22.374  0.00  0.00    +0.000 C 
ATOM     18  O   UNL     1      -0.081  10.692  23.060  0.00  0.00    +0.000 OA
ATOM     19  N   UNL     1      -0.672  11.574  20.989  0.00  0.00    +0.000 N 
ATOM     20  H   UNL     1      -0.794  12.492  20.577  0.00  0.00    +0.000 HD
BRANCH  17  24
ATOM     21  C   UNL     1      -3.139  14.463  24.353  0.00  0.00    +0.000 A 
ATOM     22  C   UNL     1      -1.808  14.726  24.009  0.00  0.00    +0.000 A 
ATOM     23  C   UNL     1      -1.046  13.762  23.346  0.00  0.00    +0.000 A 
ATOM     24  C   UNL     1      -1.582  12.506  23.046  0.00  0.00    +0.000 A 
ATOM     25  C   UNL     1      -2.885  12.209  23.466  0.00  0.00    +0.000 A 
ATOM     26  C   UNL     1      -3.653  13.182  24.114  0.00  0.00    +0.000 A 
BRANCH  21  27
ATOM     27  C   UNL     1      -4.047  15.528  24.927  0.00  0.00    +0.000 C 
BRANCH  27  29
ATOM     28  C   UNL     1      -6.358  15.736  23.881  0.00  0.00    +0.000 C 
ATOM     29  C   UNL     1      -4.924  16.244  23.893  0.00  0.00    +0.000 C 
ENDBRANCH  27  29
ENDBRANCH  21  27
ENDBRANCH  17  24
ENDBRANCH   1  19
BRANCH   9  30
ATOM     30  N   UNL     1       0.841  12.426  18.506  0.00  0.00    +0.000 N 
ATOM     31  C   UNL     1      -0.365  13.198  18.197  0.00  0.00    +0.000 C 
ATOM     32  C   UNL     1       1.990  13.312  18.758  0.00  0.00    +0.000 C 
ENDBRANCH   9  30
TORSDOF 6
ENDMDL
MODEL 8
REMARK VINA RESULT:      -7.3      0.811      1.639
REMARK  Name = 
REMARK  9 active torsions:
REMARK  status: ('A' for Active; 'I' for Inactive)
REMARK    1  A    between atoms: C_1  and  C_2
REMARK    2  A    between atoms: C_2  and  C_3
REMARK    3  A    between atoms: C_3  and  C_4
REMARK    4  A    between atoms: C_7  and  C_8
REMARK    5  A    between atoms: N_10  and  C_11
REMARK    6  A    between atoms: C_15  and  C_16
REMARK    7  A    between atoms: C_25  and  N_26
REMARK    8  A    between atoms: N_26  and  C_27
REMARK    9  A    between atoms: N_26  and  C_28
REMARK                            x       y       z     vdW  Elec       q    Type
REMARK                         _______ _______ _______ _____ _____    ______ ____
ROOT
ATOM      1  C   UNL     1      -0.433  10.364  18.544  0.00  0.00    +0.000 A 
ATOM      2  C   UNL     1      -1.712   9.951  18.152  0.00  0.00    +0.000 A 
ATOM      3  C   UNL     1      -2.783  10.814  18.233  0.00  0.00    +0.000 A 
ATOM      4  N   UNL     1      -4.065  10.600  17.816  0.00  0.00    +0.000 NA
ATOM      5  C   UNL     1      -4.728  11.672  18.066  0.00  0.00    +0.000 A 
ATOM      6  N   UNL     1      -3.905  12.630  18.699  0.00  0.00    +0.000 N 
ATOM      7  C   UNL     1      -2.621  12.083  18.767  0.00  0.00    +0.000 A 
ATOM      8  C   UNL     1      -1.338  12.543  19.174  0.00  0.00    +0.000 A 
ATOM      9  C   UNL     1      -0.180  11.705  18.976  0.00  0.00    +0.000 A 
ATOM     10  H   UNL     1      -4.182  13.547  19.001  0.00  0.00    +0.000 HD
ENDROOT
BRANCH   5  11
ATOM     11  C   UNL     1      -6.164  11.870  17.621  0.00  0.00    +0.000 C 
ATOM     12  C   UNL     1      -7.140  11.293  18.650  0.00  0.00    +0.000 C 
ATOM     13  C   UNL     1      -7.242  12.150  19.913  0.00  0.00    +0.000 C 
ATOM     14  C   UNL     1      -7.678  13.574  19.586  0.00  0.00    +0.000 C 
ATOM     15  C   UNL     1      -6.782  14.224  18.533  0.00  0.00    +0.000 C 
ATOM     16  C   UNL     1      -6.583  13.329  17.303  0.00  0.00    +0.000 C 
ENDBRANCH   5  11
BRANCH   1  19
ATOM     17  C   UNL     1       1.202   8.702  19.311  0.00  0.00    +0.000 C 
ATOM     18  O   UNL     1       0.979   8.830  20.512  0.00  0.00    +0.000 OA
ATOM     19  N   UNL     1       0.593   9.423  18.295  0.00  0.00    +0.000 N 
ATOM     20  H   UNL     1       0.506   8.952  17.401  0.00  0.00    +0.000 HD
BRANCH  17  24
ATOM     21  C   UNL     1       4.335   5.949  18.194  0.00  0.00    +0.000 A 
ATOM     22  C   UNL     1       3.609   5.797  19.381  0.00  0.00    +0.000 A 
ATOM     23  C   UNL     1       2.584   6.689  19.701  0.00  0.00    +0.000 A 
ATOM     24  C   UNL     1       2.287   7.769  18.866  0.00  0.00    +0.000 A 
ATOM     25  C   UNL     1       3.070   7.975  17.722  0.00  0.00    +0.000 A 
ATOM     26  C   UNL     1       4.084   7.071  17.394  0.00  0.00    +0.000 A 
BRANCH  21  27
ATOM     27  C   UNL     1       5.344   4.921  17.730  0.00  0.00    +0.000 C 
BRANCH  27  29
ATOM     28  C   UNL     1       3.822   2.901  17.451  0.00  0.00    +0.000 C 
ATOM     29  C   UNL     1       4.783   3.864  16.771  0.00  0.00    +0.000 C 
ENDBRANCH  27  29
ENDBRANCH  21  27
ENDBRANCH  17  24
ENDBRANCH   1  19
BRANCH   9  30
ATOM     30  N   UNL     1       1.093  12.263  19.228  0.00  0.00    +0.000 N 
ATOM     31  C   UNL     1       1.667  12.412  20.567  0.00  0.00    +0.000 C 
ATOM     32  C   UNL     1       2.145  12.202  18.201  0.00  0.00    +0.000 C 
ENDBRANCH   9  30
TORSDOF 6
ENDMDL
MODEL 9
REMARK VINA RESULT:      -7.2      3.675      9.430
REMARK  Name = 
REMARK  9 active torsions:
REMARK  status: ('A' for Active; 'I' for Inactive)
REMARK    1  A    between atoms: C_1  and  C_2
REMARK    2  A    between atoms: C_2  and  C_3
REMARK    3  A    between atoms: C_3  and  C_4
REMARK    4  A    between atoms: C_7  and  C_8
REMARK    5  A    between atoms: N_10  and  C_11
REMARK    6  A    between atoms: C_15  and  C_16
REMARK    7  A    between atoms: C_25  and  N_26
REMARK    8  A    between atoms: N_26  and  C_27
REMARK    9  A    between atoms: N_26  and  C_28
REMARK                            x       y       z     vdW  Elec       q    Type
REMARK                         _______ _______ _______ _____ _____    ______ ____
ROOT
ATOM      1  C   UNL     1       0.489  10.844  20.345  0.00  0.00    +0.000 A 
ATOM      2  C   UNL     1       0.684   9.566  20.882  0.00  0.00    +0.000 A 
ATOM      3  C   UNL     1       1.357   8.600  20.166  0.00  0.00    +0.000 A 
ATOM      4  N   UNL     1       1.704   7.344  20.573  0.00  0.00    +0.000 NA
ATOM      5  C   UNL     1       2.333   6.791  19.599  0.00  0.00    +0.000 A 
ATOM      6  N   UNL     1       2.392   7.660  18.487  0.00  0.00    +0.000 N 
ATOM      7  C   UNL     1       1.791   8.860  18.875  0.00  0.00    +0.000 A 
ATOM      8  C   UNL     1       1.616  10.146  18.294  0.00  0.00    +0.000 A 
ATOM      9  C   UNL     1       1.033  11.212  19.073  0.00  0.00    +0.000 A 
ATOM     10  H   UNL     1       2.823   7.465  17.601  0.00  0.00    +0.000 HD
ENDROOT
BRANCH   5  11
ATOM     11  C   UNL     1       2.997   5.434  19.719  0.00  0.00    +0.000 C 
ATOM     12  C   UNL     1       2.319   4.585  20.798  0.00  0.00    +0.000 C 
ATOM     13  C   UNL     1       0.951   4.058  20.361  0.00  0.00    +0.000 C 
ATOM     14  C   UNL     1       1.055   3.222  19.090  0.00  0.00    +0.000 C 
ATOM     15  C   UNL     1       1.759   3.974  17.962  0.00  0.00    +0.000 C 
ATOM     16  C   UNL     1       3.084   4.601  18.413  0.00  0.00    +0.000 C 
ENDBRANCH   5  11
BRANCH   1  19
ATOM     17  C   UNL     1      -1.449  12.108  21.163  0.00  0.00    +0.000 C 
ATOM     18  O   UNL     1      -2.246  11.705  20.319  0.00  0.00    +0.000 OA
ATOM     19  N   UNL     1      -0.106  11.772  21.231  0.00  0.00    +0.000 N 
ATOM     20  H   UNL     1       0.311  11.778  22.156  0.00  0.00    +0.000 HD
BRANCH  17  24
ATOM     21  C   UNL     1      -2.870  14.926  24.109  0.00  0.00    +0.000 A 
ATOM     22  C   UNL     1      -3.158  13.559  24.199  0.00  0.00    +0.000 A 
ATOM     23  C   UNL     1      -2.661  12.670  23.244  0.00  0.00    +0.000 A 
ATOM     24  C   UNL     1      -1.902  13.127  22.164  0.00  0.00    +0.000 A 
ATOM     25  C   UNL     1      -1.685  14.505  22.024  0.00  0.00    +0.000 A 
ATOM     26  C   UNL     1      -2.168  15.392  22.990  0.00  0.00    +0.000 A 
BRANCH  21  27
ATOM     27  C   UNL     1      -3.250  15.902  25.201  0.00  0.00    +0.000 C 
BRANCH  27  29
ATOM     28  C   UNL     1      -0.990  16.082  26.357  0.00  0.00    +0.000 C 
ATOM     29  C   UNL     1      -2.115  16.828  25.655  0.00  0.00    +0.000 C 
ENDBRANCH  27  29
ENDBRANCH  21  27
ENDBRANCH  17  24
ENDBRANCH   1  19
BRANCH   9  30
ATOM     30  N   UNL     1       1.037  12.513  18.524  0.00  0.00    +0.000 N 
ATOM     31  C   UNL     1      -0.176  13.246  18.153  0.00  0.00    +0.000 C 
ATOM     32  C   UNL     1       2.150  13.434  18.809  0.00  0.00    +0.000 C 
ENDBRANCH   9  30
TORSDOF 6
ENDMDL
