MODEL 1
REMARK VINA RESULT:      -6.2      0.000      0.000
REMARK  Name = 
REMARK  13 active torsions:
REMARK  status: ('A' for Active; 'I' for Inactive)
REMARK    1  A    between atoms: C_1  and  N_2
REMARK    2  A    between atoms: N_2  and  C_3
REMARK    3  A    between atoms: C_5  and  O_6
REMARK    4  A    between atoms: O_6  and  C_7
REMARK    5  A    between atoms: C_12  and  C_13
REMARK    6  A    between atoms: C_16  and  O_17
REMARK    7  A    between atoms: O_17  and  C_18
REMARK    8  A    between atoms: C_21  and  C_22
REMARK    9  A    between atoms: C_28  and  C_29
REMARK   10  A    between atoms: C_29  and  O_31
REMARK   11  A    between atoms: O_31  and  C_32
REMARK   12  A    between atoms: C_33  and  O_34
REMARK   13  A    between atoms: C_35  and  O_36
REMARK                            x       y       z     vdW  Elec       q    Type
REMARK                         _______ _______ _______ _____ _____    ______ ____
ROOT
ATOM      1  C   UNL     1       4.534  15.430  18.168  0.00  0.00    +0.000 A 
ATOM      2  C   UNL     1       3.930  16.604  18.650  0.00  0.00    +0.000 A 
ATOM      3  C   UNL     1       2.561  16.657  19.012  0.00  0.00    +0.000 A 
ATOM      4  C   UNL     1       1.801  15.482  18.937  0.00  0.00    +0.000 A 
ATOM      5  C   UNL     1       2.454  14.327  18.564  0.00  0.00    +0.000 A 
ATOM      6  C   UNL     1       3.750  14.287  18.099  0.00  0.00    +0.000 A 
ATOM      7  O   UNL     1       1.860  13.163  18.934  0.00  0.00    +0.000 OA
ATOM      8  C   UNL     1       0.523  13.461  19.453  0.00  0.00    +0.000 C 
ATOM      9  C   UNL     1       0.480  13.222  21.050  0.00  0.00    +0.000 C 
ATOM     10  C   UNL     1       0.815  14.575  21.714  0.00  0.00    +0.000 C 
ATOM     11  C   UNL     1       0.037  15.524  20.815  0.00  0.00    +0.000 C 
ATOM     12  C   UNL     1       0.406  15.094  19.365  0.00  0.00    +0.000 C 
ENDROOT
BRANCH   8  13
ATOM     13  C   UNL     1      -0.141  12.245  18.754  0.00  0.00    +0.000 A 
ATOM     14  C   UNL     1      -1.321  12.525  18.001  0.00  0.00    +0.000 A 
ATOM     15  C   UNL     1      -2.064  11.553  17.324  0.00  0.00    +0.000 A 
ATOM     16  C   UNL     1      -1.679  10.228  17.386  0.00  0.00    +0.000 A 
ATOM     17  C   UNL     1      -0.574   9.894  18.164  0.00  0.00    +0.000 A 
ATOM     18  C   UNL     1       0.190  10.888  18.855  0.00  0.00    +0.000 A 
BRANCH  16  19
ATOM     19  O   UNL     1      -2.544   9.364  16.767  0.00  0.00    +0.000 OA
ATOM     20  C   UNL     1      -3.075   9.811  15.529  0.00  0.00    +0.000 C 
ENDBRANCH  16  19
ENDBRANCH   8  13
BRANCH   9  21
ATOM     21  C   UNL     1      -0.885  12.808  21.663  0.00  0.00    +0.000 A 
ATOM     22  C   UNL     1      -2.096  13.481  21.417  0.00  0.00    +0.000 A 
ATOM     23  C   UNL     1      -3.250  13.191  22.143  0.00  0.00    +0.000 A 
ATOM     24  C   UNL     1      -3.211  12.247  23.162  0.00  0.00    +0.000 A 
ATOM     25  C   UNL     1      -2.032  11.550  23.410  0.00  0.00    +0.000 A 
ATOM     26  C   UNL     1      -0.891  11.803  22.645  0.00  0.00    +0.000 A 
ENDBRANCH   9  21
BRANCH   1  28
ATOM     27  C   UNL     1       6.862  15.442  19.043  0.00  0.00    +0.000 C 
ATOM     28  N   UNL     1       5.900  15.252  17.985  0.00  0.00    +0.000 N 
ATOM     29  H   UNL     1       6.220  15.561  17.070  0.00  0.00    +0.000 HD
ENDBRANCH   1  28
BRANCH   3  30
ATOM     30  O   UNL     1       1.971  17.787  19.511  0.00  0.00    +0.000 OA
ATOM     31  C   UNL     1       1.259  18.629  18.603  0.00  0.00    +0.000 C 
ENDBRANCH   3  30
BRANCH  10  32
ATOM     32  C   UNL     1       2.283  14.939  21.870  0.00  0.00    +0.000 C 
ATOM     33  O   UNL     1       2.624  16.085  22.131  0.00  0.00    +0.000 OA
BRANCH  32  34
ATOM     34  O   UNL     1       3.123  13.885  21.739  0.00  0.00    +0.000 OA
ATOM     35  C   UNL     1       4.531  14.165  21.798  0.00  0.00    +0.000 C 
ENDBRANCH  32  34
ENDBRANCH  10  32
BRANCH  11  36
ATOM     36  O   UNL     1       0.119  16.900  21.153  0.00  0.00    +0.000 OA
ATOM     37  H   UNL     1       1.059  17.144  21.275  0.00  0.00    +0.000 HD
ENDBRANCH  11  36
BRANCH  12  38
ATOM     38  O   UNL     1      -0.540  15.607  18.436  0.00  0.00    +0.000 OA
ATOM     39  H   UNL     1      -0.125  15.439  17.559  0.00  0.00    +0.000 HD
ENDBRANCH  12  38
TORSDOF 9
ENDMDL
MODEL 2
REMARK VINA RESULT:      -6.1      2.064      3.248
REMARK  Name = 
REMARK  13 active torsions:
REMARK  status: ('A' for Active; 'I' for Inactive)
REMARK    1  A    between atoms: C_1  and  N_2
REMARK    2  A    between atoms: N_2  and  C_3
REMARK    3  A    between atoms: C_5  and  O_6
REMARK    4  A    between atoms: O_6  and  C_7
REMARK    5  A    between atoms: C_12  and  C_13
REMARK    6  A    between atoms: C_16  and  O_17
REMARK    7  A    between atoms: O_17  and  C_18
REMARK    8  A    between atoms: C_21  and  C_22
REMARK    9  A    between atoms: C_28  and  C_29
REMARK   10  A    between atoms: C_29  and  O_31
REMARK   11  A    between atoms: O_31  and  C_32
REMARK   12  A    between atoms: C_33  and  O_34
REMARK   13  A    between atoms: C_35  and  O_36
REMARK                            x       y       z     vdW  Elec       q    Type
REMARK                         _______ _______ _______ _____ _____    ______ ____
ROOT
ATOM      1  C   UNL     1       0.116  17.876  18.542  0.00  0.00    +0.000 A 
ATOM      2  C   UNL     1       0.029  18.203  19.907  0.00  0.00    +0.000 A 
ATOM      3  C   UNL     1      -0.478  17.297  20.871  0.00  0.00    +0.000 A 
ATOM      4  C   UNL     1      -0.853  16.012  20.453  0.00  0.00    +0.000 A 
ATOM      5  C   UNL     1      -0.651  15.693  19.128  0.00  0.00    +0.000 A 
ATOM      6  C   UNL     1      -0.271  16.600  18.163  0.00  0.00    +0.000 A 
ATOM      7  O   UNL     1      -0.572  14.368  18.842  0.00  0.00    +0.000 OA
ATOM      8  C   UNL     1      -0.959  13.605  20.031  0.00  0.00    +0.000 C 
ATOM      9  C   UNL     1       0.331  12.870  20.668  0.00  0.00    +0.000 C 
ATOM     10  C   UNL     1       0.916  13.831  21.725  0.00  0.00    +0.000 C 
ATOM     11  C   UNL     1      -0.363  14.353  22.362  0.00  0.00    +0.000 C 
ATOM     12  C   UNL     1      -1.275  14.749  21.164  0.00  0.00    +0.000 C 
ENDROOT
BRANCH   8  13
ATOM     13  C   UNL     1      -1.778  12.558  19.230  0.00  0.00    +0.000 A 
ATOM     14  C   UNL     1      -1.054  11.813  18.252  0.00  0.00    +0.000 A 
ATOM     15  C   UNL     1      -1.630  10.845  17.423  0.00  0.00    +0.000 A 
ATOM     16  C   UNL     1      -2.984  10.586  17.510  0.00  0.00    +0.000 A 
ATOM     17  C   UNL     1      -3.748  11.336  18.402  0.00  0.00    +0.000 A 
ATOM     18  C   UNL     1      -3.159  12.324  19.252  0.00  0.00    +0.000 A 
BRANCH  16  19
ATOM     19  O   UNL     1      -3.444   9.693  16.578  0.00  0.00    +0.000 OA
ATOM     20  C   UNL     1      -3.097   9.980  15.232  0.00  0.00    +0.000 C 
ENDBRANCH  16  19
ENDBRANCH   8  13
BRANCH   9  21
ATOM     21  C   UNL     1       0.079  11.544  21.434  0.00  0.00    +0.000 A 
ATOM     22  C   UNL     1      -0.881  11.392  22.450  0.00  0.00    +0.000 A 
ATOM     23  C   UNL     1      -0.931  10.243  23.237  0.00  0.00    +0.000 A 
ATOM     24  C   UNL     1       0.006   9.232  23.052  0.00  0.00    +0.000 A 
ATOM     25  C   UNL     1       0.951   9.348  22.038  0.00  0.00    +0.000 A 
ATOM     26  C   UNL     1       0.966  10.477  21.214  0.00  0.00    +0.000 A 
ENDBRANCH   9  21
BRANCH   1  28
ATOM     27  C   UNL     1       1.438  18.041  16.442  0.00  0.00    +0.000 C 
ATOM     28  N   UNL     1       0.780  18.631  17.582  0.00  0.00    +0.000 N 
ATOM     29  H   UNL     1       1.265  19.434  17.975  0.00  0.00    +0.000 HD
ENDBRANCH   1  28
BRANCH   3  30
ATOM     30  O   UNL     1      -0.539  17.595  22.206  0.00  0.00    +0.000 OA
ATOM     31  C   UNL     1      -1.682  18.306  22.683  0.00  0.00    +0.000 C 
ENDBRANCH   3  30
BRANCH  10  32
ATOM     32  C   UNL     1       1.854  14.926  21.242  0.00  0.00    +0.000 C 
ATOM     33  O   UNL     1       2.151  15.867  21.966  0.00  0.00    +0.000 OA
BRANCH  32  34
ATOM     34  O   UNL     1       2.335  14.720  19.993  0.00  0.00    +0.000 OA
ATOM     35  C   UNL     1       3.112  15.779  19.413  0.00  0.00    +0.000 C 
ENDBRANCH  32  34
ENDBRANCH  10  32
BRANCH  11  36
ATOM     36  O   UNL     1      -0.191  15.287  23.417  0.00  0.00    +0.000 OA
ATOM     37  H   UNL     1      -0.719  14.998  24.189  0.00  0.00    +0.000 HD
ENDBRANCH  11  36
BRANCH  12  38
ATOM     38  O   UNL     1      -2.628  14.863  21.581  0.00  0.00    +0.000 OA
ATOM     39  H   UNL     1      -2.846  15.810  21.419  0.00  0.00    +0.000 HD
ENDBRANCH  12  38
TORSDOF 9
ENDMDL
MODEL 3
REMARK VINA RESULT:      -6.0      2.390      3.976
REMARK  Name = 
REMARK  13 active torsions:
REMARK  status: ('A' for Active; 'I' for Inactive)
REMARK    1  A    between atoms: C_1  and  N_2
REMARK    2  A    between atoms: N_2  and  C_3
REMARK    3  A    between atoms: C_5  and  O_6
REMARK    4  A    between atoms: O_6  and  C_7
REMARK    5  A    between atoms: C_12  and  C_13
REMARK    6  A    between atoms: C_16  and  O_17
REMARK    7  A    between atoms: O_17  and  C_18
REMARK    8  A    between atoms: C_21  and  C_22
REMARK    9  A    between atoms: C_28  and  C_29
REMARK   10  A    between atoms: C_29  and  O_31
REMARK   11  A    between atoms: O_31  and  C_32
REMARK   12  A    between atoms: C_33  and  O_34
REMARK   13  A    between atoms: C_35  and  O_36
REMARK                            x       y       z     vdW  Elec       q    Type
REMARK                         _______ _______ _______ _____ _____    ______ ____
ROOT
ATOM      1  C   UNL     1       3.665  15.075  21.826  0.00  0.00    +0.000 A 
ATOM      2  C   UNL     1       3.122  16.005  20.923  0.00  0.00    +0.000 A 
ATOM      3  C   UNL     1       2.347  15.612  19.804  0.00  0.00    +0.000 A 
ATOM      4  C   UNL     1       2.070  14.249  19.626  0.00  0.00    +0.000 A 
ATOM      5  C   UNL     1       2.528  13.378  20.590  0.00  0.00    +0.000 A 
ATOM      6  C   UNL     1       3.378  13.734  21.614  0.00  0.00    +0.000 A 
ATOM      7  O   UNL     1       1.885  12.183  20.664  0.00  0.00    +0.000 OA
ATOM      8  C   UNL     1       0.995  12.055  19.509  0.00  0.00    +0.000 C 
ATOM      9  C   UNL     1      -0.547  12.165  19.979  0.00  0.00    +0.000 C 
ATOM     10  C   UNL     1      -0.945  13.652  19.863  0.00  0.00    +0.000 C 
ATOM     11  C   UNL     1      -0.261  14.020  18.554  0.00  0.00    +0.000 C 
ATOM     12  C   UNL     1       1.186  13.462  18.688  0.00  0.00    +0.000 C 
ENDROOT
BRANCH   8  13
ATOM     13  C   UNL     1       1.334  10.559  19.272  0.00  0.00    +0.000 A 
ATOM     14  C   UNL     1       1.216   9.704  20.409  0.00  0.00    +0.000 A 
ATOM     15  C   UNL     1       1.501   8.335  20.389  0.00  0.00    +0.000 A 
ATOM     16  C   UNL     1       1.951   7.745  19.224  0.00  0.00    +0.000 A 
ATOM     17  C   UNL     1       2.148   8.551  18.105  0.00  0.00    +0.000 A 
ATOM     18  C   UNL     1       1.853   9.951  18.123  0.00  0.00    +0.000 A 
BRANCH  16  19
ATOM     19  O   UNL     1       2.291   6.425  19.360  0.00  0.00    +0.000 OA
ATOM     20  C   UNL     1       1.848   5.798  20.554  0.00  0.00    +0.000 C 
ENDBRANCH  16  19
ENDBRANCH   8  13
BRANCH   9  21
ATOM     21  C   UNL     1      -1.599  11.405  19.126  0.00  0.00    +0.000 A 
ATOM     22  C   UNL     1      -1.280  10.402  18.192  0.00  0.00    +0.000 A 
ATOM     23  C   UNL     1      -2.237   9.894  17.316  0.00  0.00    +0.000 A 
ATOM     24  C   UNL     1      -3.530  10.407  17.325  0.00  0.00    +0.000 A 
ATOM     25  C   UNL     1      -3.877  11.382  18.255  0.00  0.00    +0.000 A 
ATOM     26  C   UNL     1      -2.930  11.852  19.169  0.00  0.00    +0.000 A 
ENDBRANCH   9  21
BRANCH   1  28
ATOM     27  C   UNL     1       5.220  14.536  23.690  0.00  0.00    +0.000 C 
ATOM     28  N   UNL     1       4.259  15.394  23.041  0.00  0.00    +0.000 N 
ATOM     29  H   UNL     1       3.625  15.869  23.679  0.00  0.00    +0.000 HD
ENDBRANCH   1  28
BRANCH   3  30
ATOM     30  O   UNL     1       1.789  16.512  18.937  0.00  0.00    +0.000 OA
ATOM     31  C   UNL     1       2.552  16.909  17.797  0.00  0.00    +0.000 C 
ENDBRANCH   3  30
BRANCH  10  32
ATOM     32  C   UNL     1      -0.591  14.570  21.022  0.00  0.00    +0.000 C 
ATOM     33  O   UNL     1      -0.679  15.785  20.913  0.00  0.00    +0.000 OA
BRANCH  32  34
ATOM     34  O   UNL     1      -0.229  13.911  22.148  0.00  0.00    +0.000 OA
ATOM     35  C   UNL     1      -1.221  13.796  23.181  0.00  0.00    +0.000 C 
ENDBRANCH  32  34
ENDBRANCH  10  32
BRANCH  11  36
ATOM     36  O   UNL     1      -0.432  15.362  18.125  0.00  0.00    +0.000 OA
ATOM     37  H   UNL     1      -0.819  15.362  17.226  0.00  0.00    +0.000 HD
ENDBRANCH  11  36
BRANCH  12  38
ATOM     38  O   UNL     1       1.805  13.367  17.413  0.00  0.00    +0.000 OA
ATOM     39  H   UNL     1       1.880  14.303  17.116  0.00  0.00    +0.000 HD
ENDBRANCH  12  38
TORSDOF 9
ENDMDL
MODEL 4
REMARK VINA RESULT:      -6.0      3.454      6.581
REMARK  Name = 
REMARK  13 active torsions:
REMARK  status: ('A' for Active; 'I' for Inactive)
REMARK    1  A    between atoms: C_1  and  N_2
REMARK    2  A    between atoms: N_2  and  C_3
REMARK    3  A    between atoms: C_5  and  O_6
REMARK    4  A    between atoms: O_6  and  C_7
REMARK    5  A    between atoms: C_12  and  C_13
REMARK    6  A    between atoms: C_16  and  O_17
REMARK    7  A    between atoms: O_17  and  C_18
REMARK    8  A    between atoms: C_21  and  C_22
REMARK    9  A    between atoms: C_28  and  C_29
REMARK   10  A    between atoms: C_29  and  O_31
REMARK   11  A    between atoms: O_31  and  C_32
REMARK   12  A    between atoms: C_33  and  O_34
REMARK   13  A    between atoms: C_35  and  O_36
REMARK                            x       y       z     vdW  Elec       q    Type
REMARK                         _______ _______ _______ _____ _____    ______ ____
ROOT
ATOM      1  C   UNL     1      -1.891  15.818  25.248  0.00  0.00    +0.000 A 
ATOM      2  C   UNL     1      -3.214  15.860  24.775  0.00  0.00    +0.000 A 
ATOM      3  C   UNL     1      -3.543  15.592  23.423  0.00  0.00    +0.000 A 
ATOM      4  C   UNL     1      -2.516  15.218  22.544  0.00  0.00    +0.000 A 
ATOM      5  C   UNL     1      -1.250  15.083  23.069  0.00  0.00    +0.000 A 
ATOM      6  C   UNL     1      -0.900  15.453  24.349  0.00  0.00    +0.000 A 
ATOM      7  O   UNL     1      -0.394  14.301  22.361  0.00  0.00    +0.000 OA
ATOM      8  C   UNL     1      -1.005  13.984  21.069  0.00  0.00    +0.000 C 
ATOM      9  C   UNL     1      -1.426  12.425  21.018  0.00  0.00    +0.000 C 
ATOM     10  C   UNL     1      -2.890  12.342  21.500  0.00  0.00    +0.000 C 
ATOM     11  C   UNL     1      -3.477  13.568  20.815  0.00  0.00    +0.000 C 
ATOM     12  C   UNL     1      -2.472  14.717  21.121  0.00  0.00    +0.000 C 
ENDROOT
BRANCH   8  13
ATOM     13  C   UNL     1       0.316  14.165  20.274  0.00  0.00    +0.000 A 
ATOM     14  C   UNL     1       1.491  13.635  20.886  0.00  0.00    +0.000 A 
ATOM     15  C   UNL     1       2.770  13.725  20.327  0.00  0.00    +0.000 A 
ATOM     16  C   UNL     1       2.949  14.381  19.125  0.00  0.00    +0.000 A 
ATOM     17  C   UNL     1       1.843  14.976  18.521  0.00  0.00    +0.000 A 
ATOM     18  C   UNL     1       0.533  14.882  19.090  0.00  0.00    +0.000 A 
BRANCH  16  19
ATOM     19  O   UNL     1       4.258  14.489  18.735  0.00  0.00    +0.000 OA
ATOM     20  C   UNL     1       5.009  15.503  19.386  0.00  0.00    +0.000 C 
ENDBRANCH  16  19
ENDBRANCH   8  13
BRANCH   9  21
ATOM     21  C   UNL     1      -1.429  11.742  19.624  0.00  0.00    +0.000 A 
ATOM     22  C   UNL     1      -2.451  11.900  18.671  0.00  0.00    +0.000 A 
ATOM     23  C   UNL     1      -2.502  11.114  17.521  0.00  0.00    +0.000 A 
ATOM     24  C   UNL     1      -1.550  10.121  17.316  0.00  0.00    +0.000 A 
ATOM     25  C   UNL     1      -0.515   9.960  18.232  0.00  0.00    +0.000 A 
ATOM     26  C   UNL     1      -0.435  10.786  19.356  0.00  0.00    +0.000 A 
ENDBRANCH   9  21
BRANCH   1  28
ATOM     27  C   UNL     1      -0.163  16.112  27.012  0.00  0.00    +0.000 C 
ATOM     28  N   UNL     1      -1.520  15.873  26.587  0.00  0.00    +0.000 N 
ATOM     29  H   UNL     1      -2.028  15.208  27.166  0.00  0.00    +0.000 HD
ENDBRANCH   1  28
BRANCH   3  30
ATOM     30  O   UNL     1      -4.831  15.600  22.960  0.00  0.00    +0.000 OA
ATOM     31  C   UNL     1      -5.437  16.864  22.684  0.00  0.00    +0.000 C 
ENDBRANCH   3  30
BRANCH  10  32
ATOM     32  C   UNL     1      -3.139  12.297  22.999  0.00  0.00    +0.000 C 
ATOM     33  O   UNL     1      -2.210  12.193  23.789  0.00  0.00    +0.000 OA
BRANCH  32  34
ATOM     34  O   UNL     1      -4.443  12.426  23.340  0.00  0.00    +0.000 OA
ATOM     35  C   UNL     1      -4.760  12.345  24.738  0.00  0.00    +0.000 C 
ENDBRANCH  32  34
ENDBRANCH  10  32
BRANCH  11  36
ATOM     36  O   UNL     1      -4.859  13.800  21.043  0.00  0.00    +0.000 OA
ATOM     37  H   UNL     1      -5.349  12.963  20.912  0.00  0.00    +0.000 HD
ENDBRANCH  11  36
BRANCH  12  38
ATOM     38  O   UNL     1      -2.665  15.802  20.224  0.00  0.00    +0.000 OA
ATOM     39  H   UNL     1      -3.104  15.389  19.445  0.00  0.00    +0.000 HD
ENDBRANCH  12  38
TORSDOF 9
ENDMDL
MODEL 5
REMARK VINA RESULT:      -5.9      0.627      1.006
REMARK  Name = 
REMARK  13 active torsions:
REMARK  status: ('A' for Active; 'I' for Inactive)
REMARK    1  A    between atoms: C_1  and  N_2
REMARK    2  A    between atoms: N_2  and  C_3
REMARK    3  A    between atoms: C_5  and  O_6
REMARK    4  A    between atoms: O_6  and  C_7
REMARK    5  A    between atoms: C_12  and  C_13
REMARK    6  A    between atoms: C_16  and  O_17
REMARK    7  A    between atoms: O_17  and  C_18
REMARK    8  A    between atoms: C_21  and  C_22
REMARK    9  A    between atoms: C_28  and  C_29
REMARK   10  A    between atoms: C_29  and  O_31
REMARK   11  A    between atoms: O_31  and  C_32
REMARK   12  A    between atoms: C_33  and  O_34
REMARK   13  A    between atoms: C_35  and  O_36
REMARK                            x       y       z     vdW  Elec       q    Type
REMARK                         _______ _______ _______ _____ _____    ______ ____
ROOT
ATOM      1  C   UNL     1       4.493  15.236  18.045  0.00  0.00    +0.000 A 
ATOM      2  C   UNL     1       3.974  16.482  18.435  0.00  0.00    +0.000 A 
ATOM      3  C   UNL     1       2.635  16.643  18.868  0.00  0.00    +0.000 A 
ATOM      4  C   UNL     1       1.819  15.506  18.962  0.00  0.00    +0.000 A 
ATOM      5  C   UNL     1       2.394  14.288  18.675  0.00  0.00    +0.000 A 
ATOM      6  C   UNL     1       3.655  14.134  18.142  0.00  0.00    +0.000 A 
ATOM      7  O   UNL     1       1.773  13.200  19.199  0.00  0.00    +0.000 OA
ATOM      8  C   UNL     1       0.487  13.617  19.761  0.00  0.00    +0.000 C 
ATOM      9  C   UNL     1       0.534  13.545  21.374  0.00  0.00    +0.000 C 
ATOM     10  C   UNL     1       0.971  14.939  21.872  0.00  0.00    +0.000 C 
ATOM     11  C   UNL     1       0.182  15.831  20.924  0.00  0.00    +0.000 C 
ATOM     12  C   UNL     1       0.438  15.237  19.508  0.00  0.00    +0.000 C 
ENDROOT
BRANCH   8  13
ATOM     13  C   UNL     1      -0.275  12.372  19.233  0.00  0.00    +0.000 A 
ATOM     14  C   UNL     1      -1.508  12.632  18.563  0.00  0.00    +0.000 A 
ATOM     15  C   UNL     1      -2.339  11.634  18.042  0.00  0.00    +0.000 A 
ATOM     16  C   UNL     1      -1.991  10.306  18.189  0.00  0.00    +0.000 A 
ATOM     17  C   UNL     1      -0.831   9.997  18.896  0.00  0.00    +0.000 A 
ATOM     18  C   UNL     1       0.022  11.017  19.427  0.00  0.00    +0.000 A 
BRANCH  16  19
ATOM     19  O   UNL     1      -2.934   9.426  17.727  0.00  0.00    +0.000 OA
ATOM     20  C   UNL     1      -4.254   9.938  17.633  0.00  0.00    +0.000 C 
ENDBRANCH  16  19
ENDBRANCH   8  13
BRANCH   9  21
ATOM     21  C   UNL     1      -0.807  13.267  22.106  0.00  0.00    +0.000 A 
ATOM     22  C   UNL     1      -1.082  12.090  22.826  0.00  0.00    +0.000 A 
ATOM     23  C   UNL     1      -2.364  11.808  23.295  0.00  0.00    +0.000 A 
ATOM     24  C   UNL     1      -3.413  12.678  23.019  0.00  0.00    +0.000 A 
ATOM     25  C   UNL     1      -3.162  13.861  22.330  0.00  0.00    +0.000 A 
ATOM     26  C   UNL     1      -1.866  14.169  21.908  0.00  0.00    +0.000 A 
ENDBRANCH   9  21
BRANCH   1  28
ATOM     27  C   UNL     1       6.898  15.511  18.614  0.00  0.00    +0.000 C 
ATOM     28  N   UNL     1       5.835  14.970  17.802  0.00  0.00    +0.000 N 
ATOM     29  H   UNL     1       6.054  14.915  16.810  0.00  0.00    +0.000 HD
ENDBRANCH   1  28
BRANCH   3  30
ATOM     30  O   UNL     1       2.129  17.847  19.279  0.00  0.00    +0.000 OA
ATOM     31  C   UNL     1       1.343  18.596  18.352  0.00  0.00    +0.000 C 
ENDBRANCH   3  30
BRANCH  10  32
ATOM     32  C   UNL     1       2.461  15.242  21.903  0.00  0.00    +0.000 C 
ATOM     33  O   UNL     1       2.869  16.389  22.024  0.00  0.00    +0.000 OA
BRANCH  32  34
ATOM     34  O   UNL     1       3.243  14.138  21.831  0.00  0.00    +0.000 OA
ATOM     35  C   UNL     1       4.660  14.351  21.733  0.00  0.00    +0.000 C 
ENDBRANCH  32  34
ENDBRANCH  10  32
BRANCH  11  36
ATOM     36  O   UNL     1       0.347  17.228  21.111  0.00  0.00    +0.000 OA
ATOM     37  H   UNL     1      -0.136  17.704  20.405  0.00  0.00    +0.000 HD
ENDBRANCH  11  36
BRANCH  12  38
ATOM     38  O   UNL     1      -0.541  15.700  18.588  0.00  0.00    +0.000 OA
ATOM     39  H   UNL     1      -0.071  16.397  18.075  0.00  0.00    +0.000 HD
ENDBRANCH  12  38
TORSDOF 9
ENDMDL
MODEL 6
REMARK VINA RESULT:      -5.8      2.504      4.442
REMARK  Name = 
REMARK  13 active torsions:
REMARK  status: ('A' for Active; 'I' for Inactive)
REMARK    1  A    between atoms: C_1  and  N_2
REMARK    2  A    between atoms: N_2  and  C_3
REMARK    3  A    between atoms: C_5  and  O_6
REMARK    4  A    between atoms: O_6  and  C_7
REMARK    5  A    between atoms: C_12  and  C_13
REMARK    6  A    between atoms: C_16  and  O_17
REMARK    7  A    between atoms: O_17  and  C_18
REMARK    8  A    between atoms: C_21  and  C_22
REMARK    9  A    between atoms: C_28  and  C_29
REMARK   10  A    between atoms: C_29  and  O_31
REMARK   11  A    between atoms: O_31  and  C_32
REMARK   12  A    between atoms: C_33  and  O_34
REMARK   13  A    between atoms: C_35  and  O_36
REMARK                            x       y       z     vdW  Elec       q    Type
REMARK                         _______ _______ _______ _____ _____    ______ ____
ROOT
ATOM      1  C   UNL     1       0.228  17.821  18.722  0.00  0.00    +0.000 A 
ATOM      2  C   UNL     1       1.382  17.705  19.515  0.00  0.00    +0.000 A 
ATOM      3  C   UNL     1       1.481  16.773  20.577  0.00  0.00    +0.000 A 
ATOM      4  C   UNL     1       0.407  15.901  20.806  0.00  0.00    +0.000 A 
ATOM      5  C   UNL     1      -0.662  15.971  19.940  0.00  0.00    +0.000 A 
ATOM      6  C   UNL     1      -0.818  16.948  18.981  0.00  0.00    +0.000 A 
ATOM      7  O   UNL     1      -1.446  14.864  19.874  0.00  0.00    +0.000 OA
ATOM      8  C   UNL     1      -1.057  13.946  20.946  0.00  0.00    +0.000 C 
ATOM      9  C   UNL     1      -0.316  12.650  20.328  0.00  0.00    +0.000 C 
ATOM     10  C   UNL     1       1.196  12.960  20.322  0.00  0.00    +0.000 C 
ATOM     11  C   UNL     1       1.341  13.659  21.666  0.00  0.00    +0.000 C 
ATOM     12  C   UNL     1       0.187  14.704  21.700  0.00  0.00    +0.000 C 
ENDROOT
BRANCH   8  13
ATOM     13  C   UNL     1      -2.518  13.559  21.298  0.00  0.00    +0.000 A 
ATOM     14  C   UNL     1      -2.895  13.722  22.665  0.00  0.00    +0.000 A 
ATOM     15  C   UNL     1      -4.161  13.403  23.168  0.00  0.00    +0.000 A 
ATOM     16  C   UNL     1      -5.120  12.873  22.328  0.00  0.00    +0.000 A 
ATOM     17  C   UNL     1      -4.778  12.631  20.999  0.00  0.00    +0.000 A 
ATOM     18  C   UNL     1      -3.485  12.959  20.482  0.00  0.00    +0.000 A 
BRANCH  16  19
ATOM     19  O   UNL     1      -6.280  12.510  22.961  0.00  0.00    +0.000 OA
ATOM     20  C   UNL     1      -7.397  12.292  22.113  0.00  0.00    +0.000 C 
ENDBRANCH  16  19
ENDBRANCH   8  13
BRANCH   9  21
ATOM     21  C   UNL     1      -0.444  11.321  21.121  0.00  0.00    +0.000 A 
ATOM     22  C   UNL     1      -0.644  11.250  22.512  0.00  0.00    +0.000 A 
ATOM     23  C   UNL     1      -0.555  10.040  23.198  0.00  0.00    +0.000 A 
ATOM     24  C   UNL     1      -0.225   8.876  22.514  0.00  0.00    +0.000 A 
ATOM     25  C   UNL     1      -0.047   8.915  21.134  0.00  0.00    +0.000 A 
ATOM     26  C   UNL     1      -0.190  10.119  20.440  0.00  0.00    +0.000 A 
ENDBRANCH   9  21
BRANCH   1  28
ATOM     27  C   UNL     1       1.055  18.409  16.451  0.00  0.00    +0.000 C 
ATOM     28  N   UNL     1       0.135  18.565  17.551  0.00  0.00    +0.000 N 
ATOM     29  H   UNL     1      -0.162  19.524  17.714  0.00  0.00    +0.000 HD
ENDBRANCH   1  28
BRANCH   3  30
ATOM     30  O   UNL     1       2.612  16.632  21.336  0.00  0.00    +0.000 OA
ATOM     31  C   UNL     1       2.826  17.560  22.400  0.00  0.00    +0.000 C 
ENDBRANCH   3  30
BRANCH  10  32
ATOM     32  C   UNL     1       1.749  13.757  19.152  0.00  0.00    +0.000 C 
ATOM     33  O   UNL     1       1.051  14.019  18.182  0.00  0.00    +0.000 OA
BRANCH  32  34
ATOM     34  O   UNL     1       3.029  14.163  19.324  0.00  0.00    +0.000 OA
ATOM     35  C   UNL     1       3.654  14.833  18.217  0.00  0.00    +0.000 C 
ENDBRANCH  32  34
ENDBRANCH  10  32
BRANCH  11  36
ATOM     36  O   UNL     1       2.652  14.088  22.001  0.00  0.00    +0.000 OA
ATOM     37  H   UNL     1       3.280  13.357  21.831  0.00  0.00    +0.000 HD
ENDBRANCH  11  36
BRANCH  12  38
ATOM     38  O   UNL     1      -0.055  15.139  23.031  0.00  0.00    +0.000 OA
ATOM     39  H   UNL     1      -0.907  15.628  22.968  0.00  0.00    +0.000 HD
ENDBRANCH  12  38
TORSDOF 9
ENDMDL
MODEL 7
REMARK VINA RESULT:      -5.8      2.482      4.188
REMARK  Name = 
REMARK  13 active torsions:
REMARK  status: ('A' for Active; 'I' for Inactive)
REMARK    1  A    between atoms: C_1  and  N_2
REMARK    2  A    between atoms: N_2  and  C_3
REMARK    3  A    between atoms: C_5  and  O_6
REMARK    4  A    between atoms: O_6  and  C_7
REMARK    5  A    between atoms: C_12  and  C_13
REMARK    6  A    between atoms: C_16  and  O_17
REMARK    7  A    between atoms: O_17  and  C_18
REMARK    8  A    between atoms: C_21  and  C_22
REMARK    9  A    between atoms: C_28  and  C_29
REMARK   10  A    between atoms: C_29  and  O_31
REMARK   11  A    between atoms: O_31  and  C_32
REMARK   12  A    between atoms: C_33  and  O_34
REMARK   13  A    between atoms: C_35  and  O_36
REMARK                            x       y       z     vdW  Elec       q    Type
REMARK                         _______ _______ _______ _____ _____    ______ ____
ROOT
ATOM      1  C   UNL     1       0.317  17.750  18.563  0.00  0.00    +0.000 A 
ATOM      2  C   UNL     1       1.512  17.694  19.301  0.00  0.00    +0.000 A 
ATOM      3  C   UNL     1       1.699  16.784  20.370  0.00  0.00    +0.000 A 
ATOM      4  C   UNL     1       0.675  15.872  20.663  0.00  0.00    +0.000 A 
ATOM      5  C   UNL     1      -0.436  15.885  19.850  0.00  0.00    +0.000 A 
ATOM      6  C   UNL     1      -0.679  16.840  18.886  0.00  0.00    +0.000 A 
ATOM      7  O   UNL     1      -1.177  14.747  19.837  0.00  0.00    +0.000 OA
ATOM      8  C   UNL     1      -0.699  13.863  20.902  0.00  0.00    +0.000 C 
ATOM      9  C   UNL     1       0.064  12.588  20.267  0.00  0.00    +0.000 C 
ATOM     10  C   UNL     1       1.560  12.958  20.183  0.00  0.00    +0.000 C 
ATOM     11  C   UNL     1       1.741  13.684  21.508  0.00  0.00    +0.000 C 
ATOM     12  C   UNL     1       0.548  14.682  21.583  0.00  0.00    +0.000 C 
ENDROOT
BRANCH   8  13
ATOM     13  C   UNL     1      -2.124  13.422  21.330  0.00  0.00    +0.000 A 
ATOM     14  C   UNL     1      -2.971  12.944  20.285  0.00  0.00    +0.000 A 
ATOM     15  C   UNL     1      -4.291  12.526  20.480  0.00  0.00    +0.000 A 
ATOM     16  C   UNL     1      -4.852  12.590  21.741  0.00  0.00    +0.000 A 
ATOM     17  C   UNL     1      -4.089  13.114  22.782  0.00  0.00    +0.000 A 
ATOM     18  C   UNL     1      -2.736  13.539  22.584  0.00  0.00    +0.000 A 
BRANCH  16  19
ATOM     19  O   UNL     1      -6.179  12.250  21.781  0.00  0.00    +0.000 OA
ATOM     20  C   UNL     1      -6.933  12.589  20.628  0.00  0.00    +0.000 C 
ENDBRANCH  16  19
ENDBRANCH   8  13
BRANCH   9  21
ATOM     21  C   UNL     1       0.029  11.268  21.084  0.00  0.00    +0.000 A 
ATOM     22  C   UNL     1       0.265   9.995  20.534  0.00  0.00    +0.000 A 
ATOM     23  C   UNL     1       0.028   8.832  21.265  0.00  0.00    +0.000 A 
ATOM     24  C   UNL     1      -0.490   8.914  22.553  0.00  0.00    +0.000 A 
ATOM     25  C   UNL     1      -0.709  10.162  23.128  0.00  0.00    +0.000 A 
ATOM     26  C   UNL     1      -0.420  11.327  22.414  0.00  0.00    +0.000 A 
ENDBRANCH   9  21
BRANCH   1  28
ATOM     27  C   UNL     1       1.058  18.400  16.280  0.00  0.00    +0.000 C 
ATOM     28  N   UNL     1       0.137  18.471  17.388  0.00  0.00    +0.000 N 
ATOM     29  H   UNL     1      -0.255  19.396  17.547  0.00  0.00    +0.000 HD
ENDBRANCH   1  28
BRANCH   3  30
ATOM     30  O   UNL     1       2.870  16.700  21.074  0.00  0.00    +0.000 OA
ATOM     31  C   UNL     1       3.952  17.546  20.681  0.00  0.00    +0.000 C 
ENDBRANCH   3  30
BRANCH  10  32
ATOM     32  C   UNL     1       2.022  13.758  18.976  0.00  0.00    +0.000 C 
ATOM     33  O   UNL     1       1.266  13.982  18.040  0.00  0.00    +0.000 OA
BRANCH  32  34
ATOM     34  O   UNL     1       3.295  14.211  19.077  0.00  0.00    +0.000 OA
ATOM     35  C   UNL     1       3.819  14.933  17.950  0.00  0.00    +0.000 C 
ENDBRANCH  32  34
ENDBRANCH  10  32
BRANCH  11  36
ATOM     36  O   UNL     1       3.047  14.171  21.773  0.00  0.00    +0.000 OA
ATOM     37  H   UNL     1       3.253  14.891  21.142  0.00  0.00    +0.000 HD
ENDBRANCH  11  36
BRANCH  12  38
ATOM     38  O   UNL     1       0.352  15.128  22.919  0.00  0.00    +0.000 OA
ATOM     39  H   UNL     1      -0.331  14.514  23.275  0.00  0.00    +0.000 HD
ENDBRANCH  12  38
TORSDOF 9
ENDMDL
MODEL 8
REMARK VINA RESULT:      -5.8      2.184      3.615
REMARK  Name = 
REMARK  13 active torsions:
REMARK  status: ('A' for Active; 'I' for Inactive)
REMARK    1  A    between atoms: C_1  and  N_2
REMARK    2  A    between atoms: N_2  and  C_3
REMARK    3  A    between atoms: C_5  and  O_6
REMARK    4  A    between atoms: O_6  and  C_7
REMARK    5  A    between atoms: C_12  and  C_13
REMARK    6  A    between atoms: C_16  and  O_17
REMARK    7  A    between atoms: O_17  and  C_18
REMARK    8  A    between atoms: C_21  and  C_22
REMARK    9  A    between atoms: C_28  and  C_29
REMARK   10  A    between atoms: C_29  and  O_31
REMARK   11  A    between atoms: O_31  and  C_32
REMARK   12  A    between atoms: C_33  and  O_34
REMARK   13  A    between atoms: C_35  and  O_36
REMARK                            x       y       z     vdW  Elec       q    Type
REMARK                         _______ _______ _______ _____ _____    ______ ____
ROOT
ATOM      1  C   UNL     1       1.052  17.656  18.146  0.00  0.00    +0.000 A 
ATOM      2  C   UNL     1       1.860  17.718  19.295  0.00  0.00    +0.000 A 
ATOM      3  C   UNL     1       1.679  16.845  20.396  0.00  0.00    +0.000 A 
ATOM      4  C   UNL     1       0.695  15.850  20.309  0.00  0.00    +0.000 A 
ATOM      5  C   UNL     1      -0.004  15.751  19.125  0.00  0.00    +0.000 A 
ATOM      6  C   UNL     1       0.082  16.665  18.098  0.00  0.00    +0.000 A 
ATOM      7  O   UNL     1      -0.591  14.551  18.881  0.00  0.00    +0.000 OA
ATOM      8  C   UNL     1      -0.505  13.730  20.090  0.00  0.00    +0.000 C 
ATOM      9  C   UNL     1       0.540  12.518  19.869  0.00  0.00    +0.000 C 
ATOM     10  C   UNL     1       1.916  13.020  20.359  0.00  0.00    +0.000 C 
ATOM     11  C   UNL     1       1.503  13.780  21.611  0.00  0.00    +0.000 C 
ATOM     12  C   UNL     1       0.305  14.668  21.164  0.00  0.00    +0.000 C 
ENDROOT
BRANCH   8  13
ATOM     13  C   UNL     1      -1.946  13.171  19.947  0.00  0.00    +0.000 A 
ATOM     14  C   UNL     1      -2.173  12.306  18.835  0.00  0.00    +0.000 A 
ATOM     15  C   UNL     1      -3.411  11.728  18.536  0.00  0.00    +0.000 A 
ATOM     16  C   UNL     1      -4.509  12.008  19.327  0.00  0.00    +0.000 A 
ATOM     17  C   UNL     1      -4.354  12.902  20.385  0.00  0.00    +0.000 A 
ATOM     18  C   UNL     1      -3.087  13.491  20.694  0.00  0.00    +0.000 A 
BRANCH  16  19
ATOM     19  O   UNL     1      -5.681  11.464  18.871  0.00  0.00    +0.000 OA
ATOM     20  C   UNL     1      -6.192  12.028  17.673  0.00  0.00    +0.000 C 
ENDBRANCH  16  19
ENDBRANCH   8  13
BRANCH   9  21
ATOM     21  C   UNL     1       0.286  11.214  20.671  0.00  0.00    +0.000 A 
ATOM     22  C   UNL     1      -0.303  11.176  21.948  0.00  0.00    +0.000 A 
ATOM     23  C   UNL     1      -0.328  10.005  22.703  0.00  0.00    +0.000 A 
ATOM     24  C   UNL     1       0.273   8.850  22.214  0.00  0.00    +0.000 A 
ATOM     25  C   UNL     1       0.840   8.854  20.943  0.00  0.00    +0.000 A 
ATOM     26  C   UNL     1       0.816  10.015  20.165  0.00  0.00    +0.000 A 
ENDBRANCH   9  21
BRANCH   1  28
ATOM     27  C   UNL     1       0.276  18.568  15.967  0.00  0.00    +0.000 C 
ATOM     28  N   UNL     1       1.296  18.339  16.961  0.00  0.00    +0.000 N 
ATOM     29  H   UNL     1       2.218  18.148  16.576  0.00  0.00    +0.000 HD
ENDBRANCH   1  28
BRANCH   3  30
ATOM     30  O   UNL     1       2.480  16.877  21.505  0.00  0.00    +0.000 OA
ATOM     31  C   UNL     1       2.209  17.866  22.500  0.00  0.00    +0.000 C 
ENDBRANCH   3  30
BRANCH  10  32
ATOM     32  C   UNL     1       2.754  13.839  19.391  0.00  0.00    +0.000 C 
ATOM     33  O   UNL     1       2.420  13.969  18.221  0.00  0.00    +0.000 OA
BRANCH  32  34
ATOM     34  O   UNL     1       3.837  14.418  19.962  0.00  0.00    +0.000 OA
ATOM     35  C   UNL     1       4.737  15.117  19.088  0.00  0.00    +0.000 C 
ENDBRANCH  32  34
ENDBRANCH  10  32
BRANCH  11  36
ATOM     36  O   UNL     1       2.558  14.386  22.341  0.00  0.00    +0.000 OA
ATOM     37  H   UNL     1       2.672  15.307  22.033  0.00  0.00    +0.000 HD
ENDBRANCH  11  36
BRANCH  12  38
ATOM     38  O   UNL     1      -0.434  15.115  22.292  0.00  0.00    +0.000 OA
ATOM     39  H   UNL     1      -0.898  15.921  21.966  0.00  0.00    +0.000 HD
ENDBRANCH  12  38
TORSDOF 9
ENDMDL
MODEL 9
REMARK VINA RESULT:      -5.8      3.105      6.342
REMARK  Name = 
REMARK  13 active torsions:
REMARK  status: ('A' for Active; 'I' for Inactive)
REMARK    1  A    between atoms: C_1  and  N_2
REMARK    2  A    between atoms: N_2  and  C_3
REMARK    3  A    between atoms: C_5  and  O_6
REMARK    4  A    between atoms: O_6  and  C_7
REMARK    5  A    between atoms: C_12  and  C_13
REMARK    6  A    between atoms: C_16  and  O_17
REMARK    7  A    between atoms: O_17  and  C_18
REMARK    8  A    between atoms: C_21  and  C_22
REMARK    9  A    between atoms: C_28  and  C_29
REMARK   10  A    between atoms: C_29  and  O_31
REMARK   11  A    between atoms: O_31  and  C_32
REMARK   12  A    between atoms: C_33  and  O_34
REMARK   13  A    between atoms: C_35  and  O_36
REMARK                            x       y       z     vdW  Elec       q    Type
REMARK                         _______ _______ _______ _____ _____    ______ ____
ROOT
ATOM      1  C   UNL     1      -4.664  14.230  23.800  0.00  0.00    +0.000 A 
ATOM      2  C   UNL     1      -3.592  14.634  24.615  0.00  0.00    +0.000 A 
ATOM      3  C   UNL     1      -2.241  14.412  24.253  0.00  0.00    +0.000 A 
ATOM      4  C   UNL     1      -1.967  13.818  23.013  0.00  0.00    +0.000 A 
ATOM      5  C   UNL     1      -3.039  13.534  22.196  0.00  0.00    +0.000 A 
ATOM      6  C   UNL     1      -4.357  13.637  22.585  0.00  0.00    +0.000 A 
ATOM      7  O   UNL     1      -2.760  13.406  20.873  0.00  0.00    +0.000 OA
ATOM      8  C   UNL     1      -1.306  13.384  20.698  0.00  0.00    +0.000 C 
ATOM      9  C   UNL     1      -0.807  14.750  19.996  0.00  0.00    +0.000 C 
ATOM     10  C   UNL     1      -0.450  15.733  21.132  0.00  0.00    +0.000 C 
ATOM     11  C   UNL     1       0.240  14.789  22.106  0.00  0.00    +0.000 C 
ATOM     12  C   UNL     1      -0.711  13.561  22.216  0.00  0.00    +0.000 C 
ENDROOT
BRANCH   8  13
ATOM     13  C   UNL     1      -1.340  12.261  19.626  0.00  0.00    +0.000 A 
ATOM     14  C   UNL     1      -2.300  12.423  18.583  0.00  0.00    +0.000 A 
ATOM     15  C   UNL     1      -2.487  11.503  17.546  0.00  0.00    +0.000 A 
ATOM     16  C   UNL     1      -1.735  10.345  17.512  0.00  0.00    +0.000 A 
ATOM     17  C   UNL     1      -0.833  10.108  18.546  0.00  0.00    +0.000 A 
ATOM     18  C   UNL     1      -0.637  11.050  19.606  0.00  0.00    +0.000 A 
BRANCH  16  19
ATOM     19  O   UNL     1      -2.084   9.480  16.507  0.00  0.00    +0.000 OA
ATOM     20  C   UNL     1      -2.898  10.029  15.482  0.00  0.00    +0.000 C 
ENDBRANCH  16  19
ENDBRANCH   8  13
BRANCH   9  21
ATOM     21  C   UNL     1       0.476  14.667  19.127  0.00  0.00    +0.000 A 
ATOM     22  C   UNL     1       1.186  13.478  18.881  0.00  0.00    +0.000 A 
ATOM     23  C   UNL     1       2.434  13.490  18.262  0.00  0.00    +0.000 A 
ATOM     24  C   UNL     1       3.022  14.699  17.907  0.00  0.00    +0.000 A 
ATOM     25  C   UNL     1       2.330  15.888  18.117  0.00  0.00    +0.000 A 
ATOM     26  C   UNL     1       1.056  15.870  18.689  0.00  0.00    +0.000 A 
ENDBRANCH   9  21
BRANCH   1  28
ATOM     27  C   UNL     1      -7.080  13.647  23.875  0.00  0.00    +0.000 C 
ATOM     28  N   UNL     1      -5.993  14.588  23.994  0.00  0.00    +0.000 N 
ATOM     29  H   UNL     1      -6.207  15.519  23.646  0.00  0.00    +0.000 HD
ENDBRANCH   1  28
BRANCH   3  30
ATOM     30  O   UNL     1      -1.190  14.830  25.024  0.00  0.00    +0.000 OA
ATOM     31  C   UNL     1      -1.465  15.714  26.112  0.00  0.00    +0.000 C 
ENDBRANCH   3  30
BRANCH  10  32
ATOM     32  C   UNL     1      -1.583  16.536  21.752  0.00  0.00    +0.000 C 
ATOM     33  O   UNL     1      -1.426  17.137  22.806  0.00  0.00    +0.000 OA
BRANCH  32  34
ATOM     34  O   UNL     1      -2.715  16.545  21.009  0.00  0.00    +0.000 OA
ATOM     35  C   UNL     1      -3.016  17.756  20.297  0.00  0.00    +0.000 C 
ENDBRANCH  32  34
ENDBRANCH  10  32
BRANCH  11  36
ATOM     36  O   UNL     1       0.720  15.382  23.303  0.00  0.00    +0.000 OA
ATOM     37  H   UNL     1       0.719  16.355  23.201  0.00  0.00    +0.000 HD
ENDBRANCH  11  36
BRANCH  12  38
ATOM     38  O   UNL     1      -0.021  12.442  22.756  0.00  0.00    +0.000 OA
ATOM     39  H   UNL     1       0.191  11.892  21.967  0.00  0.00    +0.000 HD
ENDBRANCH  12  38
TORSDOF 9
ENDMDL
