MODEL 1
REMARK VINA RESULT:      -8.0      0.000      0.000
REMARK  Name = 
REMARK  8 active torsions:
REMARK  status: ('A' for Active; 'I' for Inactive)
REMARK    1  A    between atoms: C_1  and  C_2
REMARK    2  A    between atoms: N_4  and  C_5
REMARK    3  A    between atoms: C_8  and  N_9
REMARK    4  A    between atoms: C_12  and  C_13
REMARK    5  A    between atoms: C_24  and  O_25
REMARK    6  A    between atoms: O_25  and  C_26
REMARK    7  A    between atoms: C_26  and  C_27
REMARK    8  A    between atoms: C_27  and  N_28
REMARK                            x       y       z     vdW  Elec       q    Type
REMARK                         _______ _______ _______ _____ _____    ______ ____
ROOT
ATOM      1  C   UNL     1       2.724   6.984  18.242  0.00  0.00    +0.000 A 
ATOM      2  C   UNL     1       2.358   7.984  17.334  0.00  0.00    +0.000 A 
ATOM      3  C   UNL     1       1.691   9.138  17.754  0.00  0.00    +0.000 A 
ATOM      4  C   UNL     1       1.424   9.347  19.104  0.00  0.00    +0.000 A 
ATOM      5  C   UNL     1       1.778   8.327  19.997  0.00  0.00    +0.000 A 
ATOM      6  C   UNL     1       2.353   7.107  19.582  0.00  0.00    +0.000 A 
ENDROOT
BRANCH   4   7
ATOM      7  N   UNL     1       0.815  10.538  19.589  0.00  0.00    +0.000 N 
ATOM      8  C   UNL     1       1.579  11.699  19.973  0.00  0.00    +0.000 C 
ATOM      9  C   UNL     1       0.612  12.575  20.734  0.00  0.00    +0.000 C 
ATOM     10  C   UNL     1      -0.752  12.213  20.152  0.00  0.00    +0.000 C 
ATOM     11  C   UNL     1      -0.560  10.799  19.624  0.00  0.00    +0.000 C 
ATOM     12  O   UNL     1      -1.487  10.079  19.278  0.00  0.00    +0.000 OA
BRANCH  10  13
ATOM     13  C   UNL     1      -1.840  12.367  21.192  0.00  0.00    +0.000 A 
ATOM     14  C   UNL     1      -1.581  11.984  22.516  0.00  0.00    +0.000 A 
ATOM     15  C   UNL     1      -2.588  12.055  23.477  0.00  0.00    +0.000 A 
ATOM     16  C   UNL     1      -3.866  12.512  23.139  0.00  0.00    +0.000 A 
ATOM     17 CL   UNL     1      -5.064  12.545  24.382  0.00  0.00    +0.000 Cl
ATOM     18  C   UNL     1      -4.135  12.903  21.824  0.00  0.00    +0.000 A 
ATOM     19 CL   UNL     1      -5.688  13.470  21.324  0.00  0.00    +0.000 Cl
ATOM     20  C   UNL     1      -3.126  12.827  20.861  0.00  0.00    +0.000 A 
ENDBRANCH  10  13
ENDBRANCH   4   7
BRANCH   1  24
ATOM     21  C   UNL     1       5.270   4.743  16.641  0.00  0.00    +0.000 C 
ATOM     22  C   UNL     1       4.731   5.998  17.260  0.00  0.00    +0.000 C 
ATOM     23  O   UNL     1       5.411   7.024  17.293  0.00  0.00    +0.000 OA
ATOM     24  N   UNL     1       3.457   5.863  17.790  0.00  0.00    +0.000 N 
ATOM     25  H   UNL     1       3.213   4.972  18.205  0.00  0.00    +0.000 HD
ENDBRANCH   1  24
BRANCH   6  26
ATOM     26  O   UNL     1       2.592   6.048  20.444  0.00  0.00    +0.000 OA
BRANCH  26  27
ATOM     27  C   UNL     1       1.379   5.480  20.965  0.00  0.00    +0.000 C 
BRANCH  27  28
ATOM     28  C   UNL     1       0.919   4.173  20.307  0.00  0.00    +0.000 C 
BRANCH  28  29
ATOM     29  N   UNL     1       2.021   3.571  19.512  0.00  0.00    +0.000 NA
ATOM     30  C   UNL     1       2.939   2.814  20.374  0.00  0.00    +0.000 C 
ATOM     31  C   UNL     1       4.137   2.281  19.579  0.00  0.00    +0.000 C 
ATOM     32  C   UNL     1       3.691   1.433  18.397  0.00  0.00    +0.000 C 
ATOM     33  C   UNL     1       2.697   2.208  17.543  0.00  0.00    +0.000 C 
ATOM     34  C   UNL     1       1.541   2.745  18.394  0.00  0.00    +0.000 C 
ENDBRANCH  28  29
ENDBRANCH  27  28
ENDBRANCH  26  27
ENDBRANCH   6  26
TORSDOF 7
ENDMDL
MODEL 2
REMARK VINA RESULT:      -7.7      0.677      1.307
REMARK  Name = 
REMARK  8 active torsions:
REMARK  status: ('A' for Active; 'I' for Inactive)
REMARK    1  A    between atoms: C_1  and  C_2
REMARK    2  A    between atoms: N_4  and  C_5
REMARK    3  A    between atoms: C_8  and  N_9
REMARK    4  A    between atoms: C_12  and  C_13
REMARK    5  A    between atoms: C_24  and  O_25
REMARK    6  A    between atoms: O_25  and  C_26
REMARK    7  A    between atoms: C_26  and  C_27
REMARK    8  A    between atoms: C_27  and  N_28
REMARK                            x       y       z     vdW  Elec       q    Type
REMARK                         _______ _______ _______ _____ _____    ______ ____
ROOT
ATOM      1  C   UNL     1       2.566   7.143  18.553  0.00  0.00    +0.000 A 
ATOM      2  C   UNL     1       2.286   8.157  17.628  0.00  0.00    +0.000 A 
ATOM      3  C   UNL     1       1.564   9.296  17.994  0.00  0.00    +0.000 A 
ATOM      4  C   UNL     1       1.151   9.476  19.312  0.00  0.00    +0.000 A 
ATOM      5  C   UNL     1       1.420   8.443  20.219  0.00  0.00    +0.000 A 
ATOM      6  C   UNL     1       2.051   7.237  19.847  0.00  0.00    +0.000 A 
ENDROOT
BRANCH   4   7
ATOM      7  N   UNL     1       0.479  10.652  19.749  0.00  0.00    +0.000 N 
ATOM      8  C   UNL     1       1.146  11.700  20.482  0.00  0.00    +0.000 C 
ATOM      9  C   UNL     1       0.037  12.560  21.038  0.00  0.00    +0.000 C 
ATOM     10  C   UNL     1      -1.109  12.374  20.047  0.00  0.00    +0.000 C 
ATOM     11  C   UNL     1      -0.832  11.015  19.420  0.00  0.00    +0.000 C 
ATOM     12  O   UNL     1      -1.646  10.413  18.733  0.00  0.00    +0.000 OA
BRANCH  10  13
ATOM     13  C   UNL     1      -2.448  12.499  20.741  0.00  0.00    +0.000 A 
ATOM     14  C   UNL     1      -3.598  12.739  19.974  0.00  0.00    +0.000 A 
ATOM     15  C   UNL     1      -4.831  12.923  20.597  0.00  0.00    +0.000 A 
ATOM     16  C   UNL     1      -4.942  12.867  21.990  0.00  0.00    +0.000 A 
ATOM     17 CL   UNL     1      -6.501  13.132  22.684  0.00  0.00    +0.000 Cl
ATOM     18  C   UNL     1      -3.805  12.622  22.765  0.00  0.00    +0.000 A 
ATOM     19 CL   UNL     1      -3.858  12.546  24.490  0.00  0.00    +0.000 Cl
ATOM     20  C   UNL     1      -2.569  12.442  22.140  0.00  0.00    +0.000 A 
ENDBRANCH  10  13
ENDBRANCH   4   7
BRANCH   1  24
ATOM     21  C   UNL     1       5.181   4.944  17.007  0.00  0.00    +0.000 C 
ATOM     22  C   UNL     1       4.582   6.213  17.538  0.00  0.00    +0.000 C 
ATOM     23  O   UNL     1       5.179   7.283  17.427  0.00  0.00    +0.000 OA
ATOM     24  N   UNL     1       3.356   6.039  18.162  0.00  0.00    +0.000 N 
ATOM     25  H   UNL     1       3.209   5.179  18.676  0.00  0.00    +0.000 HD
ENDBRANCH   1  24
BRANCH   6  26
ATOM     26  O   UNL     1       2.209   6.164  20.711  0.00  0.00    +0.000 OA
BRANCH  26  27
ATOM     27  C   UNL     1       1.065   5.296  20.721  0.00  0.00    +0.000 C 
BRANCH  27  28
ATOM     28  C   UNL     1       1.364   3.801  20.890  0.00  0.00    +0.000 C 
BRANCH  28  29
ATOM     29  N   UNL     1       2.302   3.333  19.837  0.00  0.00    +0.000 NA
ATOM     30  C   UNL     1       3.374   2.511  20.414  0.00  0.00    +0.000 C 
ATOM     31  C   UNL     1       4.405   2.114  19.351  0.00  0.00    +0.000 C 
ATOM     32  C   UNL     1       3.753   1.396  18.179  0.00  0.00    +0.000 C 
ATOM     33  C   UNL     1       2.607   2.233  17.626  0.00  0.00    +0.000 C 
ATOM     34  C   UNL     1       1.627   2.628  18.736  0.00  0.00    +0.000 C 
ENDBRANCH  28  29
ENDBRANCH  27  28
ENDBRANCH  26  27
ENDBRANCH   6  26
TORSDOF 7
ENDMDL
MODEL 3
REMARK VINA RESULT:      -7.5      4.312      9.708
REMARK  Name = 
REMARK  8 active torsions:
REMARK  status: ('A' for Active; 'I' for Inactive)
REMARK    1  A    between atoms: C_1  and  C_2
REMARK    2  A    between atoms: N_4  and  C_5
REMARK    3  A    between atoms: C_8  and  N_9
REMARK    4  A    between atoms: C_12  and  C_13
REMARK    5  A    between atoms: C_24  and  O_25
REMARK    6  A    between atoms: O_25  and  C_26
REMARK    7  A    between atoms: C_26  and  C_27
REMARK    8  A    between atoms: C_27  and  N_28
REMARK                            x       y       z     vdW  Elec       q    Type
REMARK                         _______ _______ _______ _____ _____    ______ ____
ROOT
ATOM      1  C   UNL     1      -1.612  12.361  20.716  0.00  0.00    +0.000 A 
ATOM      2  C   UNL     1      -0.596  11.902  21.563  0.00  0.00    +0.000 A 
ATOM      3  C   UNL     1       0.276  10.885  21.166  0.00  0.00    +0.000 A 
ATOM      4  C   UNL     1       0.189  10.339  19.889  0.00  0.00    +0.000 A 
ATOM      5  C   UNL     1      -0.846  10.793  19.062  0.00  0.00    +0.000 A 
ATOM      6  C   UNL     1      -1.805  11.741  19.481  0.00  0.00    +0.000 A 
ENDROOT
BRANCH   4   7
ATOM      7  N   UNL     1       1.101   9.354  19.413  0.00  0.00    +0.000 N 
ATOM      8  C   UNL     1       1.808   9.491  18.165  0.00  0.00    +0.000 C 
ATOM      9  C   UNL     1       2.375   8.121  17.879  0.00  0.00    +0.000 C 
ATOM     10  C   UNL     1       2.553   7.499  19.261  0.00  0.00    +0.000 C 
ATOM     11  C   UNL     1       1.535   8.230  20.124  0.00  0.00    +0.000 C 
ATOM     12  O   UNL     1       1.220   7.864  21.249  0.00  0.00    +0.000 OA
BRANCH  10  13
ATOM     13  C   UNL     1       2.381   5.996  19.202  0.00  0.00    +0.000 A 
ATOM     14  C   UNL     1       2.228   5.372  17.955  0.00  0.00    +0.000 A 
ATOM     15  C   UNL     1       2.003   3.999  17.880  0.00  0.00    +0.000 A 
ATOM     16  C   UNL     1       1.931   3.223  19.042  0.00  0.00    +0.000 A 
ATOM     17 CL   UNL     1       1.624   1.533  18.863  0.00  0.00    +0.000 Cl
ATOM     18  C   UNL     1       2.089   3.831  20.290  0.00  0.00    +0.000 A 
ATOM     19 CL   UNL     1       2.006   2.946  21.770  0.00  0.00    +0.000 Cl
ATOM     20  C   UNL     1       2.310   5.209  20.365  0.00  0.00    +0.000 A 
ENDBRANCH  10  13
ENDBRANCH   4   7
BRANCH   1  24
ATOM     21  C   UNL     1      -2.943  15.761  21.573  0.00  0.00    +0.000 C 
ATOM     22  C   UNL     1      -2.067  14.754  20.888  0.00  0.00    +0.000 C 
ATOM     23  O   UNL     1      -1.138  15.116  20.168  0.00  0.00    +0.000 OA
ATOM     24  N   UNL     1      -2.431  13.437  21.126  0.00  0.00    +0.000 N 
ATOM     25  H   UNL     1      -3.419  13.234  21.229  0.00  0.00    +0.000 HD
ENDBRANCH   1  24
BRANCH   6  26
ATOM     26  O   UNL     1      -2.901  12.102  18.712  0.00  0.00    +0.000 OA
BRANCH  26  27
ATOM     27  C   UNL     1      -3.220  11.119  17.714  0.00  0.00    +0.000 C 
BRANCH  27  28
ATOM     28  C   UNL     1      -4.344  11.496  16.741  0.00  0.00    +0.000 C 
BRANCH  28  29
ATOM     29  N   UNL     1      -5.657  11.502  17.437  0.00  0.00    +0.000 NA
ATOM     30  C   UNL     1      -5.654  10.575  18.577  0.00  0.00    +0.000 C 
ATOM     31  C   UNL     1      -7.037  10.496  19.234  0.00  0.00    +0.000 C 
ATOM     32  C   UNL     1      -7.532  11.869  19.663  0.00  0.00    +0.000 C 
ATOM     33  C   UNL     1      -7.478  12.834  18.488  0.00  0.00    +0.000 C 
ATOM     34  C   UNL     1      -6.084  12.848  17.850  0.00  0.00    +0.000 C 
ENDBRANCH  28  29
ENDBRANCH  27  28
ENDBRANCH  26  27
ENDBRANCH   6  26
TORSDOF 7
ENDMDL
MODEL 4
REMARK VINA RESULT:      -7.5      4.243      9.823
REMARK  Name = 
REMARK  8 active torsions:
REMARK  status: ('A' for Active; 'I' for Inactive)
REMARK    1  A    between atoms: C_1  and  C_2
REMARK    2  A    between atoms: N_4  and  C_5
REMARK    3  A    between atoms: C_8  and  N_9
REMARK    4  A    between atoms: C_12  and  C_13
REMARK    5  A    between atoms: C_24  and  O_25
REMARK    6  A    between atoms: O_25  and  C_26
REMARK    7  A    between atoms: C_26  and  C_27
REMARK    8  A    between atoms: C_27  and  N_28
REMARK                            x       y       z     vdW  Elec       q    Type
REMARK                         _______ _______ _______ _____ _____    ______ ____
ROOT
ATOM      1  C   UNL     1      -1.680  12.389  20.720  0.00  0.00    +0.000 A 
ATOM      2  C   UNL     1      -0.830  11.757  21.634  0.00  0.00    +0.000 A 
ATOM      3  C   UNL     1       0.035  10.735  21.235  0.00  0.00    +0.000 A 
ATOM      4  C   UNL     1       0.113  10.358  19.898  0.00  0.00    +0.000 A 
ATOM      5  C   UNL     1      -0.760  10.985  18.999  0.00  0.00    +0.000 A 
ATOM      6  C   UNL     1      -1.718  11.941  19.398  0.00  0.00    +0.000 A 
ENDROOT
BRANCH   4   7
ATOM      7  N   UNL     1       1.030   9.375  19.431  0.00  0.00    +0.000 N 
ATOM      8  C   UNL     1       1.754   9.516  18.191  0.00  0.00    +0.000 C 
ATOM      9  C   UNL     1       2.324   8.147  17.909  0.00  0.00    +0.000 C 
ATOM     10  C   UNL     1       2.485   7.521  19.292  0.00  0.00    +0.000 C 
ATOM     11  C   UNL     1       1.457   8.249  20.144  0.00  0.00    +0.000 C 
ATOM     12  O   UNL     1       1.128   7.880  21.263  0.00  0.00    +0.000 OA
BRANCH  10  13
ATOM     13  C   UNL     1       2.316   6.018  19.226  0.00  0.00    +0.000 A 
ATOM     14  C   UNL     1       2.115   5.405  17.980  0.00  0.00    +0.000 A 
ATOM     15  C   UNL     1       1.891   4.032  17.902  0.00  0.00    +0.000 A 
ATOM     16  C   UNL     1       1.867   3.246  19.059  0.00  0.00    +0.000 A 
ATOM     17 CL   UNL     1       1.557   1.557  18.877  0.00  0.00    +0.000 Cl
ATOM     18  C   UNL     1       2.071   3.844  20.306  0.00  0.00    +0.000 A 
ATOM     19 CL   UNL     1       2.048   2.945  21.780  0.00  0.00    +0.000 Cl
ATOM     20  C   UNL     1       2.292   5.221  20.383  0.00  0.00    +0.000 A 
ENDBRANCH  10  13
ENDBRANCH   4   7
BRANCH   1  24
ATOM     21  C   UNL     1      -4.510  14.482  22.017  0.00  0.00    +0.000 C 
ATOM     22  C   UNL     1      -3.681  13.246  21.828  0.00  0.00    +0.000 C 
ATOM     23  O   UNL     1      -4.053  12.164  22.281  0.00  0.00    +0.000 OA
ATOM     24  N   UNL     1      -2.492  13.464  21.148  0.00  0.00    +0.000 N 
ATOM     25  H   UNL     1      -2.021  14.349  21.296  0.00  0.00    +0.000 HD
ENDBRANCH   1  24
BRANCH   6  26
ATOM     26  O   UNL     1      -2.665  12.474  18.536  0.00  0.00    +0.000 OA
BRANCH  26  27
ATOM     27  C   UNL     1      -3.153  11.507  17.593  0.00  0.00    +0.000 C 
BRANCH  27  28
ATOM     28  C   UNL     1      -4.213  10.534  18.124  0.00  0.00    +0.000 C 
BRANCH  28  29
ATOM     29  N   UNL     1      -5.563  11.156  18.078  0.00  0.00    +0.000 NA
ATOM     30  C   UNL     1      -6.007  11.549  19.423  0.00  0.00    +0.000 C 
ATOM     31  C   UNL     1      -7.440  12.093  19.399  0.00  0.00    +0.000 C 
ATOM     32  C   UNL     1      -7.583  13.254  18.426  0.00  0.00    +0.000 C 
ATOM     33  C   UNL     1      -7.067  12.851  17.052  0.00  0.00    +0.000 C 
ATOM     34  C   UNL     1      -5.645  12.286  17.140  0.00  0.00    +0.000 C 
ENDBRANCH  28  29
ENDBRANCH  27  28
ENDBRANCH  26  27
ENDBRANCH   6  26
TORSDOF 7
ENDMDL
MODEL 5
REMARK VINA RESULT:      -7.4      4.199      9.697
REMARK  Name = 
REMARK  8 active torsions:
REMARK  status: ('A' for Active; 'I' for Inactive)
REMARK    1  A    between atoms: C_1  and  C_2
REMARK    2  A    between atoms: N_4  and  C_5
REMARK    3  A    between atoms: C_8  and  N_9
REMARK    4  A    between atoms: C_12  and  C_13
REMARK    5  A    between atoms: C_24  and  O_25
REMARK    6  A    between atoms: O_25  and  C_26
REMARK    7  A    between atoms: C_26  and  C_27
REMARK    8  A    between atoms: C_27  and  N_28
REMARK                            x       y       z     vdW  Elec       q    Type
REMARK                         _______ _______ _______ _____ _____    ______ ____
ROOT
ATOM      1  C   UNL     1      -1.397  12.462  20.897  0.00  0.00    +0.000 A 
ATOM      2  C   UNL     1      -1.884  11.538  19.965  0.00  0.00    +0.000 A 
ATOM      3  C   UNL     1      -1.052  10.565  19.404  0.00  0.00    +0.000 A 
ATOM      4  C   UNL     1       0.276  10.456  19.805  0.00  0.00    +0.000 A 
ATOM      5  C   UNL     1       0.753  11.401  20.723  0.00  0.00    +0.000 A 
ATOM      6  C   UNL     1      -0.040  12.458  21.219  0.00  0.00    +0.000 A 
ENDROOT
BRANCH   4   7
ATOM      7  N   UNL     1       1.142   9.436  19.319  0.00  0.00    +0.000 N 
ATOM      8  C   UNL     1       1.793   9.518  18.035  0.00  0.00    +0.000 C 
ATOM      9  C   UNL     1       2.314   8.126  17.767  0.00  0.00    +0.000 C 
ATOM     10  C   UNL     1       2.543   7.542  19.158  0.00  0.00    +0.000 C 
ATOM     11  C   UNL     1       1.584   8.324  20.044  0.00  0.00    +0.000 C 
ATOM     12  O   UNL     1       1.313   7.999  21.193  0.00  0.00    +0.000 OA
BRANCH  10  13
ATOM     13  C   UNL     1       2.335   6.043  19.154  0.00  0.00    +0.000 A 
ATOM     14  C   UNL     1       2.193   5.374  17.929  0.00  0.00    +0.000 A 
ATOM     15  C   UNL     1       1.935   4.005  17.903  0.00  0.00    +0.000 A 
ATOM     16  C   UNL     1       1.818   3.278  19.092  0.00  0.00    +0.000 A 
ATOM     17 CL   UNL     1       1.472   1.590  18.973  0.00  0.00    +0.000 Cl
ATOM     18  C   UNL     1       1.963   3.931  20.319  0.00  0.00    +0.000 A 
ATOM     19 CL   UNL     1       1.825   3.107  21.830  0.00  0.00    +0.000 Cl
ATOM     20  C   UNL     1       2.218   5.305  20.344  0.00  0.00    +0.000 A 
ENDBRANCH  10  13
ENDBRANCH   4   7
BRANCH   1  24
ATOM     21  C   UNL     1      -3.967  14.109  23.078  0.00  0.00    +0.000 C 
ATOM     22  C   UNL     1      -2.906  13.117  22.703  0.00  0.00    +0.000 C 
ATOM     23  O   UNL     1      -2.629  12.180  23.451  0.00  0.00    +0.000 OA
ATOM     24  N   UNL     1      -2.285  13.387  21.493  0.00  0.00    +0.000 N 
ATOM     25  H   UNL     1      -2.155  14.359  21.238  0.00  0.00    +0.000 HD
ENDBRANCH   1  24
BRANCH   6  26
ATOM     26  O   UNL     1       0.460  13.466  22.031  0.00  0.00    +0.000 OA
BRANCH  26  27
ATOM     27  C   UNL     1       1.021  14.551  21.275  0.00  0.00    +0.000 C 
BRANCH  27  28
ATOM     28  C   UNL     1       2.553  14.602  21.215  0.00  0.00    +0.000 C 
BRANCH  28  29
ATOM     29  N   UNL     1       3.005  15.363  20.021  0.00  0.00    +0.000 NA
ATOM     30  C   UNL     1       3.932  14.564  19.208  0.00  0.00    +0.000 C 
ATOM     31  C   UNL     1       4.486  15.379  18.033  0.00  0.00    +0.000 C 
ATOM     32  C   UNL     1       3.370  15.947  17.170  0.00  0.00    +0.000 C 
ATOM     33  C   UNL     1       2.386  16.725  18.033  0.00  0.00    +0.000 C 
ATOM     34  C   UNL     1       1.891  15.874  19.208  0.00  0.00    +0.000 C 
ENDBRANCH  28  29
ENDBRANCH  27  28
ENDBRANCH  26  27
ENDBRANCH   6  26
TORSDOF 7
ENDMDL
MODEL 6
REMARK VINA RESULT:      -7.4      4.140      9.653
REMARK  Name = 
REMARK  8 active torsions:
REMARK  status: ('A' for Active; 'I' for Inactive)
REMARK    1  A    between atoms: C_1  and  C_2
REMARK    2  A    between atoms: N_4  and  C_5
REMARK    3  A    between atoms: C_8  and  N_9
REMARK    4  A    between atoms: C_12  and  C_13
REMARK    5  A    between atoms: C_24  and  O_25
REMARK    6  A    between atoms: O_25  and  C_26
REMARK    7  A    between atoms: C_26  and  C_27
REMARK    8  A    between atoms: C_27  and  N_28
REMARK                            x       y       z     vdW  Elec       q    Type
REMARK                         _______ _______ _______ _____ _____    ______ ____
ROOT
ATOM      1  C   UNL     1      -2.314  12.442  19.683  0.00  0.00    +0.000 A 
ATOM      2  C   UNL     1      -2.480  11.411  18.751  0.00  0.00    +0.000 A 
ATOM      3  C   UNL     1      -1.449  10.510  18.472  0.00  0.00    +0.000 A 
ATOM      4  C   UNL     1      -0.242  10.584  19.162  0.00  0.00    +0.000 A 
ATOM      5  C   UNL     1      -0.085  11.634  20.076  0.00  0.00    +0.000 A 
ATOM      6  C   UNL     1      -1.072  12.619  20.293  0.00  0.00    +0.000 A 
ENDROOT
BRANCH   4   7
ATOM      7  N   UNL     1       0.810   9.645  18.968  0.00  0.00    +0.000 N 
ATOM      8  C   UNL     1       1.787   9.781  17.916  0.00  0.00    +0.000 C 
ATOM      9  C   UNL     1       2.480   8.442  17.845  0.00  0.00    +0.000 C 
ATOM     10  C   UNL     1       2.357   7.886  19.260  0.00  0.00    +0.000 C 
ATOM     11  C   UNL     1       1.124   8.580  19.819  0.00  0.00    +0.000 C 
ATOM     12  O   UNL     1       0.570   8.236  20.855  0.00  0.00    +0.000 OA
BRANCH  10  13
ATOM     13  C   UNL     1       2.288   6.373  19.241  0.00  0.00    +0.000 A 
ATOM     14  C   UNL     1       2.189   5.708  18.011  0.00  0.00    +0.000 A 
ATOM     15  C   UNL     1       2.058   4.321  17.972  0.00  0.00    +0.000 A 
ATOM     16  C   UNL     1       2.029   3.573  19.154  0.00  0.00    +0.000 A 
ATOM     17 CL   UNL     1       1.839   1.862  19.020  0.00  0.00    +0.000 Cl
ATOM     18  C   UNL     1       2.134   4.224  20.386  0.00  0.00    +0.000 A 
ATOM     19 CL   UNL     1       2.098   3.375  21.890  0.00  0.00    +0.000 Cl
ATOM     20  C   UNL     1       2.261   5.616  20.424  0.00  0.00    +0.000 A 
ENDBRANCH  10  13
ENDBRANCH   4   7
BRANCH   1  24
ATOM     21  C   UNL     1      -5.448  13.920  21.121  0.00  0.00    +0.000 C 
ATOM     22  C   UNL     1      -4.229  13.046  21.074  0.00  0.00    +0.000 C 
ATOM     23  O   UNL     1      -4.014  12.219  21.959  0.00  0.00    +0.000 OA
ATOM     24  N   UNL     1      -3.402  13.291  19.987  0.00  0.00    +0.000 N 
ATOM     25  H   UNL     1      -3.330  14.246  19.659  0.00  0.00    +0.000 HD
ENDBRANCH   1  24
BRANCH   6  26
ATOM     26  O   UNL     1      -0.874  13.727  21.103  0.00  0.00    +0.000 OA
BRANCH  26  27
ATOM     27  C   UNL     1      -0.403  14.867  20.367  0.00  0.00    +0.000 C 
BRANCH  27  28
ATOM     28  C   UNL     1       1.053  15.274  20.627  0.00  0.00    +0.000 C 
BRANCH  28  29
ATOM     29  N   UNL     1       1.856  15.169  19.380  0.00  0.00    +0.000 NA
ATOM     30  C   UNL     1       2.318  16.492  18.939  0.00  0.00    +0.000 C 
ATOM     31  C   UNL     1       3.055  16.404  17.597  0.00  0.00    +0.000 C 
ATOM     32  C   UNL     1       4.217  15.425  17.659  0.00  0.00    +0.000 C 
ATOM     33  C   UNL     1       3.736  14.075  18.172  0.00  0.00    +0.000 C 
ATOM     34  C   UNL     1       2.979  14.226  19.496  0.00  0.00    +0.000 C 
ENDBRANCH  28  29
ENDBRANCH  27  28
ENDBRANCH  26  27
ENDBRANCH   6  26
TORSDOF 7
ENDMDL
MODEL 7
REMARK VINA RESULT:      -7.3      3.954     10.108
REMARK  Name = 
REMARK  8 active torsions:
REMARK  status: ('A' for Active; 'I' for Inactive)
REMARK    1  A    between atoms: C_1  and  C_2
REMARK    2  A    between atoms: N_4  and  C_5
REMARK    3  A    between atoms: C_8  and  N_9
REMARK    4  A    between atoms: C_12  and  C_13
REMARK    5  A    between atoms: C_24  and  O_25
REMARK    6  A    between atoms: O_25  and  C_26
REMARK    7  A    between atoms: C_26  and  C_27
REMARK    8  A    between atoms: C_27  and  N_28
REMARK                            x       y       z     vdW  Elec       q    Type
REMARK                         _______ _______ _______ _____ _____    ______ ____
ROOT
ATOM      1  C   UNL     1      -1.989  12.535  19.838  0.00  0.00    +0.000 A 
ATOM      2  C   UNL     1      -1.922  11.928  18.578  0.00  0.00    +0.000 A 
ATOM      3  C   UNL     1      -0.928  10.995  18.273  0.00  0.00    +0.000 A 
ATOM      4  C   UNL     1      -0.007  10.603  19.241  0.00  0.00    +0.000 A 
ATOM      5  C   UNL     1      -0.075  11.236  20.489  0.00  0.00    +0.000 A 
ATOM      6  C   UNL     1      -1.001  12.259  20.784  0.00  0.00    +0.000 A 
ENDROOT
BRANCH   4   7
ATOM      7  N   UNL     1       0.977   9.603  19.002  0.00  0.00    +0.000 N 
ATOM      8  C   UNL     1       1.919   9.686  17.914  0.00  0.00    +0.000 C 
ATOM      9  C   UNL     1       2.525   8.307  17.810  0.00  0.00    +0.000 C 
ATOM     10  C   UNL     1       2.422   7.750  19.227  0.00  0.00    +0.000 C 
ATOM     11  C   UNL     1       1.257   8.514  19.836  0.00  0.00    +0.000 C 
ATOM     12  O   UNL     1       0.722   8.198  20.891  0.00  0.00    +0.000 OA
BRANCH  10  13
ATOM     13  C   UNL     1       2.260   6.245  19.203  0.00  0.00    +0.000 A 
ATOM     14  C   UNL     1       2.067   5.595  17.975  0.00  0.00    +0.000 A 
ATOM     15  C   UNL     1       1.850   4.219  17.935  0.00  0.00    +0.000 A 
ATOM     16  C   UNL     1       1.825   3.466  19.114  0.00  0.00    +0.000 A 
ATOM     17 CL   UNL     1       1.523   1.771  18.980  0.00  0.00    +0.000 Cl
ATOM     18  C   UNL     1       2.021   4.101  20.344  0.00  0.00    +0.000 A 
ATOM     19 CL   UNL     1       1.997   3.244  21.843  0.00  0.00    +0.000 Cl
ATOM     20  C   UNL     1       2.235   5.481  20.383  0.00  0.00    +0.000 A 
ENDBRANCH  10  13
ENDBRANCH   4   7
BRANCH   1  24
ATOM     21  C   UNL     1      -5.367  14.113  20.246  0.00  0.00    +0.000 C 
ATOM     22  C   UNL     1      -4.370  13.000  20.122  0.00  0.00    +0.000 C 
ATOM     23  O   UNL     1      -4.741  11.829  20.050  0.00  0.00    +0.000 OA
ATOM     24  N   UNL     1      -3.049  13.423  20.130  0.00  0.00    +0.000 N 
ATOM     25  H   UNL     1      -2.816  14.224  20.706  0.00  0.00    +0.000 HD
ENDBRANCH   1  24
BRANCH   6  26
ATOM     26  O   UNL     1      -0.992  12.972  21.973  0.00  0.00    +0.000 OA
BRANCH  26  27
ATOM     27  C   UNL     1      -1.408  12.175  23.093  0.00  0.00    +0.000 C 
BRANCH  27  28
ATOM     28  C   UNL     1      -2.892  12.273  23.468  0.00  0.00    +0.000 C 
BRANCH  28  29
ATOM     29  N   UNL     1      -3.332  13.693  23.496  0.00  0.00    +0.000 NA
ATOM     30  C   UNL     1      -4.754  13.798  23.849  0.00  0.00    +0.000 C 
ATOM     31  C   UNL     1      -5.241  15.249  23.776  0.00  0.00    +0.000 C 
ATOM     32  C   UNL     1      -4.403  16.166  24.655  0.00  0.00    +0.000 C 
ATOM     33  C   UNL     1      -2.927  16.007  24.318  0.00  0.00    +0.000 C 
ATOM     34  C   UNL     1      -2.504  14.535  24.374  0.00  0.00    +0.000 C 
ENDBRANCH  28  29
ENDBRANCH  27  28
ENDBRANCH  26  27
ENDBRANCH   6  26
TORSDOF 7
ENDMDL
MODEL 8
REMARK VINA RESULT:      -7.3      5.072     10.216
REMARK  Name = 
REMARK  8 active torsions:
REMARK  status: ('A' for Active; 'I' for Inactive)
REMARK    1  A    between atoms: C_1  and  C_2
REMARK    2  A    between atoms: N_4  and  C_5
REMARK    3  A    between atoms: C_8  and  N_9
REMARK    4  A    between atoms: C_12  and  C_13
REMARK    5  A    between atoms: C_24  and  O_25
REMARK    6  A    between atoms: O_25  and  C_26
REMARK    7  A    between atoms: C_26  and  C_27
REMARK    8  A    between atoms: C_27  and  N_28
REMARK                            x       y       z     vdW  Elec       q    Type
REMARK                         _______ _______ _______ _____ _____    ______ ____
ROOT
ATOM      1  C   UNL     1       1.119   7.767  20.642  0.00  0.00    +0.000 A 
ATOM      2  C   UNL     1       1.313   6.428  21.000  0.00  0.00    +0.000 A 
ATOM      3  C   UNL     1       2.269   5.636  20.358  0.00  0.00    +0.000 A 
ATOM      4  C   UNL     1       3.094   6.181  19.378  0.00  0.00    +0.000 A 
ATOM      5  C   UNL     1       2.872   7.516  19.017  0.00  0.00    +0.000 A 
ATOM      6  C   UNL     1       1.841   8.302  19.575  0.00  0.00    +0.000 A 
ENDROOT
BRANCH   4   7
ATOM      7  N   UNL     1       4.131   5.435  18.748  0.00  0.00    +0.000 N 
ATOM      8  C   UNL     1       5.398   5.178  19.386  0.00  0.00    +0.000 C 
ATOM      9  C   UNL     1       6.302   4.682  18.283  0.00  0.00    +0.000 C 
ATOM     10  C   UNL     1       5.346   4.040  17.281  0.00  0.00    +0.000 C 
ATOM     11  C   UNL     1       4.023   4.749  17.533  0.00  0.00    +0.000 C 
ATOM     12  O   UNL     1       3.062   4.668  16.781  0.00  0.00    +0.000 OA
BRANCH  10  13
ATOM     13  C   UNL     1       5.880   4.163  15.870  0.00  0.00    +0.000 A 
ATOM     14  C   UNL     1       7.102   4.817  15.655  0.00  0.00    +0.000 A 
ATOM     15  C   UNL     1       7.582   4.999  14.360  0.00  0.00    +0.000 A 
ATOM     16  C   UNL     1       6.858   4.531  13.258  0.00  0.00    +0.000 A 
ATOM     17 CL   UNL     1       7.509   4.821  11.685  0.00  0.00    +0.000 Cl
ATOM     18  C   UNL     1       5.642   3.872  13.459  0.00  0.00    +0.000 A 
ATOM     19 CL   UNL     1       4.685   3.273  12.153  0.00  0.00    +0.000 Cl
ATOM     20  C   UNL     1       5.160   3.693  14.759  0.00  0.00    +0.000 A 
ENDBRANCH  10  13
ENDBRANCH   4   7
BRANCH   1  24
ATOM     21  C   UNL     1      -0.567   9.907  23.220  0.00  0.00    +0.000 C 
ATOM     22  C   UNL     1       0.577   9.306  22.460  0.00  0.00    +0.000 C 
ATOM     23  O   UNL     1       1.740   9.514  22.806  0.00  0.00    +0.000 OA
ATOM     24  N   UNL     1       0.191   8.554  21.360  0.00  0.00    +0.000 N 
ATOM     25  H   UNL     1      -0.628   8.860  20.847  0.00  0.00    +0.000 HD
ENDBRANCH   1  24
BRANCH   6  26
ATOM     26  O   UNL     1       1.539   9.582  19.134  0.00  0.00    +0.000 OA
BRANCH  26  27
ATOM     27  C   UNL     1       0.310   9.631  18.393  0.00  0.00    +0.000 C 
BRANCH  27  28
ATOM     28  C   UNL     1      -0.620  10.806  18.719  0.00  0.00    +0.000 C 
BRANCH  28  29
ATOM     29  N   UNL     1      -1.979  10.566  18.168  0.00  0.00    +0.000 NA
ATOM     30  C   UNL     1      -2.894  11.659  18.527  0.00  0.00    +0.000 C 
ATOM     31  C   UNL     1      -4.323  11.367  18.055  0.00  0.00    +0.000 C 
ATOM     32  C   UNL     1      -4.374  11.097  16.559  0.00  0.00    +0.000 C 
ATOM     33  C   UNL     1      -3.381  10.002  16.192  0.00  0.00    +0.000 C 
ATOM     34  C   UNL     1      -1.979  10.330  16.716  0.00  0.00    +0.000 C 
ENDBRANCH  28  29
ENDBRANCH  27  28
ENDBRANCH  26  27
ENDBRANCH   6  26
TORSDOF 7
ENDMDL
MODEL 9
REMARK VINA RESULT:      -7.3      3.890      9.903
REMARK  Name = 
REMARK  8 active torsions:
REMARK  status: ('A' for Active; 'I' for Inactive)
REMARK    1  A    between atoms: C_1  and  C_2
REMARK    2  A    between atoms: N_4  and  C_5
REMARK    3  A    between atoms: C_8  and  N_9
REMARK    4  A    between atoms: C_12  and  C_13
REMARK    5  A    between atoms: C_24  and  O_25
REMARK    6  A    between atoms: O_25  and  C_26
REMARK    7  A    between atoms: C_26  and  C_27
REMARK    8  A    between atoms: C_27  and  N_28
REMARK                            x       y       z     vdW  Elec       q    Type
REMARK                         _______ _______ _______ _____ _____    ______ ____
ROOT
ATOM      1  C   UNL     1      -2.287  12.467  19.670  0.00  0.00    +0.000 A 
ATOM      2  C   UNL     1      -2.433  11.510  18.659  0.00  0.00    +0.000 A 
ATOM      3  C   UNL     1      -1.424  10.584  18.383  0.00  0.00    +0.000 A 
ATOM      4  C   UNL     1      -0.263  10.556  19.151  0.00  0.00    +0.000 A 
ATOM      5  C   UNL     1      -0.124  11.533  20.145  0.00  0.00    +0.000 A 
ATOM      6  C   UNL     1      -1.081  12.545  20.369  0.00  0.00    +0.000 A 
ENDROOT
BRANCH   4   7
ATOM      7  N   UNL     1       0.760   9.585  18.957  0.00  0.00    +0.000 N 
ATOM      8  C   UNL     1       1.737   9.687  17.902  0.00  0.00    +0.000 C 
ATOM      9  C   UNL     1       2.390   8.328  17.834  0.00  0.00    +0.000 C 
ATOM     10  C   UNL     1       2.255   7.782  19.253  0.00  0.00    +0.000 C 
ATOM     11  C   UNL     1       1.045   8.515  19.813  0.00  0.00    +0.000 C 
ATOM     12  O   UNL     1       0.484   8.192  20.852  0.00  0.00    +0.000 OA
BRANCH  10  13
ATOM     13  C   UNL     1       2.141   6.272  19.241  0.00  0.00    +0.000 A 
ATOM     14  C   UNL     1       1.985   5.607  18.017  0.00  0.00    +0.000 A 
ATOM     15  C   UNL     1       1.813   4.224  17.986  0.00  0.00    +0.000 A 
ATOM     16  C   UNL     1       1.797   3.481  19.171  0.00  0.00    +0.000 A 
ATOM     17 CL   UNL     1       1.552   1.776  19.048  0.00  0.00    +0.000 Cl
ATOM     18  C   UNL     1       1.957   4.131  20.397  0.00  0.00    +0.000 A 
ATOM     19 CL   UNL     1       1.941   3.287  21.904  0.00  0.00    +0.000 Cl
ATOM     20  C   UNL     1       2.126   5.518  20.427  0.00  0.00    +0.000 A 
ENDBRANCH  10  13
ENDBRANCH   4   7
BRANCH   1  24
ATOM     21  C   UNL     1      -5.685  13.982  20.143  0.00  0.00    +0.000 C 
ATOM     22  C   UNL     1      -4.666  12.888  20.030  0.00  0.00    +0.000 C 
ATOM     23  O   UNL     1      -5.010  11.706  20.028  0.00  0.00    +0.000 OA
ATOM     24  N   UNL     1      -3.357  13.342  19.964  0.00  0.00    +0.000 N 
ATOM     25  H   UNL     1      -3.122  14.175  20.492  0.00  0.00    +0.000 HD
ENDBRANCH   1  24
BRANCH   6  26
ATOM     26  O   UNL     1      -0.892  13.585  21.266  0.00  0.00    +0.000 OA
BRANCH  26  27
ATOM     27  C   UNL     1      -0.851  13.133  22.629  0.00  0.00    +0.000 C 
BRANCH  27  28
ATOM     28  C   UNL     1      -1.274  14.160  23.686  0.00  0.00    +0.000 C 
BRANCH  28  29
ATOM     29  N   UNL     1      -2.688  13.944  24.088  0.00  0.00    +0.000 NA
ATOM     30  C   UNL     1      -3.592  14.815  23.323  0.00  0.00    +0.000 C 
ATOM     31  C   UNL     1      -5.040  14.675  23.807  0.00  0.00    +0.000 C 
ATOM     32  C   UNL     1      -5.513  13.231  23.750  0.00  0.00    +0.000 C 
ATOM     33  C   UNL     1      -4.539  12.332  24.498  0.00  0.00    +0.000 C 
ATOM     34  C   UNL     1      -3.105  12.536  23.997  0.00  0.00    +0.000 C 
ENDBRANCH  28  29
ENDBRANCH  27  28
ENDBRANCH  26  27
ENDBRANCH   6  26
TORSDOF 7
ENDMDL
