MODEL 1
REMARK VINA RESULT:      -8.6      0.000      0.000
REMARK  Name = 
REMARK  7 active torsions:
REMARK  status: ('A' for Active; 'I' for Inactive)
REMARK    1  A    between atoms: C_1  and  C_2
REMARK    2  A    between atoms: C_2  and  N_3
REMARK    3  A    between atoms: C_5  and  N_6
REMARK    4  A    between atoms: C_7  and  C_9
REMARK    5  A    between atoms: C_12  and  C_13
REMARK    6  A    between atoms: C_13  and  O_14
REMARK    7  A    between atoms: O_14  and  C_15
REMARK                            x       y       z     vdW  Elec       q    Type
REMARK                         _______ _______ _______ _____ _____    ______ ____
ROOT
ATOM      1  C   UNL     1       6.123   5.995  17.499  0.00  0.00    +0.000 A 
ATOM      2  C   UNL     1       7.048   5.740  16.514  0.00  0.00    +0.000 A 
ATOM      3  O   UNL     1       7.862   6.825  16.396  0.00  0.00    +0.000 OA
ATOM      4  C   UNL     1       7.382   7.714  17.323  0.00  0.00    +0.000 A 
ATOM      5  N   UNL     1       6.347   7.266  18.017  0.00  0.00    +0.000 NA
ENDROOT
BRANCH   1   7
ATOM      6  N   UNL     1       3.822   5.653  17.918  0.00  0.00    +0.000 N 
ATOM      7  C   UNL     1       5.076   5.091  17.972  0.00  0.00    +0.000 C 
ATOM      8  O   UNL     1       5.304   3.963  18.386  0.00  0.00    +0.000 OA
ATOM      9  H   UNL     1       3.793   6.612  17.582  0.00  0.00    +0.000 HD
BRANCH   6  12
ATOM     10  N   UNL     1       1.483   3.588  19.831  0.00  0.00    +0.000 N 
ATOM     11  C   UNL     1       2.568   4.542  19.817  0.00  0.00    +0.000 C 
ATOM     12  C   UNL     1       2.591   5.019  18.363  0.00  0.00    +0.000 C 
ATOM     13  C   UNL     1       2.138   3.785  17.581  0.00  0.00    +0.000 C 
ATOM     14  C   UNL     1       1.203   3.103  18.558  0.00  0.00    +0.000 C 
ATOM     15  O   UNL     1       0.384   2.246  18.270  0.00  0.00    +0.000 OA
BRANCH  10  17
ATOM     16  C   UNL     1       2.065   2.457  21.961  0.00  0.00    +0.000 C 
ATOM     17  C   UNL     1       0.971   3.001  21.056  0.00  0.00    +0.000 C 
ENDBRANCH  10  17
ENDBRANCH   6  12
ENDBRANCH   1   7
BRANCH   4  18
ATOM     18  C   UNL     1       8.115   9.010  17.446  0.00  0.00    +0.000 C 
BRANCH  18  19
ATOM     19  O   UNL     1       8.565   9.111  18.799  0.00  0.00    +0.000 OA
BRANCH  19  20
ATOM     20  C   UNL     1       9.275  10.228  19.141  0.00  0.00    +0.000 A 
ATOM     21  C   UNL     1       9.568  10.658  20.431  0.00  0.00    +0.000 A 
ATOM     22  C   UNL     1      10.329  11.820  20.625  0.00  0.00    +0.000 A 
ATOM     23  C   UNL     1      10.812  12.572  19.564  0.00  0.00    +0.000 A 
ATOM     24  N   UNL     1      11.552  13.669  19.807  0.00  0.00    +0.000 NA
ATOM     25  C   UNL     1      12.016  14.369  18.748  0.00  0.00    +0.000 A 
ATOM     26  C   UNL     1      11.770  14.028  17.432  0.00  0.00    +0.000 A 
ATOM     27  C   UNL     1      10.999  12.899  17.185  0.00  0.00    +0.000 A 
ATOM     28  C   UNL     1      10.506  12.143  18.257  0.00  0.00    +0.000 A 
ATOM     29  C   UNL     1       9.736  10.980  18.059  0.00  0.00    +0.000 A 
ENDBRANCH  19  20
ENDBRANCH  18  19
ENDBRANCH   4  18
TORSDOF 6
ENDMDL
MODEL 2
REMARK VINA RESULT:      -8.2      1.854     10.288
REMARK  Name = 
REMARK  7 active torsions:
REMARK  status: ('A' for Active; 'I' for Inactive)
REMARK    1  A    between atoms: C_1  and  C_2
REMARK    2  A    between atoms: C_2  and  N_3
REMARK    3  A    between atoms: C_5  and  N_6
REMARK    4  A    between atoms: C_7  and  C_9
REMARK    5  A    between atoms: C_12  and  C_13
REMARK    6  A    between atoms: C_13  and  O_14
REMARK    7  A    between atoms: O_14  and  C_15
REMARK                            x       y       z     vdW  Elec       q    Type
REMARK                         _______ _______ _______ _____ _____    ______ ____
ROOT
ATOM      1  C   UNL     1       7.712   7.450  17.766  0.00  0.00    +0.000 A 
ATOM      2  C   UNL     1       7.904   6.562  18.797  0.00  0.00    +0.000 A 
ATOM      3  O   UNL     1       7.618   5.310  18.346  0.00  0.00    +0.000 OA
ATOM      4  C   UNL     1       7.248   5.495  17.038  0.00  0.00    +0.000 A 
ATOM      5  N   UNL     1       7.293   6.755  16.636  0.00  0.00    +0.000 NA
ENDROOT
BRANCH   1   7
ATOM      6  N   UNL     1       8.827   9.275  18.775  0.00  0.00    +0.000 N 
ATOM      7  C   UNL     1       7.930   8.895  17.804  0.00  0.00    +0.000 C 
ATOM      8  O   UNL     1       7.356   9.678  17.059  0.00  0.00    +0.000 OA
ATOM      9  H   UNL     1       9.198   8.515  19.340  0.00  0.00    +0.000 HD
BRANCH   6  12
ATOM     10  N   UNL     1      10.833  12.313  19.145  0.00  0.00    +0.000 N 
ATOM     11  C   UNL     1      10.424  11.190  18.334  0.00  0.00    +0.000 C 
ATOM     12  C   UNL     1       9.210  10.643  19.086  0.00  0.00    +0.000 C 
ATOM     13  C   UNL     1       9.540  10.941  20.551  0.00  0.00    +0.000 C 
ATOM     14  C   UNL     1      10.360  12.210  20.449  0.00  0.00    +0.000 C 
ATOM     15  O   UNL     1      10.595  12.975  21.370  0.00  0.00    +0.000 OA
BRANCH  10  17
ATOM     16  C   UNL     1      11.278  14.517  18.096  0.00  0.00    +0.000 C 
ATOM     17  C   UNL     1      11.853  13.256  18.721  0.00  0.00    +0.000 C 
ENDBRANCH  10  17
ENDBRANCH   6  12
ENDBRANCH   1   7
BRANCH   4  18
ATOM     18  C   UNL     1       6.904   4.266  16.262  0.00  0.00    +0.000 C 
BRANCH  18  19
ATOM     19  O   UNL     1       5.559   4.420  15.805  0.00  0.00    +0.000 OA
BRANCH  19  20
ATOM     20  C   UNL     1       4.586   4.560  16.755  0.00  0.00    +0.000 A 
ATOM     21  C   UNL     1       4.016   5.754  17.185  0.00  0.00    +0.000 A 
ATOM     22  C   UNL     1       3.007   5.736  18.159  0.00  0.00    +0.000 A 
ATOM     23  C   UNL     1       2.544   4.555  18.722  0.00  0.00    +0.000 A 
ATOM     24  N   UNL     1       1.562   4.595  19.639  0.00  0.00    +0.000 NA
ATOM     25  C   UNL     1       1.128   3.423  20.156  0.00  0.00    +0.000 A 
ATOM     26  C   UNL     1       1.639   2.189  19.801  0.00  0.00    +0.000 A 
ATOM     27  C   UNL     1       2.658   2.153  18.858  0.00  0.00    +0.000 A 
ATOM     28  C   UNL     1       3.130   3.346  18.294  0.00  0.00    +0.000 A 
ATOM     29  C   UNL     1       4.148   3.361  17.322  0.00  0.00    +0.000 A 
ENDBRANCH  19  20
ENDBRANCH  18  19
ENDBRANCH   4  18
TORSDOF 6
ENDMDL
MODEL 3
REMARK VINA RESULT:      -8.1      2.064     10.010
REMARK  Name = 
REMARK  7 active torsions:
REMARK  status: ('A' for Active; 'I' for Inactive)
REMARK    1  A    between atoms: C_1  and  C_2
REMARK    2  A    between atoms: C_2  and  N_3
REMARK    3  A    between atoms: C_5  and  N_6
REMARK    4  A    between atoms: C_7  and  C_9
REMARK    5  A    between atoms: C_12  and  C_13
REMARK    6  A    between atoms: C_13  and  O_14
REMARK    7  A    between atoms: O_14  and  C_15
REMARK                            x       y       z     vdW  Elec       q    Type
REMARK                         _______ _______ _______ _____ _____    ______ ____
ROOT
ATOM      1  C   UNL     1       7.808   7.614  17.924  0.00  0.00    +0.000 A 
ATOM      2  C   UNL     1       8.018   6.573  18.798  0.00  0.00    +0.000 A 
ATOM      3  O   UNL     1       7.564   5.427  18.220  0.00  0.00    +0.000 OA
ATOM      4  C   UNL     1       7.077   5.829  17.001  0.00  0.00    +0.000 A 
ATOM      5  N   UNL     1       7.205   7.126  16.770  0.00  0.00    +0.000 NA
ENDROOT
BRANCH   1   7
ATOM      6  N   UNL     1       9.174   9.177  19.056  0.00  0.00    +0.000 N 
ATOM      7  C   UNL     1       8.170   9.015  18.129  0.00  0.00    +0.000 C 
ATOM      8  O   UNL     1       7.621   9.940  17.547  0.00  0.00    +0.000 OA
ATOM      9  H   UNL     1       9.510   8.316  19.482  0.00  0.00    +0.000 HD
BRANCH   6  12
ATOM     10  N   UNL     1       9.500  12.383  20.790  0.00  0.00    +0.000 N 
ATOM     11  C   UNL     1       9.172  10.977  20.837  0.00  0.00    +0.000 C 
ATOM     12  C   UNL     1       9.713  10.450  19.506  0.00  0.00    +0.000 C 
ATOM     13  C   UNL     1       9.535  11.638  18.559  0.00  0.00    +0.000 C 
ATOM     14  C   UNL     1       9.704  12.824  19.486  0.00  0.00    +0.000 C 
ATOM     15  O   UNL     1       9.934  13.969  19.133  0.00  0.00    +0.000 OA
BRANCH  10  17
ATOM     16  C   UNL     1       8.464  12.670  23.026  0.00  0.00    +0.000 C 
ATOM     17  C   UNL     1       9.334  13.266  21.930  0.00  0.00    +0.000 C 
ENDBRANCH  10  17
ENDBRANCH   6  12
ENDBRANCH   1   7
BRANCH   4  18
ATOM     18  C   UNL     1       6.534   4.757  16.114  0.00  0.00    +0.000 C 
BRANCH  18  19
ATOM     19  O   UNL     1       5.123   4.965  16.020  0.00  0.00    +0.000 OA
BRANCH  19  20
ATOM     20  C   UNL     1       4.329   4.286  16.902  0.00  0.00    +0.000 A 
ATOM     21  C   UNL     1       4.169   2.906  16.976  0.00  0.00    +0.000 A 
ATOM     22  C   UNL     1       3.331   2.351  17.954  0.00  0.00    +0.000 A 
ATOM     23  C   UNL     1       2.642   3.135  18.868  0.00  0.00    +0.000 A 
ATOM     24  N   UNL     1       1.865   2.549  19.796  0.00  0.00    +0.000 NA
ATOM     25  C   UNL     1       1.219   3.345  20.678  0.00  0.00    +0.000 A 
ATOM     26  C   UNL     1       1.306   4.724  20.677  0.00  0.00    +0.000 A 
ATOM     27  C   UNL     1       2.104   5.326  19.713  0.00  0.00    +0.000 A 
ATOM     28  C   UNL     1       2.795   4.534  18.785  0.00  0.00    +0.000 A 
ATOM     29  C   UNL     1       3.631   5.094  17.801  0.00  0.00    +0.000 A 
ENDBRANCH  19  20
ENDBRANCH  18  19
ENDBRANCH   4  18
TORSDOF 6
ENDMDL
MODEL 4
REMARK VINA RESULT:      -7.9      5.243      8.489
REMARK  Name = 
REMARK  7 active torsions:
REMARK  status: ('A' for Active; 'I' for Inactive)
REMARK    1  A    between atoms: C_1  and  C_2
REMARK    2  A    between atoms: C_2  and  N_3
REMARK    3  A    between atoms: C_5  and  N_6
REMARK    4  A    between atoms: C_7  and  C_9
REMARK    5  A    between atoms: C_12  and  C_13
REMARK    6  A    between atoms: C_13  and  O_14
REMARK    7  A    between atoms: O_14  and  C_15
REMARK                            x       y       z     vdW  Elec       q    Type
REMARK                         _______ _______ _______ _____ _____    ______ ____
ROOT
ATOM      1  C   UNL     1       2.123   7.405  19.074  0.00  0.00    +0.000 A 
ATOM      2  C   UNL     1       1.847   7.080  20.381  0.00  0.00    +0.000 A 
ATOM      3  O   UNL     1       2.239   5.795  20.598  0.00  0.00    +0.000 OA
ATOM      4  C   UNL     1       2.736   5.380  19.388  0.00  0.00    +0.000 A 
ATOM      5  N   UNL     1       2.698   6.306  18.443  0.00  0.00    +0.000 NA
ENDROOT
BRANCH   1   7
ATOM      6  N   UNL     1       1.177   9.567  19.212  0.00  0.00    +0.000 N 
ATOM      7  C   UNL     1       1.890   8.693  18.424  0.00  0.00    +0.000 C 
ATOM      8  O   UNL     1       2.277   8.951  17.293  0.00  0.00    +0.000 OA
ATOM      9  H   UNL     1       0.895   9.199  20.118  0.00  0.00    +0.000 HD
BRANCH   6  12
ATOM     10  N   UNL     1       1.018  13.213  18.945  0.00  0.00    +0.000 N 
ATOM     11  C   UNL     1       1.807  12.003  18.929  0.00  0.00    +0.000 C 
ATOM     12  C   UNL     1       0.750  10.902  18.824  0.00  0.00    +0.000 C 
ATOM     13  C   UNL     1      -0.442  11.484  19.586  0.00  0.00    +0.000 C 
ATOM     14  C   UNL     1      -0.295  12.971  19.337  0.00  0.00    +0.000 C 
ATOM     15  O   UNL     1      -1.170  13.805  19.500  0.00  0.00    +0.000 OA
BRANCH  10  17
ATOM     16  C   UNL     1       2.912  14.558  18.072  0.00  0.00    +0.000 C 
ATOM     17  C   UNL     1       1.610  14.536  18.857  0.00  0.00    +0.000 C 
ENDBRANCH  10  17
ENDBRANCH   6  12
ENDBRANCH   1   7
BRANCH   4  18
ATOM     18  C   UNL     1       3.281   3.991  19.332  0.00  0.00    +0.000 C 
BRANCH  18  19
ATOM     19  O   UNL     1       4.692   4.085  19.540  0.00  0.00    +0.000 OA
BRANCH  19  20
ATOM     20  C   UNL     1       5.452   4.524  18.492  0.00  0.00    +0.000 A 
ATOM     21  C   UNL     1       6.474   5.467  18.550  0.00  0.00    +0.000 A 
ATOM     22  C   UNL     1       7.183   5.801  17.387  0.00  0.00    +0.000 A 
ATOM     23  C   UNL     1       6.903   5.219  16.158  0.00  0.00    +0.000 A 
ATOM     24  N   UNL     1       7.627   5.564  15.078  0.00  0.00    +0.000 NA
ATOM     25  C   UNL     1       7.334   4.967  13.901  0.00  0.00    +0.000 A 
ATOM     26  C   UNL     1       6.332   4.029  13.742  0.00  0.00    +0.000 A 
ATOM     27  C   UNL     1       5.583   3.680  14.858  0.00  0.00    +0.000 A 
ATOM     28  C   UNL     1       5.861   4.273  16.098  0.00  0.00    +0.000 A 
ATOM     29  C   UNL     1       5.143   3.940  17.262  0.00  0.00    +0.000 A 
ENDBRANCH  19  20
ENDBRANCH  18  19
ENDBRANCH   4  18
TORSDOF 6
ENDMDL
MODEL 5
REMARK VINA RESULT:      -7.8      2.282     10.623
REMARK  Name = 
REMARK  7 active torsions:
REMARK  status: ('A' for Active; 'I' for Inactive)
REMARK    1  A    between atoms: C_1  and  C_2
REMARK    2  A    between atoms: C_2  and  N_3
REMARK    3  A    between atoms: C_5  and  N_6
REMARK    4  A    between atoms: C_7  and  C_9
REMARK    5  A    between atoms: C_12  and  C_13
REMARK    6  A    between atoms: C_13  and  O_14
REMARK    7  A    between atoms: O_14  and  C_15
REMARK                            x       y       z     vdW  Elec       q    Type
REMARK                         _______ _______ _______ _____ _____    ______ ____
ROOT
ATOM      1  C   UNL     1       8.226   8.579  18.416  0.00  0.00    +0.000 A 
ATOM      2  C   UNL     1       8.403   7.280  18.828  0.00  0.00    +0.000 A 
ATOM      3  O   UNL     1       7.606   6.476  18.072  0.00  0.00    +0.000 OA
ATOM      4  C   UNL     1       6.959   7.338  17.223  0.00  0.00    +0.000 A 
ATOM      5  N   UNL     1       7.298   8.607  17.380  0.00  0.00    +0.000 NA
ENDROOT
BRANCH   1   7
ATOM      6  N   UNL     1       9.057  10.752  17.994  0.00  0.00    +0.000 N 
ATOM      7  C   UNL     1       8.907   9.763  18.938  0.00  0.00    +0.000 C 
ATOM      8  O   UNL     1       9.311   9.848  20.090  0.00  0.00    +0.000 OA
ATOM      9  H   UNL     1       8.700  10.524  17.069  0.00  0.00    +0.000 HD
BRANCH   6  12
ATOM     10  N   UNL     1       9.676  14.352  18.221  0.00  0.00    +0.000 N 
ATOM     11  C   UNL     1       8.838  13.217  18.531  0.00  0.00    +0.000 C 
ATOM     12  C   UNL     1       9.735  12.023  18.200  0.00  0.00    +0.000 C 
ATOM     13  C   UNL     1      10.588  12.536  17.038  0.00  0.00    +0.000 C 
ATOM     14  C   UNL     1      10.701  14.015  17.343  0.00  0.00    +0.000 C 
ATOM     15  O   UNL     1      11.523  14.775  16.859  0.00  0.00    +0.000 OA
BRANCH  10  17
ATOM     16  C   UNL     1       7.960  16.126  17.969  0.00  0.00    +0.000 C 
ATOM     17  C   UNL     1       9.303  15.716  18.551  0.00  0.00    +0.000 C 
ENDBRANCH  10  17
ENDBRANCH   6  12
ENDBRANCH   1   7
BRANCH   4  18
ATOM     18  C   UNL     1       6.025   6.723  16.233  0.00  0.00    +0.000 C 
BRANCH  18  19
ATOM     19  O   UNL     1       4.710   6.813  16.784  0.00  0.00    +0.000 OA
BRANCH  19  20
ATOM     20  C   UNL     1       4.160   5.665  17.285  0.00  0.00    +0.000 A 
ATOM     21  C   UNL     1       4.407   4.370  16.844  0.00  0.00    +0.000 A 
ATOM     22  C   UNL     1       3.781   3.285  17.475  0.00  0.00    +0.000 A 
ATOM     23  C   UNL     1       2.909   3.454  18.542  0.00  0.00    +0.000 A 
ATOM     24  N   UNL     1       2.350   2.377  19.121  0.00  0.00    +0.000 NA
ATOM     25  C   UNL     1       1.516   2.580  20.166  0.00  0.00    +0.000 A 
ATOM     26  C   UNL     1       1.201   3.828  20.669  0.00  0.00    +0.000 A 
ATOM     27  C   UNL     1       1.776   4.938  20.063  0.00  0.00    +0.000 A 
ATOM     28  C   UNL     1       2.651   4.768  18.981  0.00  0.00    +0.000 A 
ATOM     29  C   UNL     1       3.273   5.859  18.346  0.00  0.00    +0.000 A 
ENDBRANCH  19  20
ENDBRANCH  18  19
ENDBRANCH   4  18
TORSDOF 6
ENDMDL
MODEL 6
REMARK VINA RESULT:      -7.7      7.632     10.875
REMARK  Name = 
REMARK  7 active torsions:
REMARK  status: ('A' for Active; 'I' for Inactive)
REMARK    1  A    between atoms: C_1  and  C_2
REMARK    2  A    between atoms: C_2  and  N_3
REMARK    3  A    between atoms: C_5  and  N_6
REMARK    4  A    between atoms: C_7  and  C_9
REMARK    5  A    between atoms: C_12  and  C_13
REMARK    6  A    between atoms: C_13  and  O_14
REMARK    7  A    between atoms: O_14  and  C_15
REMARK                            x       y       z     vdW  Elec       q    Type
REMARK                         _______ _______ _______ _____ _____    ______ ____
ROOT
ATOM      1  C   UNL     1       0.401  10.860  20.515  0.00  0.00    +0.000 A 
ATOM      2  C   UNL     1       0.837  11.819  19.631  0.00  0.00    +0.000 A 
ATOM      3  O   UNL     1       1.412  11.195  18.567  0.00  0.00    +0.000 OA
ATOM      4  C   UNL     1       1.309   9.858  18.858  0.00  0.00    +0.000 A 
ATOM      5  N   UNL     1       0.706   9.601  20.008  0.00  0.00    +0.000 NA
ENDROOT
BRANCH   1   7
ATOM      6  N   UNL     1      -1.419  11.871  21.635  0.00  0.00    +0.000 N 
ATOM      7  C   UNL     1      -0.297  11.088  21.778  0.00  0.00    +0.000 C 
ATOM      8  O   UNL     1       0.092  10.639  22.848  0.00  0.00    +0.000 OA
ATOM      9  H   UNL     1      -1.598  12.198  20.689  0.00  0.00    +0.000 HD
BRANCH   6  12
ATOM     10  N   UNL     1      -4.166  13.490  23.430  0.00  0.00    +0.000 N 
ATOM     11  C   UNL     1      -3.717  12.690  22.315  0.00  0.00    +0.000 C 
ATOM     12  C   UNL     1      -2.290  12.308  22.714  0.00  0.00    +0.000 C 
ATOM     13  C   UNL     1      -1.816  13.517  23.524  0.00  0.00    +0.000 C 
ATOM     14  C   UNL     1      -3.100  14.011  24.158  0.00  0.00    +0.000 C 
ATOM     15  O   UNL     1      -3.172  14.768  25.111  0.00  0.00    +0.000 OA
BRANCH  10  17
ATOM     16  C   UNL     1      -6.465  12.841  24.100  0.00  0.00    +0.000 C 
ATOM     17  C   UNL     1      -5.542  13.930  23.576  0.00  0.00    +0.000 C 
ENDBRANCH  10  17
ENDBRANCH   6  12
ENDBRANCH   1   7
BRANCH   4  18
ATOM     18  C   UNL     1       1.836   8.909  17.833  0.00  0.00    +0.000 C 
BRANCH  18  19
ATOM     19  O   UNL     1       2.941   8.223  18.424  0.00  0.00    +0.000 OA
BRANCH  19  20
ATOM     20  C   UNL     1       2.904   6.856  18.422  0.00  0.00    +0.000 A 
ATOM     21  C   UNL     1       3.543   6.014  17.518  0.00  0.00    +0.000 A 
ATOM     22  C   UNL     1       3.428   4.622  17.658  0.00  0.00    +0.000 A 
ATOM     23  C   UNL     1       2.691   4.042  18.681  0.00  0.00    +0.000 A 
ATOM     24  N   UNL     1       2.629   2.702  18.778  0.00  0.00    +0.000 NA
ATOM     25  C   UNL     1       1.912   2.172  19.795  0.00  0.00    +0.000 A 
ATOM     26  C   UNL     1       1.236   2.925  20.735  0.00  0.00    +0.000 A 
ATOM     27  C   UNL     1       1.296   4.309  20.626  0.00  0.00    +0.000 A 
ATOM     28  C   UNL     1       2.035   4.896  19.590  0.00  0.00    +0.000 A 
ATOM     29  C   UNL     1       2.143   6.293  19.448  0.00  0.00    +0.000 A 
ENDBRANCH  19  20
ENDBRANCH  18  19
ENDBRANCH   4  18
TORSDOF 6
ENDMDL
MODEL 7
REMARK VINA RESULT:      -7.7      5.568      8.240
REMARK  Name = 
REMARK  7 active torsions:
REMARK  status: ('A' for Active; 'I' for Inactive)
REMARK    1  A    between atoms: C_1  and  C_2
REMARK    2  A    between atoms: C_2  and  N_3
REMARK    3  A    between atoms: C_5  and  N_6
REMARK    4  A    between atoms: C_7  and  C_9
REMARK    5  A    between atoms: C_12  and  C_13
REMARK    6  A    between atoms: C_13  and  O_14
REMARK    7  A    between atoms: O_14  and  C_15
REMARK                            x       y       z     vdW  Elec       q    Type
REMARK                         _______ _______ _______ _____ _____    ______ ____
ROOT
ATOM      1  C   UNL     1       2.290   7.086  18.807  0.00  0.00    +0.000 A 
ATOM      2  C   UNL     1       2.573   6.641  20.076  0.00  0.00    +0.000 A 
ATOM      3  O   UNL     1       2.935   5.331  20.003  0.00  0.00    +0.000 OA
ATOM      4  C   UNL     1       2.844   5.026  18.668  0.00  0.00    +0.000 A 
ATOM      5  N   UNL     1       2.469   6.042  17.906  0.00  0.00    +0.000 NA
ENDROOT
BRANCH   1   7
ATOM      6  N   UNL     1       1.046   9.026  19.339  0.00  0.00    +0.000 N 
ATOM      7  C   UNL     1       1.887   8.438  18.423  0.00  0.00    +0.000 C 
ATOM      8  O   UNL     1       2.252   8.975  17.386  0.00  0.00    +0.000 OA
ATOM      9  H   UNL     1       0.804   8.444  20.138  0.00  0.00    +0.000 HD
BRANCH   6  12
ATOM     10  N   UNL     1      -0.805  12.080  20.136  0.00  0.00    +0.000 N 
ATOM     11  C   UNL     1       0.172  11.088  20.520  0.00  0.00    +0.000 C 
ATOM     12  C   UNL     1       0.442  10.342  19.212  0.00  0.00    +0.000 C 
ATOM     13  C   UNL     1      -0.903  10.407  18.486  0.00  0.00    +0.000 C 
ATOM     14  C   UNL     1      -1.472  11.725  18.968  0.00  0.00    +0.000 C 
ATOM     15  O   UNL     1      -2.387  12.335  18.439  0.00  0.00    +0.000 OA
BRANCH  10  17
ATOM     16  C   UNL     1      -0.201  13.486  22.089  0.00  0.00    +0.000 C 
ATOM     17  C   UNL     1      -1.232  13.146  21.025  0.00  0.00    +0.000 C 
ENDBRANCH  10  17
ENDBRANCH   6  12
ENDBRANCH   1   7
BRANCH   4  18
ATOM     18  C   UNL     1       3.222   3.636  18.275  0.00  0.00    +0.000 C 
BRANCH  18  19
ATOM     19  O   UNL     1       4.632   3.512  18.475  0.00  0.00    +0.000 OA
BRANCH  19  20
ATOM     20  C   UNL     1       5.450   4.072  17.533  0.00  0.00    +0.000 A 
ATOM     21  C   UNL     1       6.463   4.998  17.764  0.00  0.00    +0.000 A 
ATOM     22  C   UNL     1       7.237   5.469  16.693  0.00  0.00    +0.000 A 
ATOM     23  C   UNL     1       7.031   5.041  15.389  0.00  0.00    +0.000 A 
ATOM     24  N   UNL     1       7.814   5.512  14.403  0.00  0.00    +0.000 NA
ATOM     25  C   UNL     1       7.593   5.063  13.147  0.00  0.00    +0.000 A 
ATOM     26  C   UNL     1       6.606   4.154  12.817  0.00  0.00    +0.000 A 
ATOM     27  C   UNL     1       5.795   3.675  13.838  0.00  0.00    +0.000 A 
ATOM     28  C   UNL     1       5.998   4.112  15.154  0.00  0.00    +0.000 A 
ATOM     29  C   UNL     1       5.215   3.642  16.226  0.00  0.00    +0.000 A 
ENDBRANCH  19  20
ENDBRANCH  18  19
ENDBRANCH   4  18
TORSDOF 6
ENDMDL
MODEL 8
REMARK VINA RESULT:      -7.7      5.233      8.037
REMARK  Name = 
REMARK  7 active torsions:
REMARK  status: ('A' for Active; 'I' for Inactive)
REMARK    1  A    between atoms: C_1  and  C_2
REMARK    2  A    between atoms: C_2  and  N_3
REMARK    3  A    between atoms: C_5  and  N_6
REMARK    4  A    between atoms: C_7  and  C_9
REMARK    5  A    between atoms: C_12  and  C_13
REMARK    6  A    between atoms: C_13  and  O_14
REMARK    7  A    between atoms: O_14  and  C_15
REMARK                            x       y       z     vdW  Elec       q    Type
REMARK                         _______ _______ _______ _____ _____    ______ ____
ROOT
ATOM      1  C   UNL     1       2.294   6.797  19.697  0.00  0.00    +0.000 A 
ATOM      2  C   UNL     1       1.694   6.021  20.660  0.00  0.00    +0.000 A 
ATOM      3  O   UNL     1       2.339   4.824  20.713  0.00  0.00    +0.000 OA
ATOM      4  C   UNL     1       3.316   4.920  19.754  0.00  0.00    +0.000 A 
ATOM      5  N   UNL     1       3.339   6.082  19.121  0.00  0.00    +0.000 NA
ENDROOT
BRANCH   1   7
ATOM      6  N   UNL     1       1.068   8.750  20.220  0.00  0.00    +0.000 N 
ATOM      7  C   UNL     1       1.938   8.166  19.328  0.00  0.00    +0.000 C 
ATOM      8  O   UNL     1       2.360   8.719  18.322  0.00  0.00    +0.000 OA
ATOM      9  H   UNL     1       0.778   8.154  20.992  0.00  0.00    +0.000 HD
BRANCH   6  12
ATOM     10  N   UNL     1      -1.068  11.668  20.777  0.00  0.00    +0.000 N 
ATOM     11  C   UNL     1      -0.255  10.607  21.322  0.00  0.00    +0.000 C 
ATOM     12  C   UNL     1       0.497  10.081  20.097  0.00  0.00    +0.000 C 
ATOM     13  C   UNL     1      -0.499  10.293  18.955  0.00  0.00    +0.000 C 
ATOM     14  C   UNL     1      -1.256  11.526  19.405  0.00  0.00    +0.000 C 
ATOM     15  O   UNL     1      -1.944  12.233  18.688  0.00  0.00    +0.000 OA
BRANCH  10  17
ATOM     16  C   UNL     1      -2.055  12.057  23.020  0.00  0.00    +0.000 C 
ATOM     17  C   UNL     1      -1.828  12.582  21.611  0.00  0.00    +0.000 C 
ENDBRANCH  10  17
ENDBRANCH   6  12
ENDBRANCH   1   7
BRANCH   4  18
ATOM     18  C   UNL     1       4.222   3.742  19.606  0.00  0.00    +0.000 C 
BRANCH  18  19
ATOM     19  O   UNL     1       5.562   4.238  19.621  0.00  0.00    +0.000 OA
BRANCH  19  20
ATOM     20  C   UNL     1       6.097   4.634  18.426  0.00  0.00    +0.000 A 
ATOM     21  C   UNL     1       7.050   5.629  18.237  0.00  0.00    +0.000 A 
ATOM     22  C   UNL     1       7.521   5.910  16.946  0.00  0.00    +0.000 A 
ATOM     23  C   UNL     1       7.068   5.222  15.829  0.00  0.00    +0.000 A 
ATOM     24  N   UNL     1       7.568   5.520  14.616  0.00  0.00    +0.000 NA
ATOM     25  C   UNL     1       7.112   4.820  13.553  0.00  0.00    +0.000 A 
ATOM     26  C   UNL     1       6.161   3.822  13.638  0.00  0.00    +0.000 A 
ATOM     27  C   UNL     1       5.643   3.522  14.892  0.00  0.00    +0.000 A 
ATOM     28  C   UNL     1       6.095   4.221  16.020  0.00  0.00    +0.000 A 
ATOM     29  C   UNL     1       5.615   3.942  17.313  0.00  0.00    +0.000 A 
ENDBRANCH  19  20
ENDBRANCH  18  19
ENDBRANCH   4  18
TORSDOF 6
ENDMDL
MODEL 9
REMARK VINA RESULT:      -7.7      1.963     10.353
REMARK  Name = 
REMARK  7 active torsions:
REMARK  status: ('A' for Active; 'I' for Inactive)
REMARK    1  A    between atoms: C_1  and  C_2
REMARK    2  A    between atoms: C_2  and  N_3
REMARK    3  A    between atoms: C_5  and  N_6
REMARK    4  A    between atoms: C_7  and  C_9
REMARK    5  A    between atoms: C_12  and  C_13
REMARK    6  A    between atoms: C_13  and  O_14
REMARK    7  A    between atoms: O_14  and  C_15
REMARK                            x       y       z     vdW  Elec       q    Type
REMARK                         _______ _______ _______ _____ _____    ______ ____
ROOT
ATOM      1  C   UNL     1       7.999   8.462  18.007  0.00  0.00    +0.000 A 
ATOM      2  C   UNL     1       7.061   8.259  17.022  0.00  0.00    +0.000 A 
ATOM      3  O   UNL     1       6.709   6.945  17.027  0.00  0.00    +0.000 OA
ATOM      4  C   UNL     1       7.469   6.391  18.026  0.00  0.00    +0.000 A 
ATOM      5  N   UNL     1       8.254   7.256  18.650  0.00  0.00    +0.000 NA
ENDROOT
BRANCH   1   7
ATOM      6  N   UNL     1       9.414   9.637  19.492  0.00  0.00    +0.000 N 
ATOM      7  C   UNL     1       8.629   9.731  18.367  0.00  0.00    +0.000 C 
ATOM      8  O   UNL     1       8.456  10.766  17.738  0.00  0.00    +0.000 OA
ATOM      9  H   UNL     1       9.435   8.718  19.928  0.00  0.00    +0.000 HD
BRANCH   6  12
ATOM     10  N   UNL     1      10.152  12.932  20.904  0.00  0.00    +0.000 N 
ATOM     11  C   UNL     1       9.262  11.799  20.803  0.00  0.00    +0.000 C 
ATOM     12  C   UNL     1      10.128  10.737  20.121  0.00  0.00    +0.000 C 
ATOM     13  C   UNL     1      11.045  11.561  19.215  0.00  0.00    +0.000 C 
ATOM     14  C   UNL     1      11.199  12.853  19.991  0.00  0.00    +0.000 C 
ATOM     15  O   UNL     1      12.066  13.689  19.805  0.00  0.00    +0.000 OA
BRANCH  10  17
ATOM     16  C   UNL     1       8.686  13.915  22.648  0.00  0.00    +0.000 C 
ATOM     17  C   UNL     1       9.816  14.129  21.653  0.00  0.00    +0.000 C 
ENDBRANCH  10  17
ENDBRANCH   6  12
ENDBRANCH   1   7
BRANCH   4  18
ATOM     18  C   UNL     1       7.267   4.935  18.290  0.00  0.00    +0.000 C 
BRANCH  18  19
ATOM     19  O   UNL     1       6.234   4.489  17.409  0.00  0.00    +0.000 OA
BRANCH  19  20
ATOM     20  C   UNL     1       4.961   4.443  17.908  0.00  0.00    +0.000 A 
ATOM     21  C   UNL     1       3.839   5.060  17.366  0.00  0.00    +0.000 A 
ATOM     22  C   UNL     1       2.588   4.904  17.982  0.00  0.00    +0.000 A 
ATOM     23  C   UNL     1       2.422   4.145  19.132  0.00  0.00    +0.000 A 
ATOM     24  N   UNL     1       1.197   4.014  19.672  0.00  0.00    +0.000 NA
ATOM     25  C   UNL     1       1.071   3.256  20.784  0.00  0.00    +0.000 A 
ATOM     26  C   UNL     1       2.127   2.614  21.401  0.00  0.00    +0.000 A 
ATOM     27  C   UNL     1       3.391   2.757  20.845  0.00  0.00    +0.000 A 
ATOM     28  C   UNL     1       3.561   3.529  19.687  0.00  0.00    +0.000 A 
ATOM     29  C   UNL     1       4.819   3.689  19.074  0.00  0.00    +0.000 A 
ENDBRANCH  19  20
ENDBRANCH  18  19
ENDBRANCH   4  18
TORSDOF 6
ENDMDL
