MODEL 1
REMARK VINA RESULT:      -6.4      0.000      0.000
REMARK  Name = 
REMARK  9 active torsions:
REMARK  status: ('A' for Active; 'I' for Inactive)
REMARK    1  A    between atoms: C_1  and  O_2
REMARK    2  A    between atoms: O_2  and  C_3
REMARK    3  A    between atoms: C_5  and  C_6
REMARK    4  A    between atoms: C_7  and  N_8
REMARK    5  A    between atoms: C_9  and  C_11
REMARK    6  A    between atoms: C_11  and  C_12
REMARK    7  A    between atoms: C_11  and  C_13
REMARK    8  A    between atoms: C_15  and  O_16
REMARK    9  A    between atoms: O_16  and  C_17
REMARK                            x       y       z     vdW  Elec       q    Type
REMARK                         _______ _______ _______ _____ _____    ______ ____
ROOT
ATOM      1  C   UNL     1       1.970   3.890  17.862  0.00  0.00    +0.000 A 
ATOM      2  C   UNL     1       1.939   5.279  18.022  0.00  0.00    +0.000 A 
ATOM      3  C   UNL     1       3.107   6.073  18.080  0.00  0.00    +0.000 A 
ATOM      4  C   UNL     1       2.860   7.553  18.151  0.00  0.00    +0.000 C 
ATOM      5  C   UNL     1       4.362   5.447  18.046  0.00  0.00    +0.000 A 
ATOM      6  C   UNL     1       4.386   4.047  17.868  0.00  0.00    +0.000 A 
ATOM      7  C   UNL     1       3.214   3.261  17.785  0.00  0.00    +0.000 A 
ENDROOT
BRANCH   5   8
ATOM      8  N   UNL     1       5.640   6.073  18.145  0.00  0.00    +0.000 N 
ATOM      9  C   UNL     1       6.375   6.712  17.161  0.00  0.00    +0.000 C 
ATOM     10  O   UNL     1       6.006   6.948  16.015  0.00  0.00    +0.000 OA
ATOM     11  H   UNL     1       5.970   6.214  19.090  0.00  0.00    +0.000 HD
BRANCH   9  12
ATOM     12  C   UNL     1       7.739   7.252  17.600  0.00  0.00    +0.000 C 
ATOM     13  C   UNL     1       7.746   8.775  17.632  0.00  0.00    +0.000 C 
ATOM     14  C   UNL     1       8.234   6.649  18.909  0.00  0.00    +0.000 C 
ENDBRANCH   9  12
ENDBRANCH   5   8
BRANCH   1  16
ATOM     15  C   UNL     1       0.448   2.478  19.029  0.00  0.00    +0.000 C 
ATOM     16  O   UNL     1       0.820   3.146  17.827  0.00  0.00    +0.000 OA
ENDBRANCH   1  16
BRANCH   7  17
ATOM     17  O   UNL     1       3.478   1.921  17.628  0.00  0.00    +0.000 OA
ATOM     18  C   UNL     1       3.889   1.168  18.764  0.00  0.00    +0.000 C 
ENDBRANCH   7  17
TORSDOF 4
ENDMDL
MODEL 2
REMARK VINA RESULT:      -6.3      2.332      5.827
REMARK  Name = 
REMARK  9 active torsions:
REMARK  status: ('A' for Active; 'I' for Inactive)
REMARK    1  A    between atoms: C_1  and  O_2
REMARK    2  A    between atoms: O_2  and  C_3
REMARK    3  A    between atoms: C_5  and  C_6
REMARK    4  A    between atoms: C_7  and  N_8
REMARK    5  A    between atoms: C_9  and  C_11
REMARK    6  A    between atoms: C_11  and  C_12
REMARK    7  A    between atoms: C_11  and  C_13
REMARK    8  A    between atoms: C_15  and  O_16
REMARK    9  A    between atoms: O_16  and  C_17
REMARK                            x       y       z     vdW  Elec       q    Type
REMARK                         _______ _______ _______ _____ _____    ______ ____
ROOT
ATOM      1  C   UNL     1       6.179   6.632  17.497  0.00  0.00    +0.000 A 
ATOM      2  C   UNL     1       4.867   7.065  17.287  0.00  0.00    +0.000 A 
ATOM      3  C   UNL     1       3.743   6.407  17.836  0.00  0.00    +0.000 A 
ATOM      4  C   UNL     1       2.427   7.086  17.580  0.00  0.00    +0.000 C 
ATOM      5  C   UNL     1       3.933   5.226  18.569  0.00  0.00    +0.000 A 
ATOM      6  C   UNL     1       5.261   4.804  18.791  0.00  0.00    +0.000 A 
ATOM      7  C   UNL     1       6.382   5.482  18.261  0.00  0.00    +0.000 A 
ENDROOT
BRANCH   5   8
ATOM      8  N   UNL     1       2.924   4.401  19.150  0.00  0.00    +0.000 N 
ATOM      9  C   UNL     1       2.076   4.678  20.209  0.00  0.00    +0.000 C 
ATOM     10  O   UNL     1       1.968   5.752  20.792  0.00  0.00    +0.000 OA
ATOM     11  H   UNL     1       2.687   3.580  18.611  0.00  0.00    +0.000 HD
BRANCH   9  12
ATOM     12  C   UNL     1       1.122   3.548  20.605  0.00  0.00    +0.000 C 
ATOM     13  C   UNL     1       0.679   2.746  19.388  0.00  0.00    +0.000 C 
ATOM     14  C   UNL     1       1.670   2.655  21.711  0.00  0.00    +0.000 C 
ENDBRANCH   9  12
ENDBRANCH   5   8
BRANCH   1  16
ATOM     15  C   UNL     1       7.770   8.399  17.653  0.00  0.00    +0.000 C 
ATOM     16  O   UNL     1       7.248   7.283  16.937  0.00  0.00    +0.000 OA
ENDBRANCH   1  16
BRANCH   7  17
ATOM     17  O   UNL     1       7.575   4.884  18.592  0.00  0.00    +0.000 OA
ATOM     18  C   UNL     1       8.272   5.343  19.746  0.00  0.00    +0.000 C 
ENDBRANCH   7  17
TORSDOF 4
ENDMDL
MODEL 3
REMARK VINA RESULT:      -6.3      2.642      3.559
REMARK  Name = 
REMARK  9 active torsions:
REMARK  status: ('A' for Active; 'I' for Inactive)
REMARK    1  A    between atoms: C_1  and  O_2
REMARK    2  A    between atoms: O_2  and  C_3
REMARK    3  A    between atoms: C_5  and  C_6
REMARK    4  A    between atoms: C_7  and  N_8
REMARK    5  A    between atoms: C_9  and  C_11
REMARK    6  A    between atoms: C_11  and  C_12
REMARK    7  A    between atoms: C_11  and  C_13
REMARK    8  A    between atoms: C_15  and  O_16
REMARK    9  A    between atoms: O_16  and  C_17
REMARK                            x       y       z     vdW  Elec       q    Type
REMARK                         _______ _______ _______ _____ _____    ______ ____
ROOT
ATOM      1  C   UNL     1       2.920   4.564  19.508  0.00  0.00    +0.000 A 
ATOM      2  C   UNL     1       4.261   4.957  19.554  0.00  0.00    +0.000 A 
ATOM      3  C   UNL     1       5.139   4.822  18.455  0.00  0.00    +0.000 A 
ATOM      4  C   UNL     1       6.510   5.397  18.670  0.00  0.00    +0.000 C 
ATOM      5  C   UNL     1       4.678   4.205  17.282  0.00  0.00    +0.000 A 
ATOM      6  C   UNL     1       3.319   3.826  17.238  0.00  0.00    +0.000 A 
ATOM      7  C   UNL     1       2.439   3.987  18.331  0.00  0.00    +0.000 A 
ENDROOT
BRANCH   5   8
ATOM      8  N   UNL     1       5.427   3.935  16.099  0.00  0.00    +0.000 N 
ATOM      9  C   UNL     1       5.758   4.792  15.063  0.00  0.00    +0.000 C 
ATOM     10  O   UNL     1       5.544   5.999  15.022  0.00  0.00    +0.000 OA
ATOM     11  H   UNL     1       5.920   3.052  16.102  0.00  0.00    +0.000 HD
BRANCH   9  12
ATOM     12  C   UNL     1       6.554   4.166  13.915  0.00  0.00    +0.000 C 
ATOM     13  C   UNL     1       5.630   3.607  12.841  0.00  0.00    +0.000 C 
ATOM     14  C   UNL     1       7.610   5.098  13.333  0.00  0.00    +0.000 C 
ENDBRANCH   9  12
ENDBRANCH   5   8
BRANCH   1  16
ATOM     15  C   UNL     1       2.209   3.697  21.610  0.00  0.00    +0.000 C 
ATOM     16  O   UNL     1       2.096   4.693  20.597  0.00  0.00    +0.000 OA
ENDBRANCH   1  16
BRANCH   7  17
ATOM     17  O   UNL     1       1.168   3.534  18.067  0.00  0.00    +0.000 OA
ATOM     18  C   UNL     1       0.753   2.296  18.634  0.00  0.00    +0.000 C 
ENDBRANCH   7  17
TORSDOF 4
ENDMDL
MODEL 4
REMARK VINA RESULT:      -6.3      2.312      5.911
REMARK  Name = 
REMARK  9 active torsions:
REMARK  status: ('A' for Active; 'I' for Inactive)
REMARK    1  A    between atoms: C_1  and  O_2
REMARK    2  A    between atoms: O_2  and  C_3
REMARK    3  A    between atoms: C_5  and  C_6
REMARK    4  A    between atoms: C_7  and  N_8
REMARK    5  A    between atoms: C_9  and  C_11
REMARK    6  A    between atoms: C_11  and  C_12
REMARK    7  A    between atoms: C_11  and  C_13
REMARK    8  A    between atoms: C_15  and  O_16
REMARK    9  A    between atoms: O_16  and  C_17
REMARK                            x       y       z     vdW  Elec       q    Type
REMARK                         _______ _______ _______ _____ _____    ______ ____
ROOT
ATOM      1  C   UNL     1       6.592   4.809  16.296  0.00  0.00    +0.000 A 
ATOM      2  C   UNL     1       5.455   4.022  16.086  0.00  0.00    +0.000 A 
ATOM      3  C   UNL     1       4.401   3.930  17.023  0.00  0.00    +0.000 A 
ATOM      4  C   UNL     1       3.223   3.116  16.568  0.00  0.00    +0.000 C 
ATOM      5  C   UNL     1       4.518   4.597  18.253  0.00  0.00    +0.000 A 
ATOM      6  C   UNL     1       5.660   5.401  18.450  0.00  0.00    +0.000 A 
ATOM      7  C   UNL     1       6.699   5.510  17.499  0.00  0.00    +0.000 A 
ENDROOT
BRANCH   5   8
ATOM      8  N   UNL     1       3.588   4.578  19.334  0.00  0.00    +0.000 N 
ATOM      9  C   UNL     1       3.291   3.546  20.209  0.00  0.00    +0.000 C 
ATOM     10  O   UNL     1       3.861   2.462  20.276  0.00  0.00    +0.000 OA
ATOM     11  H   UNL     1       3.227   5.484  19.598  0.00  0.00    +0.000 HD
BRANCH   9  12
ATOM     12  C   UNL     1       2.207   3.850  21.247  0.00  0.00    +0.000 C 
ATOM     13  C   UNL     1       1.249   4.924  20.747  0.00  0.00    +0.000 C 
ATOM     14  C   UNL     1       1.472   2.608  21.734  0.00  0.00    +0.000 C 
ENDBRANCH   9  12
ENDBRANCH   5   8
BRANCH   1  16
ATOM     15  C   UNL     1       7.227   4.905  14.002  0.00  0.00    +0.000 C 
ATOM     16  O   UNL     1       7.606   4.865  15.375  0.00  0.00    +0.000 OA
ENDBRANCH   1  16
BRANCH   7  17
ATOM     17  O   UNL     1       7.718   6.336  17.910  0.00  0.00    +0.000 OA
ATOM     18  C   UNL     1       7.661   7.716  17.563  0.00  0.00    +0.000 C 
ENDBRANCH   7  17
TORSDOF 4
ENDMDL
MODEL 5
REMARK VINA RESULT:      -6.2      2.872      3.578
REMARK  Name = 
REMARK  9 active torsions:
REMARK  status: ('A' for Active; 'I' for Inactive)
REMARK    1  A    between atoms: C_1  and  O_2
REMARK    2  A    between atoms: O_2  and  C_3
REMARK    3  A    between atoms: C_5  and  C_6
REMARK    4  A    between atoms: C_7  and  N_8
REMARK    5  A    between atoms: C_9  and  C_11
REMARK    6  A    between atoms: C_11  and  C_12
REMARK    7  A    between atoms: C_11  and  C_13
REMARK    8  A    between atoms: C_15  and  O_16
REMARK    9  A    between atoms: O_16  and  C_17
REMARK                            x       y       z     vdW  Elec       q    Type
REMARK                         _______ _______ _______ _____ _____    ______ ____
ROOT
ATOM      1  C   UNL     1       3.526   4.708  19.149  0.00  0.00    +0.000 A 
ATOM      2  C   UNL     1       4.000   5.824  18.452  0.00  0.00    +0.000 A 
ATOM      3  C   UNL     1       4.552   5.742  17.153  0.00  0.00    +0.000 A 
ATOM      4  C   UNL     1       4.908   7.065  16.536  0.00  0.00    +0.000 C 
ATOM      5  C   UNL     1       4.700   4.483  16.551  0.00  0.00    +0.000 A 
ATOM      6  C   UNL     1       4.204   3.364  17.253  0.00  0.00    +0.000 A 
ATOM      7  C   UNL     1       3.630   3.456  18.541  0.00  0.00    +0.000 A 
ENDROOT
BRANCH   5   8
ATOM      8  N   UNL     1       5.279   4.201  15.279  0.00  0.00    +0.000 N 
ATOM      9  C   UNL     1       6.580   4.404  14.850  0.00  0.00    +0.000 C 
ATOM     10  O   UNL     1       7.522   4.783  15.538  0.00  0.00    +0.000 OA
ATOM     11  H   UNL     1       4.710   3.625  14.673  0.00  0.00    +0.000 HD
BRANCH   9  12
ATOM     12  C   UNL     1       6.865   4.016  13.396  0.00  0.00    +0.000 C 
ATOM     13  C   UNL     1       5.600   3.542  12.692  0.00  0.00    +0.000 C 
ATOM     14  C   UNL     1       7.583   5.105  12.610  0.00  0.00    +0.000 C 
ENDBRANCH   9  12
ENDBRANCH   5   8
BRANCH   1  16
ATOM     15  C   UNL     1       1.861   5.644  20.572  0.00  0.00    +0.000 C 
ATOM     16  O   UNL     1       3.011   4.818  20.414  0.00  0.00    +0.000 OA
ENDBRANCH   1  16
BRANCH   7  17
ATOM     17  O   UNL     1       3.231   2.237  19.037  0.00  0.00    +0.000 OA
ATOM     18  C   UNL     1       1.846   1.908  19.008  0.00  0.00    +0.000 C 
ENDBRANCH   7  17
TORSDOF 4
ENDMDL
MODEL 6
REMARK VINA RESULT:      -6.2      2.381      5.101
REMARK  Name = 
REMARK  9 active torsions:
REMARK  status: ('A' for Active; 'I' for Inactive)
REMARK    1  A    between atoms: C_1  and  O_2
REMARK    2  A    between atoms: O_2  and  C_3
REMARK    3  A    between atoms: C_5  and  C_6
REMARK    4  A    between atoms: C_7  and  N_8
REMARK    5  A    between atoms: C_9  and  C_11
REMARK    6  A    between atoms: C_11  and  C_12
REMARK    7  A    between atoms: C_11  and  C_13
REMARK    8  A    between atoms: C_15  and  O_16
REMARK    9  A    between atoms: O_16  and  C_17
REMARK                            x       y       z     vdW  Elec       q    Type
REMARK                         _______ _______ _______ _____ _____    ______ ____
ROOT
ATOM      1  C   UNL     1       5.242   4.569  16.456  0.00  0.00    +0.000 A 
ATOM      2  C   UNL     1       3.981   4.130  16.869  0.00  0.00    +0.000 A 
ATOM      3  C   UNL     1       3.083   4.944  17.598  0.00  0.00    +0.000 A 
ATOM      4  C   UNL     1       1.739   4.325  17.857  0.00  0.00    +0.000 C 
ATOM      5  C   UNL     1       3.490   6.228  17.991  0.00  0.00    +0.000 A 
ATOM      6  C   UNL     1       4.758   6.670  17.557  0.00  0.00    +0.000 A 
ATOM      7  C   UNL     1       5.640   5.861  16.806  0.00  0.00    +0.000 A 
ENDROOT
BRANCH   5   8
ATOM      8  N   UNL     1       2.748   7.165  18.769  0.00  0.00    +0.000 N 
ATOM      9  C   UNL     1       2.199   8.377  18.383  0.00  0.00    +0.000 C 
ATOM     10  O   UNL     1       2.166   8.830  17.244  0.00  0.00    +0.000 OA
ATOM     11  H   UNL     1       2.442   6.820  19.669  0.00  0.00    +0.000 HD
BRANCH   9  12
ATOM     12  C   UNL     1       1.485   9.161  19.487  0.00  0.00    +0.000 C 
ATOM     13  C   UNL     1       0.220   9.828  18.962  0.00  0.00    +0.000 C 
ATOM     14  C   UNL     1       1.218   8.334  20.739  0.00  0.00    +0.000 C 
ENDBRANCH   9  12
ENDBRANCH   5   8
BRANCH   1  16
ATOM     15  C   UNL     1       6.136   3.910  14.349  0.00  0.00    +0.000 C 
ATOM     16  O   UNL     1       6.097   3.751  15.765  0.00  0.00    +0.000 OA
ENDBRANCH   1  16
BRANCH   7  17
ATOM     17  O   UNL     1       6.824   6.493  16.508  0.00  0.00    +0.000 OA
ATOM     18  C   UNL     1       7.407   7.348  17.486  0.00  0.00    +0.000 C 
ENDBRANCH   7  17
TORSDOF 4
ENDMDL
MODEL 7
REMARK VINA RESULT:      -6.1      1.713      5.829
REMARK  Name = 
REMARK  9 active torsions:
REMARK  status: ('A' for Active; 'I' for Inactive)
REMARK    1  A    between atoms: C_1  and  O_2
REMARK    2  A    between atoms: O_2  and  C_3
REMARK    3  A    between atoms: C_5  and  C_6
REMARK    4  A    between atoms: C_7  and  N_8
REMARK    5  A    between atoms: C_9  and  C_11
REMARK    6  A    between atoms: C_11  and  C_12
REMARK    7  A    between atoms: C_11  and  C_13
REMARK    8  A    between atoms: C_15  and  O_16
REMARK    9  A    between atoms: O_16  and  C_17
REMARK                            x       y       z     vdW  Elec       q    Type
REMARK                         _______ _______ _______ _____ _____    ______ ____
ROOT
ATOM      1  C   UNL     1       6.168   6.793  17.497  0.00  0.00    +0.000 A 
ATOM      2  C   UNL     1       4.876   7.307  17.353  0.00  0.00    +0.000 A 
ATOM      3  C   UNL     1       3.737   6.698  17.928  0.00  0.00    +0.000 A 
ATOM      4  C   UNL     1       2.455   7.459  17.745  0.00  0.00    +0.000 C 
ATOM      5  C   UNL     1       3.886   5.486  18.620  0.00  0.00    +0.000 A 
ATOM      6  C   UNL     1       5.195   4.982  18.776  0.00  0.00    +0.000 A 
ATOM      7  C   UNL     1       6.333   5.609  18.220  0.00  0.00    +0.000 A 
ENDROOT
BRANCH   5   8
ATOM      8  N   UNL     1       2.854   4.703  19.218  0.00  0.00    +0.000 N 
ATOM      9  C   UNL     1       1.747   4.121  18.623  0.00  0.00    +0.000 C 
ATOM     10  O   UNL     1       1.500   4.089  17.422  0.00  0.00    +0.000 OA
ATOM     11  H   UNL     1       3.048   4.396  20.161  0.00  0.00    +0.000 HD
BRANCH   9  12
ATOM     12  C   UNL     1       0.808   3.367  19.568  0.00  0.00    +0.000 C 
ATOM     13  C   UNL     1       0.528   1.958  19.062  0.00  0.00    +0.000 C 
ATOM     14  C   UNL     1       1.280   3.371  21.017  0.00  0.00    +0.000 C 
ENDBRANCH   9  12
ENDBRANCH   5   8
BRANCH   1  16
ATOM     15  C   UNL     1       7.884   8.437  17.653  0.00  0.00    +0.000 C 
ATOM     16  O   UNL     1       7.251   7.397  16.913  0.00  0.00    +0.000 OA
ENDBRANCH   1  16
BRANCH   7  17
ATOM     17  O   UNL     1       7.500   4.934  18.486  0.00  0.00    +0.000 OA
ATOM     18  C   UNL     1       8.268   5.318  19.622  0.00  0.00    +0.000 C 
ENDBRANCH   7  17
TORSDOF 4
ENDMDL
MODEL 8
REMARK VINA RESULT:      -6.1      2.208      5.743
REMARK  Name = 
REMARK  9 active torsions:
REMARK  status: ('A' for Active; 'I' for Inactive)
REMARK    1  A    between atoms: C_1  and  O_2
REMARK    2  A    between atoms: O_2  and  C_3
REMARK    3  A    between atoms: C_5  and  C_6
REMARK    4  A    between atoms: C_7  and  N_8
REMARK    5  A    between atoms: C_9  and  C_11
REMARK    6  A    between atoms: C_11  and  C_12
REMARK    7  A    between atoms: C_11  and  C_13
REMARK    8  A    between atoms: C_15  and  O_16
REMARK    9  A    between atoms: O_16  and  C_17
REMARK                            x       y       z     vdW  Elec       q    Type
REMARK                         _______ _______ _______ _____ _____    ______ ____
ROOT
ATOM      1  C   UNL     1       5.782   6.822  17.221  0.00  0.00    +0.000 A 
ATOM      2  C   UNL     1       4.560   7.440  17.504  0.00  0.00    +0.000 A 
ATOM      3  C   UNL     1       3.463   6.752  18.071  0.00  0.00    +0.000 A 
ATOM      4  C   UNL     1       2.276   7.614  18.393  0.00  0.00    +0.000 C 
ATOM      5  C   UNL     1       3.568   5.372  18.302  0.00  0.00    +0.000 A 
ATOM      6  C   UNL     1       4.809   4.759  18.030  0.00  0.00    +0.000 A 
ATOM      7  C   UNL     1       5.911   5.458  17.487  0.00  0.00    +0.000 A 
ENDROOT
BRANCH   5   8
ATOM      8  N   UNL     1       2.557   4.506  18.815  0.00  0.00    +0.000 N 
ATOM      9  C   UNL     1       2.060   4.414  20.105  0.00  0.00    +0.000 C 
ATOM     10  O   UNL     1       2.339   5.151  21.045  0.00  0.00    +0.000 OA
ATOM     11  H   UNL     1       2.020   4.018  18.111  0.00  0.00    +0.000 HD
BRANCH   9  12
ATOM     12  C   UNL     1       0.988   3.343  20.326  0.00  0.00    +0.000 C 
ATOM     13  C   UNL     1       0.837   2.451  19.101  0.00  0.00    +0.000 C 
ATOM     14  C   UNL     1       1.197   2.535  21.601  0.00  0.00    +0.000 C 
ENDBRANCH   9  12
ENDBRANCH   5   8
BRANCH   1  16
ATOM     15  C   UNL     1       7.692   8.209  17.544  0.00  0.00    +0.000 C 
ATOM     16  O   UNL     1       6.822   7.513  16.655  0.00  0.00    +0.000 OA
ENDBRANCH   1  16
BRANCH   7  17
ATOM     17  O   UNL     1       7.010   4.656  17.291  0.00  0.00    +0.000 OA
ATOM     18  C   UNL     1       7.262   4.151  15.984  0.00  0.00    +0.000 C 
ENDBRANCH   7  17
TORSDOF 4
ENDMDL
MODEL 9
REMARK VINA RESULT:      -6.0      3.434      5.205
REMARK  Name = 
REMARK  9 active torsions:
REMARK  status: ('A' for Active; 'I' for Inactive)
REMARK    1  A    between atoms: C_1  and  O_2
REMARK    2  A    between atoms: O_2  and  C_3
REMARK    3  A    between atoms: C_5  and  C_6
REMARK    4  A    between atoms: C_7  and  N_8
REMARK    5  A    between atoms: C_9  and  C_11
REMARK    6  A    between atoms: C_11  and  C_12
REMARK    7  A    between atoms: C_11  and  C_13
REMARK    8  A    between atoms: C_15  and  O_16
REMARK    9  A    between atoms: O_16  and  C_17
REMARK                            x       y       z     vdW  Elec       q    Type
REMARK                         _______ _______ _______ _____ _____    ______ ____
ROOT
ATOM      1  C   UNL     1       2.086   4.125  18.505  0.00  0.00    +0.000 A 
ATOM      2  C   UNL     1       2.497   5.334  17.937  0.00  0.00    +0.000 A 
ATOM      3  C   UNL     1       2.482   6.560  18.642  0.00  0.00    +0.000 A 
ATOM      4  C   UNL     1       3.059   7.726  17.891  0.00  0.00    +0.000 C 
ATOM      5  C   UNL     1       1.970   6.591  19.948  0.00  0.00    +0.000 A 
ATOM      6  C   UNL     1       1.572   5.364  20.520  0.00  0.00    +0.000 A 
ATOM      7  C   UNL     1       1.614   4.138  19.819  0.00  0.00    +0.000 A 
ENDROOT
BRANCH   5   8
ATOM      8  N   UNL     1       1.826   7.734  20.789  0.00  0.00    +0.000 N 
ATOM      9  C   UNL     1       0.670   8.294  21.307  0.00  0.00    +0.000 C 
ATOM     10  O   UNL     1      -0.464   7.838  21.214  0.00  0.00    +0.000 OA
ATOM     11  H   UNL     1       2.689   8.073  21.193  0.00  0.00    +0.000 HD
BRANCH   9  12
ATOM     12  C   UNL     1       0.869   9.553  22.157  0.00  0.00    +0.000 C 
ATOM     13  C   UNL     1       0.888  10.807  21.292  0.00  0.00    +0.000 C 
ATOM     14  C   UNL     1      -0.122   9.666  23.308  0.00  0.00    +0.000 C 
ENDBRANCH   9  12
ENDBRANCH   5   8
BRANCH   1  16
ATOM     15  C   UNL     1       3.219   2.098  17.975  0.00  0.00    +0.000 C 
ATOM     16  O   UNL     1       2.096   2.956  17.790  0.00  0.00    +0.000 OA
ENDBRANCH   1  16
BRANCH   7  17
ATOM     17  O   UNL     1       1.165   3.076  20.569  0.00  0.00    +0.000 OA
ATOM     18  C   UNL     1       1.858   2.745  21.767  0.00  0.00    +0.000 C 
ENDBRANCH   7  17
TORSDOF 4
ENDMDL
