MODEL 1
REMARK VINA RESULT:      -8.8      0.000      0.000
REMARK  Name = 
REMARK  6 active torsions:
REMARK  status: ('A' for Active; 'I' for Inactive)
REMARK    1  A    between atoms: C_2  and  C_3
REMARK    2  A    between atoms: C_3  and  O_4
REMARK    3  A    between atoms: O_4  and  C_5
REMARK    4  A    between atoms: N_13  and  C_14
REMARK    5  A    between atoms: C_19  and  S_20
REMARK    6  A    between atoms: S_20  and  N_23
REMARK                            x       y       z     vdW  Elec       q    Type
REMARK                         _______ _______ _______ _____ _____    ______ ____
ROOT
ATOM      1  C   UNL     1      -0.325  10.161  19.238  0.00  0.00    +0.000 A 
ATOM      2  C   UNL     1      -0.940  10.773  18.141  0.00  0.00    +0.000 A 
ATOM      3  C   UNL     1      -1.771  11.866  18.309  0.00  0.00    +0.000 A 
ATOM      4  C   UNL     1      -2.046  12.336  19.588  0.00  0.00    +0.000 A 
ATOM      5  C   UNL     1      -1.584  11.676  20.749  0.00  0.00    +0.000 A 
ATOM      6  C   UNL     1      -1.944  12.057  22.078  0.00  0.00    +0.000 A 
ATOM      7  C   UNL     1      -1.435  11.366  23.188  0.00  0.00    +0.000 A 
ATOM      8  C   UNL     1      -0.566  10.306  23.014  0.00  0.00    +0.000 A 
ATOM      9  C   UNL     1      -0.205   9.912  21.726  0.00  0.00    +0.000 A 
ATOM     10  C   UNL     1      -0.689  10.568  20.565  0.00  0.00    +0.000 A 
ENDROOT
BRANCH   1  13
ATOM     11  O   UNL     1       2.292  10.353  17.892  0.00  0.00    +0.000 OA
ATOM     12  C   UNL     1       1.837   9.291  18.314  0.00  0.00    +0.000 C 
ATOM     13  N   UNL     1       0.644   9.134  19.012  0.00  0.00    +0.000 N 
ATOM     14  H   UNL     1       0.557   8.282  19.547  0.00  0.00    +0.000 HD
BRANCH  12  15
ATOM     15  C   UNL     1       2.597   7.990  18.056  0.00  0.00    +0.000 C 
BRANCH  15  16
ATOM     16  O   UNL     1       2.666   7.166  19.214  0.00  0.00    +0.000 OA
BRANCH  16  17
ATOM     17  C   UNL     1       2.261   5.865  19.037  0.00  0.00    +0.000 A 
ATOM     18  C   UNL     1       2.068   5.245  17.796  0.00  0.00    +0.000 A 
ATOM     19  C   UNL     1       1.621   3.924  17.726  0.00  0.00    +0.000 A 
ATOM     20  C   UNL     1       1.379   3.216  18.896  0.00  0.00    +0.000 A 
ATOM     21  F   UNL     1       0.928   1.956  18.802  0.00  0.00    +0.000 F 
ATOM     22  C   UNL     1       1.604   3.808  20.136  0.00  0.00    +0.000 A 
ATOM     23 CL   UNL     1       1.313   2.927  21.587  0.00  0.00    +0.000 Cl
ATOM     24  C   UNL     1       2.055   5.129  20.209  0.00  0.00    +0.000 A 
ENDBRANCH  16  17
ENDBRANCH  15  16
ENDBRANCH  12  15
ENDBRANCH   1  13
BRANCH   6  25
ATOM     25  S   UNL     1      -3.189  13.290  22.478  0.00  0.00    +0.000 S 
ATOM     26  O   UNL     1      -3.285  13.430  23.917  0.00  0.00    +0.000 OA
ATOM     27  O   UNL     1      -2.905  14.460  21.675  0.00  0.00    +0.000 OA
BRANCH  25  28
ATOM     28  N   UNL     1      -4.628  12.552  21.975  0.00  0.00    +0.000 N 
ATOM     29  C   UNL     1      -5.756  13.071  22.656  0.00  0.00    +0.000 A 
ATOM     30  N   UNL     1      -6.303  12.364  23.613  0.00  0.00    +0.000 NA
ATOM     31  C   UNL     1      -7.380  13.065  24.127  0.00  0.00    +0.000 A 
ATOM     32  C   UNL     1      -7.699  14.236  23.469  0.00  0.00    +0.000 A 
ATOM     33  S   UNL     1      -6.569  14.506  22.205  0.00  0.00    +0.000 S 
ATOM     34  H   UNL     1      -4.538  11.565  22.217  0.00  0.00    +0.000 HD
ENDBRANCH  25  28
ENDBRANCH   6  25
TORSDOF 6
ENDMDL
MODEL 2
REMARK VINA RESULT:      -8.5      3.488      4.443
REMARK  Name = 
REMARK  6 active torsions:
REMARK  status: ('A' for Active; 'I' for Inactive)
REMARK    1  A    between atoms: C_2  and  C_3
REMARK    2  A    between atoms: C_3  and  O_4
REMARK    3  A    between atoms: O_4  and  C_5
REMARK    4  A    between atoms: N_13  and  C_14
REMARK    5  A    between atoms: C_19  and  S_20
REMARK    6  A    between atoms: S_20  and  N_23
REMARK                            x       y       z     vdW  Elec       q    Type
REMARK                         _______ _______ _______ _____ _____    ______ ____
ROOT
ATOM      1  C   UNL     1       2.094   7.790  19.469  0.00  0.00    +0.000 A 
ATOM      2  C   UNL     1       2.238   8.191  18.137  0.00  0.00    +0.000 A 
ATOM      3  C   UNL     1       1.730   9.401  17.699  0.00  0.00    +0.000 A 
ATOM      4  C   UNL     1       1.019  10.212  18.577  0.00  0.00    +0.000 A 
ATOM      5  C   UNL     1       0.704   9.804  19.892  0.00  0.00    +0.000 A 
ATOM      6  C   UNL     1      -0.124  10.554  20.782  0.00  0.00    +0.000 A 
ATOM      7  C   UNL     1      -0.384  10.096  22.082  0.00  0.00    +0.000 A 
ATOM      8  C   UNL     1       0.166   8.911  22.530  0.00  0.00    +0.000 A 
ATOM      9  C   UNL     1       0.973   8.159  21.678  0.00  0.00    +0.000 A 
ATOM     10  C   UNL     1       1.269   8.566  20.352  0.00  0.00    +0.000 A 
ENDROOT
BRANCH   1  13
ATOM     11  O   UNL     1       1.433   4.971  18.916  0.00  0.00    +0.000 OA
ATOM     12  C   UNL     1       2.352   5.305  19.661  0.00  0.00    +0.000 C 
ATOM     13  N   UNL     1       2.762   6.609  19.919  0.00  0.00    +0.000 N 
ATOM     14  H   UNL     1       3.694   6.711  20.293  0.00  0.00    +0.000 HD
BRANCH  12  15
ATOM     15  C   UNL     1       3.137   4.233  20.418  0.00  0.00    +0.000 C 
BRANCH  15  16
ATOM     16  O   UNL     1       3.735   3.282  19.546  0.00  0.00    +0.000 OA
BRANCH  16  17
ATOM     17  C   UNL     1       4.575   3.803  18.592  0.00  0.00    +0.000 A 
ATOM     18  C   UNL     1       4.438   3.615  17.211  0.00  0.00    +0.000 A 
ATOM     19  C   UNL     1       5.369   4.161  16.325  0.00  0.00    +0.000 A 
ATOM     20  C   UNL     1       6.431   4.909  16.817  0.00  0.00    +0.000 A 
ATOM     21  F   UNL     1       7.324   5.403  15.948  0.00  0.00    +0.000 F 
ATOM     22  C   UNL     1       6.558   5.136  18.186  0.00  0.00    +0.000 A 
ATOM     23 CL   UNL     1       7.869   6.071  18.796  0.00  0.00    +0.000 Cl
ATOM     24  C   UNL     1       5.625   4.593  19.074  0.00  0.00    +0.000 A 
ENDBRANCH  16  17
ENDBRANCH  15  16
ENDBRANCH  12  15
ENDBRANCH   1  13
BRANCH   6  25
ATOM     25  S   UNL     1      -1.056  12.017  20.309  0.00  0.00    +0.000 S 
ATOM     26  O   UNL     1      -0.152  13.141  20.171  0.00  0.00    +0.000 OA
ATOM     27  O   UNL     1      -1.894  11.647  19.190  0.00  0.00    +0.000 OA
BRANCH  25  28
ATOM     28  N   UNL     1      -1.994  12.329  21.684  0.00  0.00    +0.000 N 
ATOM     29  C   UNL     1      -1.784  13.637  22.184  0.00  0.00    +0.000 A 
ATOM     30  N   UNL     1      -1.045  13.798  23.254  0.00  0.00    +0.000 NA
ATOM     31  C   UNL     1      -0.982  15.148  23.554  0.00  0.00    +0.000 A 
ATOM     32  C   UNL     1      -1.771  15.970  22.775  0.00  0.00    +0.000 A 
ATOM     33  S   UNL     1      -2.567  15.031  21.579  0.00  0.00    +0.000 S 
ATOM     34  H   UNL     1      -1.685  11.665  22.394  0.00  0.00    +0.000 HD
ENDBRANCH  25  28
ENDBRANCH   6  25
TORSDOF 6
ENDMDL
MODEL 3
REMARK VINA RESULT:      -8.5      3.275      4.244
REMARK  Name = 
REMARK  6 active torsions:
REMARK  status: ('A' for Active; 'I' for Inactive)
REMARK    1  A    between atoms: C_2  and  C_3
REMARK    2  A    between atoms: C_3  and  O_4
REMARK    3  A    between atoms: O_4  and  C_5
REMARK    4  A    between atoms: N_13  and  C_14
REMARK    5  A    between atoms: C_19  and  S_20
REMARK    6  A    between atoms: S_20  and  N_23
REMARK                            x       y       z     vdW  Elec       q    Type
REMARK                         _______ _______ _______ _____ _____    ______ ____
ROOT
ATOM      1  C   UNL     1       2.112   7.758  19.429  0.00  0.00    +0.000 A 
ATOM      2  C   UNL     1       2.282   8.138  18.094  0.00  0.00    +0.000 A 
ATOM      3  C   UNL     1       1.788   9.343  17.628  0.00  0.00    +0.000 A 
ATOM      4  C   UNL     1       1.064  10.170  18.479  0.00  0.00    +0.000 A 
ATOM      5  C   UNL     1       0.723   9.783  19.795  0.00  0.00    +0.000 A 
ATOM      6  C   UNL     1      -0.119  10.551  20.658  0.00  0.00    +0.000 A 
ATOM      7  C   UNL     1      -0.404  10.114  21.960  0.00  0.00    +0.000 A 
ATOM      8  C   UNL     1       0.132   8.933  22.436  0.00  0.00    +0.000 A 
ATOM      9  C   UNL     1       0.952   8.165  21.610  0.00  0.00    +0.000 A 
ATOM     10  C   UNL     1       1.274   8.550  20.284  0.00  0.00    +0.000 A 
ENDROOT
BRANCH   1  13
ATOM     11  O   UNL     1       1.491   4.934  18.853  0.00  0.00    +0.000 OA
ATOM     12  C   UNL     1       2.375   5.274  19.636  0.00  0.00    +0.000 C 
ATOM     13  N   UNL     1       2.766   6.581  19.909  0.00  0.00    +0.000 N 
ATOM     14  H   UNL     1       3.681   6.689  20.322  0.00  0.00    +0.000 HD
BRANCH  12  15
ATOM     15  C   UNL     1       3.132   4.208  20.428  0.00  0.00    +0.000 C 
BRANCH  15  16
ATOM     16  O   UNL     1       3.788   3.271  19.584  0.00  0.00    +0.000 OA
BRANCH  16  17
ATOM     17  C   UNL     1       4.611   3.813  18.627  0.00  0.00    +0.000 A 
ATOM     18  C   UNL     1       4.460   3.641  17.245  0.00  0.00    +0.000 A 
ATOM     19  C   UNL     1       5.374   4.209  16.356  0.00  0.00    +0.000 A 
ATOM     20  C   UNL     1       6.434   4.963  16.845  0.00  0.00    +0.000 A 
ATOM     21  F   UNL     1       7.311   5.479  15.972  0.00  0.00    +0.000 F 
ATOM     22  C   UNL     1       6.573   5.175  18.215  0.00  0.00    +0.000 A 
ATOM     23 CL   UNL     1       7.880   6.117  18.821  0.00  0.00    +0.000 Cl
ATOM     24  C   UNL     1       5.657   4.609  19.107  0.00  0.00    +0.000 A 
ENDBRANCH  16  17
ENDBRANCH  15  16
ENDBRANCH  12  15
ENDBRANCH   1  13
BRANCH   6  25
ATOM     25  S   UNL     1      -1.035  12.010  20.145  0.00  0.00    +0.000 S 
ATOM     26  O   UNL     1      -0.115  13.110  19.939  0.00  0.00    +0.000 OA
ATOM     27  O   UNL     1      -1.906  11.609  19.062  0.00  0.00    +0.000 OA
BRANCH  25  28
ATOM     28  N   UNL     1      -1.935  12.396  21.527  0.00  0.00    +0.000 N 
ATOM     29  C   UNL     1      -2.930  13.367  21.257  0.00  0.00    +0.000 A 
ATOM     30  N   UNL     1      -2.733  14.604  21.639  0.00  0.00    +0.000 NA
ATOM     31  C   UNL     1      -3.829  15.365  21.272  0.00  0.00    +0.000 A 
ATOM     32  C   UNL     1      -4.886  14.665  20.726  0.00  0.00    +0.000 A 
ATOM     33  S   UNL     1      -4.467  13.005  20.601  0.00  0.00    +0.000 S 
ATOM     34  H   UNL     1      -1.273  12.797  22.192  0.00  0.00    +0.000 HD
ENDBRANCH  25  28
ENDBRANCH   6  25
TORSDOF 6
ENDMDL
MODEL 4
REMARK VINA RESULT:      -8.5      3.540      4.582
REMARK  Name = 
REMARK  6 active torsions:
REMARK  status: ('A' for Active; 'I' for Inactive)
REMARK    1  A    between atoms: C_2  and  C_3
REMARK    2  A    between atoms: C_3  and  O_4
REMARK    3  A    between atoms: O_4  and  C_5
REMARK    4  A    between atoms: N_13  and  C_14
REMARK    5  A    between atoms: C_19  and  S_20
REMARK    6  A    between atoms: S_20  and  N_23
REMARK                            x       y       z     vdW  Elec       q    Type
REMARK                         _______ _______ _______ _____ _____    ______ ____
ROOT
ATOM      1  C   UNL     1       2.055   7.848  19.481  0.00  0.00    +0.000 A 
ATOM      2  C   UNL     1       2.210   8.281  18.160  0.00  0.00    +0.000 A 
ATOM      3  C   UNL     1       1.716   9.506  17.750  0.00  0.00    +0.000 A 
ATOM      4  C   UNL     1       1.008  10.301  18.644  0.00  0.00    +0.000 A 
ATOM      5  C   UNL     1       0.682   9.863  19.947  0.00  0.00    +0.000 A 
ATOM      6  C   UNL     1      -0.145  10.599  20.851  0.00  0.00    +0.000 A 
ATOM      7  C   UNL     1      -0.416  10.111  22.138  0.00  0.00    +0.000 A 
ATOM      8  C   UNL     1       0.120   8.909  22.559  0.00  0.00    +0.000 A 
ATOM      9  C   UNL     1       0.925   8.172  21.692  0.00  0.00    +0.000 A 
ATOM     10  C   UNL     1       1.232   8.609  20.378  0.00  0.00    +0.000 A 
ENDROOT
BRANCH   1  13
ATOM     11  O   UNL     1       1.807   5.122  18.385  0.00  0.00    +0.000 OA
ATOM     12  C   UNL     1       2.495   5.383  19.371  0.00  0.00    +0.000 C 
ATOM     13  N   UNL     1       2.709   6.650  19.905  0.00  0.00    +0.000 N 
ATOM     14  H   UNL     1       3.517   6.743  20.503  0.00  0.00    +0.000 HD
BRANCH  12  15
ATOM     15  C   UNL     1       3.181   4.249  20.133  0.00  0.00    +0.000 C 
BRANCH  15  16
ATOM     16  O   UNL     1       4.088   3.519  19.316  0.00  0.00    +0.000 OA
BRANCH  16  17
ATOM     17  C   UNL     1       5.044   4.271  18.677  0.00  0.00    +0.000 A 
ATOM     18  C   UNL     1       5.975   5.098  19.318  0.00  0.00    +0.000 A 
ATOM     19  C   UNL     1       6.886   5.850  18.572  0.00  0.00    +0.000 A 
ATOM     20  C   UNL     1       6.877   5.765  17.185  0.00  0.00    +0.000 A 
ATOM     21  F   UNL     1       7.746   6.513  16.491  0.00  0.00    +0.000 F 
ATOM     22  C   UNL     1       5.982   4.916  16.538  0.00  0.00    +0.000 A 
ATOM     23 CL   UNL     1       5.977   4.803  14.820  0.00  0.00    +0.000 Cl
ATOM     24  C   UNL     1       5.071   4.161  17.283  0.00  0.00    +0.000 A 
ENDBRANCH  16  17
ENDBRANCH  15  16
ENDBRANCH  12  15
ENDBRANCH   1  13
BRANCH   6  25
ATOM     25  S   UNL     1      -1.061  12.082  20.410  0.00  0.00    +0.000 S 
ATOM     26  O   UNL     1      -0.155  13.212  20.364  0.00  0.00    +0.000 OA
ATOM     27  O   UNL     1      -1.851  11.764  19.240  0.00  0.00    +0.000 OA
BRANCH  25  28
ATOM     28  N   UNL     1      -2.056  12.326  21.758  0.00  0.00    +0.000 N 
ATOM     29  C   UNL     1      -1.876  13.612  22.324  0.00  0.00    +0.000 A 
ATOM     30  N   UNL     1      -1.182  13.729  23.429  0.00  0.00    +0.000 NA
ATOM     31  C   UNL     1      -1.141  15.065  23.791  0.00  0.00    +0.000 A 
ATOM     32  C   UNL     1      -1.904  15.916  23.018  0.00  0.00    +0.000 A 
ATOM     33  S   UNL     1      -2.644  15.027  21.750  0.00  0.00    +0.000 S 
ATOM     34  H   UNL     1      -1.771  11.633  22.449  0.00  0.00    +0.000 HD
ENDBRANCH  25  28
ENDBRANCH   6  25
TORSDOF 6
ENDMDL
MODEL 5
REMARK VINA RESULT:      -8.4      4.028      4.990
REMARK  Name = 
REMARK  6 active torsions:
REMARK  status: ('A' for Active; 'I' for Inactive)
REMARK    1  A    between atoms: C_2  and  C_3
REMARK    2  A    between atoms: C_3  and  O_4
REMARK    3  A    between atoms: O_4  and  C_5
REMARK    4  A    between atoms: N_13  and  C_14
REMARK    5  A    between atoms: C_19  and  S_20
REMARK    6  A    between atoms: S_20  and  N_23
REMARK                            x       y       z     vdW  Elec       q    Type
REMARK                         _______ _______ _______ _____ _____    ______ ____
ROOT
ATOM      1  C   UNL     1       2.109   7.803  19.471  0.00  0.00    +0.000 A 
ATOM      2  C   UNL     1       2.332   8.212  18.152  0.00  0.00    +0.000 A 
ATOM      3  C   UNL     1       1.888   9.444  17.705  0.00  0.00    +0.000 A 
ATOM      4  C   UNL     1       1.165  10.270  18.556  0.00  0.00    +0.000 A 
ATOM      5  C   UNL     1       0.772   9.860  19.850  0.00  0.00    +0.000 A 
ATOM      6  C   UNL     1      -0.072  10.630  20.708  0.00  0.00    +0.000 A 
ATOM      7  C   UNL     1      -0.411  10.169  21.988  0.00  0.00    +0.000 A 
ATOM      8  C   UNL     1       0.075   8.961  22.448  0.00  0.00    +0.000 A 
ATOM      9  C   UNL     1       0.896   8.189  21.627  0.00  0.00    +0.000 A 
ATOM     10  C   UNL     1       1.270   8.598  20.321  0.00  0.00    +0.000 A 
ENDROOT
BRANCH   1  13
ATOM     11  O   UNL     1       1.418   5.015  18.804  0.00  0.00    +0.000 OA
ATOM     12  C   UNL     1       2.290   5.308  19.620  0.00  0.00    +0.000 C 
ATOM     13  N   UNL     1       2.712   6.594  19.938  0.00  0.00    +0.000 N 
ATOM     14  H   UNL     1       3.618   6.663  20.380  0.00  0.00    +0.000 HD
BRANCH  12  15
ATOM     15  C   UNL     1       2.990   4.198  20.405  0.00  0.00    +0.000 C 
BRANCH  15  16
ATOM     16  O   UNL     1       3.606   3.240  19.554  0.00  0.00    +0.000 OA
BRANCH  16  17
ATOM     17  C   UNL     1       4.464   3.752  18.612  0.00  0.00    +0.000 A 
ATOM     18  C   UNL     1       4.317   3.606  17.227  0.00  0.00    +0.000 A 
ATOM     19  C   UNL     1       5.267   4.138  16.353  0.00  0.00    +0.000 A 
ATOM     20  C   UNL     1       6.360   4.830  16.862  0.00  0.00    +0.000 A 
ATOM     21  F   UNL     1       7.270   5.312  16.003  0.00  0.00    +0.000 F 
ATOM     22  C   UNL     1       6.498   5.015  18.235  0.00  0.00    +0.000 A 
ATOM     23 CL   UNL     1       7.846   5.881  18.865  0.00  0.00    +0.000 Cl
ATOM     24  C   UNL     1       5.546   4.486  19.111  0.00  0.00    +0.000 A 
ENDBRANCH  16  17
ENDBRANCH  15  16
ENDBRANCH  12  15
ENDBRANCH   1  13
BRANCH   6  25
ATOM     25  S   UNL     1      -0.928  12.131  20.208  0.00  0.00    +0.000 S 
ATOM     26  O   UNL     1      -1.323  12.021  18.818  0.00  0.00    +0.000 OA
ATOM     27  O   UNL     1      -1.939  12.399  21.208  0.00  0.00    +0.000 OA
BRANCH  25  28
ATOM     28  N   UNL     1       0.295  13.300  20.263  0.00  0.00    +0.000 N 
ATOM     29  C   UNL     1      -0.187  14.587  19.920  0.00  0.00    +0.000 A 
ATOM     30  N   UNL     1       0.081  15.071  18.733  0.00  0.00    +0.000 NA
ATOM     31  C   UNL     1      -0.485  16.330  18.626  0.00  0.00    +0.000 A 
ATOM     32  C   UNL     1      -1.069  16.822  19.776  0.00  0.00    +0.000 A 
ATOM     33  S   UNL     1      -0.968  15.641  21.017  0.00  0.00    +0.000 S 
ATOM     34  H   UNL     1       0.983  13.023  19.563  0.00  0.00    +0.000 HD
ENDBRANCH  25  28
ENDBRANCH   6  25
TORSDOF 6
ENDMDL
MODEL 6
REMARK VINA RESULT:      -8.3      3.318      4.403
REMARK  Name = 
REMARK  6 active torsions:
REMARK  status: ('A' for Active; 'I' for Inactive)
REMARK    1  A    between atoms: C_2  and  C_3
REMARK    2  A    between atoms: C_3  and  O_4
REMARK    3  A    between atoms: O_4  and  C_5
REMARK    4  A    between atoms: N_13  and  C_14
REMARK    5  A    between atoms: C_19  and  S_20
REMARK    6  A    between atoms: S_20  and  N_23
REMARK                            x       y       z     vdW  Elec       q    Type
REMARK                         _______ _______ _______ _____ _____    ______ ____
ROOT
ATOM      1  C   UNL     1       2.103   7.827  19.456  0.00  0.00    +0.000 A 
ATOM      2  C   UNL     1       2.223   8.207  18.116  0.00  0.00    +0.000 A 
ATOM      3  C   UNL     1       1.791   9.450  17.687  0.00  0.00    +0.000 A 
ATOM      4  C   UNL     1       1.180  10.317  18.584  0.00  0.00    +0.000 A 
ATOM      5  C   UNL     1       0.889   9.943  19.915  0.00  0.00    +0.000 A 
ATOM      6  C   UNL     1       0.156  10.759  20.830  0.00  0.00    +0.000 A 
ATOM      7  C   UNL     1      -0.085  10.331  22.144  0.00  0.00    +0.000 A 
ATOM      8  C   UNL     1       0.392   9.110  22.581  0.00  0.00    +0.000 A 
ATOM      9  C   UNL     1       1.104   8.293  21.704  0.00  0.00    +0.000 A 
ATOM     10  C   UNL     1       1.376   8.668  20.363  0.00  0.00    +0.000 A 
ENDROOT
BRANCH   1  13
ATOM     11  O   UNL     1       1.568   5.082  18.521  0.00  0.00    +0.000 OA
ATOM     12  C   UNL     1       2.348   5.332  19.438  0.00  0.00    +0.000 C 
ATOM     13  N   UNL     1       2.697   6.601  19.890  0.00  0.00    +0.000 N 
ATOM     14  H   UNL     1       3.554   6.657  20.421  0.00  0.00    +0.000 HD
BRANCH  12  15
ATOM     15  C   UNL     1       3.005   4.183  20.204  0.00  0.00    +0.000 C 
BRANCH  15  16
ATOM     16  O   UNL     1       3.910   3.442  19.395  0.00  0.00    +0.000 OA
BRANCH  16  17
ATOM     17  C   UNL     1       4.854   4.187  18.730  0.00  0.00    +0.000 A 
ATOM     18  C   UNL     1       5.850   4.955  19.346  0.00  0.00    +0.000 A 
ATOM     19  C   UNL     1       6.743   5.705  18.577  0.00  0.00    +0.000 A 
ATOM     20  C   UNL     1       6.649   5.678  17.191  0.00  0.00    +0.000 A 
ATOM     21  F   UNL     1       7.503   6.425  16.476  0.00  0.00    +0.000 F 
ATOM     22  C   UNL     1       5.688   4.888  16.566  0.00  0.00    +0.000 A 
ATOM     23 CL   UNL     1       5.578   4.846  14.848  0.00  0.00    +0.000 Cl
ATOM     24  C   UNL     1       4.796   4.134  17.333  0.00  0.00    +0.000 A 
ENDBRANCH  16  17
ENDBRANCH  15  16
ENDBRANCH  12  15
ENDBRANCH   1  13
BRANCH   6  25
ATOM     25  S   UNL     1      -0.680  12.287  20.382  0.00  0.00    +0.000 S 
ATOM     26  O   UNL     1       0.169  13.061  19.500  0.00  0.00    +0.000 OA
ATOM     27  O   UNL     1      -2.012  11.931  19.942  0.00  0.00    +0.000 OA
BRANCH  25  28
ATOM     28  N   UNL     1      -0.739  13.131  21.848  0.00  0.00    +0.000 N 
ATOM     29  C   UNL     1      -2.064  13.478  22.208  0.00  0.00    +0.000 A 
ATOM     30  N   UNL     1      -2.465  14.714  22.045  0.00  0.00    +0.000 NA
ATOM     31  C   UNL     1      -3.781  14.815  22.461  0.00  0.00    +0.000 A 
ATOM     32  C   UNL     1      -4.312  13.682  23.042  0.00  0.00    +0.000 A 
ATOM     33  S   UNL     1      -3.148  12.421  23.003  0.00  0.00    +0.000 S 
ATOM     34  H   UNL     1      -0.215  13.993  21.699  0.00  0.00    +0.000 HD
ENDBRANCH  25  28
ENDBRANCH   6  25
TORSDOF 6
ENDMDL
MODEL 7
REMARK VINA RESULT:      -8.3      2.026      2.171
REMARK  Name = 
REMARK  6 active torsions:
REMARK  status: ('A' for Active; 'I' for Inactive)
REMARK    1  A    between atoms: C_2  and  C_3
REMARK    2  A    between atoms: C_3  and  O_4
REMARK    3  A    between atoms: O_4  and  C_5
REMARK    4  A    between atoms: N_13  and  C_14
REMARK    5  A    between atoms: C_19  and  S_20
REMARK    6  A    between atoms: S_20  and  N_23
REMARK                            x       y       z     vdW  Elec       q    Type
REMARK                         _______ _______ _______ _____ _____    ______ ____
ROOT
ATOM      1  C   UNL     1       0.647   9.678  19.439  0.00  0.00    +0.000 A 
ATOM      2  C   UNL     1       0.136  10.379  18.341  0.00  0.00    +0.000 A 
ATOM      3  C   UNL     1      -0.747  11.429  18.517  0.00  0.00    +0.000 A 
ATOM      4  C   UNL     1      -1.180  11.764  19.794  0.00  0.00    +0.000 A 
ATOM      5  C   UNL     1      -0.826  11.005  20.932  0.00  0.00    +0.000 A 
ATOM      6  C   UNL     1      -1.345  11.245  22.242  0.00  0.00    +0.000 A 
ATOM      7  C   UNL     1      -0.939  10.461  23.332  0.00  0.00    +0.000 A 
ATOM      8  C   UNL     1      -0.019   9.445  23.159  0.00  0.00    +0.000 A 
ATOM      9  C   UNL     1       0.497   9.189  21.889  0.00  0.00    +0.000 A 
ATOM     10  C   UNL     1       0.122   9.943  20.748  0.00  0.00    +0.000 A 
ENDROOT
BRANCH   1  13
ATOM     11  O   UNL     1       2.351   9.268  17.067  0.00  0.00    +0.000 OA
ATOM     12  C   UNL     1       2.395   8.535  18.053  0.00  0.00    +0.000 C 
ATOM     13  N   UNL     1       1.670   8.702  19.229  0.00  0.00    +0.000 N 
ATOM     14  H   UNL     1       2.030   8.219  20.039  0.00  0.00    +0.000 HD
BRANCH  12  15
ATOM     15  C   UNL     1       3.294   7.298  18.033  0.00  0.00    +0.000 C 
BRANCH  15  16
ATOM     16  O   UNL     1       3.174   6.523  19.220  0.00  0.00    +0.000 OA
BRANCH  16  17
ATOM     17  C   UNL     1       2.507   5.330  19.081  0.00  0.00    +0.000 A 
ATOM     18  C   UNL     1       2.060   4.797  17.866  0.00  0.00    +0.000 A 
ATOM     19  C   UNL     1       1.360   3.588  17.837  0.00  0.00    +0.000 A 
ATOM     20  C   UNL     1       1.116   2.905  19.022  0.00  0.00    +0.000 A 
ATOM     21  F   UNL     1       0.422   1.760  18.971  0.00  0.00    +0.000 F 
ATOM     22  C   UNL     1       1.589   3.406  20.233  0.00  0.00    +0.000 A 
ATOM     23 CL   UNL     1       1.297   2.554  21.700  0.00  0.00    +0.000 Cl
ATOM     24  C   UNL     1       2.293   4.613  20.263  0.00  0.00    +0.000 A 
ENDBRANCH  16  17
ENDBRANCH  15  16
ENDBRANCH  12  15
ENDBRANCH   1  13
BRANCH   6  25
ATOM     25  S   UNL     1      -2.671  12.402  22.612  0.00  0.00    +0.000 S 
ATOM     26  O   UNL     1      -3.455  12.636  21.416  0.00  0.00    +0.000 OA
ATOM     27  O   UNL     1      -3.335  11.923  23.805  0.00  0.00    +0.000 OA
BRANCH  25  28
ATOM     28  N   UNL     1      -1.839  13.843  22.925  0.00  0.00    +0.000 N 
ATOM     29  C   UNL     1      -2.689  14.839  23.464  0.00  0.00    +0.000 A 
ATOM     30  N   UNL     1      -3.095  15.815  22.691  0.00  0.00    +0.000 NA
ATOM     31  C   UNL     1      -3.907  16.661  23.428  0.00  0.00    +0.000 A 
ATOM     32  C   UNL     1      -4.003  16.372  24.774  0.00  0.00    +0.000 A 
ATOM     33  S   UNL     1      -3.103  14.952  25.119  0.00  0.00    +0.000 S 
ATOM     34  H   UNL     1      -1.497  14.173  22.023  0.00  0.00    +0.000 HD
ENDBRANCH  25  28
ENDBRANCH   6  25
TORSDOF 6
ENDMDL
MODEL 8
REMARK VINA RESULT:      -8.3      4.102      6.192
REMARK  Name = 
REMARK  6 active torsions:
REMARK  status: ('A' for Active; 'I' for Inactive)
REMARK    1  A    between atoms: C_2  and  C_3
REMARK    2  A    between atoms: C_3  and  O_4
REMARK    3  A    between atoms: O_4  and  C_5
REMARK    4  A    between atoms: N_13  and  C_14
REMARK    5  A    between atoms: C_19  and  S_20
REMARK    6  A    between atoms: S_20  and  N_23
REMARK                            x       y       z     vdW  Elec       q    Type
REMARK                         _______ _______ _______ _____ _____    ______ ____
ROOT
ATOM      1  C   UNL     1       3.102   5.939  18.647  0.00  0.00    +0.000 A 
ATOM      2  C   UNL     1       3.023   5.039  19.714  0.00  0.00    +0.000 A 
ATOM      3  C   UNL     1       2.224   5.305  20.812  0.00  0.00    +0.000 A 
ATOM      4  C   UNL     1       1.528   6.506  20.887  0.00  0.00    +0.000 A 
ATOM      5  C   UNL     1       1.679   7.525  19.920  0.00  0.00    +0.000 A 
ATOM      6  C   UNL     1       1.076   8.817  20.024  0.00  0.00    +0.000 A 
ATOM      7  C   UNL     1       1.255   9.778  19.018  0.00  0.00    +0.000 A 
ATOM      8  C   UNL     1       2.015   9.489  17.901  0.00  0.00    +0.000 A 
ATOM      9  C   UNL     1       2.618   8.238  17.781  0.00  0.00    +0.000 A 
ATOM     10  C   UNL     1       2.477   7.226  18.765  0.00  0.00    +0.000 A 
ENDROOT
BRANCH   1  13
ATOM     11  O   UNL     1       3.433   3.258  17.466  0.00  0.00    +0.000 OA
ATOM     12  C   UNL     1       3.975   4.260  17.003  0.00  0.00    +0.000 C 
ATOM     13  N   UNL     1       3.816   5.562  17.467  0.00  0.00    +0.000 N 
ATOM     14  H   UNL     1       4.068   6.293  16.818  0.00  0.00    +0.000 HD
BRANCH  12  15
ATOM     15  C   UNL     1       4.941   4.120  15.827  0.00  0.00    +0.000 C 
BRANCH  15  16
ATOM     16  O   UNL     1       6.288   3.948  16.250  0.00  0.00    +0.000 OA
BRANCH  16  17
ATOM     17  C   UNL     1       6.841   5.020  16.907  0.00  0.00    +0.000 A 
ATOM     18  C   UNL     1       6.945   6.316  16.385  0.00  0.00    +0.000 A 
ATOM     19  C   UNL     1       7.558   7.330  17.125  0.00  0.00    +0.000 A 
ATOM     20  C   UNL     1       8.055   7.054  18.392  0.00  0.00    +0.000 A 
ATOM     21  F   UNL     1       8.659   8.039  19.072  0.00  0.00    +0.000 F 
ATOM     22  C   UNL     1       7.922   5.780  18.938  0.00  0.00    +0.000 A 
ATOM     23 CL   UNL     1       8.529   5.440  20.514  0.00  0.00    +0.000 Cl
ATOM     24  C   UNL     1       7.307   4.764  18.201  0.00  0.00    +0.000 A 
ENDBRANCH  16  17
ENDBRANCH  15  16
ENDBRANCH  12  15
ENDBRANCH   1  13
BRANCH   6  25
ATOM     25  S   UNL     1       0.208   9.417  21.480  0.00  0.00    +0.000 S 
ATOM     26  O   UNL     1      -0.629   8.361  22.013  0.00  0.00    +0.000 OA
ATOM     27  O   UNL     1       1.194  10.035  22.340  0.00  0.00    +0.000 OA
BRANCH  25  28
ATOM     28  N   UNL     1      -0.843  10.580  20.841  0.00  0.00    +0.000 N 
ATOM     29  C   UNL     1      -0.813  11.786  21.582  0.00  0.00    +0.000 A 
ATOM     30  N   UNL     1      -1.800  12.056  22.400  0.00  0.00    +0.000 NA
ATOM     31  C   UNL     1      -1.556  13.275  23.008  0.00  0.00    +0.000 A 
ATOM     32  C   UNL     1      -0.449  13.960  22.550  0.00  0.00    +0.000 A 
ATOM     33  S   UNL     1       0.357  13.015  21.365  0.00  0.00    +0.000 S 
ATOM     34  H   UNL     1      -1.781  10.186  20.916  0.00  0.00    +0.000 HD
ENDBRANCH  25  28
ENDBRANCH   6  25
TORSDOF 6
ENDMDL
MODEL 9
REMARK VINA RESULT:      -8.3      4.141      5.309
REMARK  Name = 
REMARK  6 active torsions:
REMARK  status: ('A' for Active; 'I' for Inactive)
REMARK    1  A    between atoms: C_2  and  C_3
REMARK    2  A    between atoms: C_3  and  O_4
REMARK    3  A    between atoms: O_4  and  C_5
REMARK    4  A    between atoms: N_13  and  C_14
REMARK    5  A    between atoms: C_19  and  S_20
REMARK    6  A    between atoms: S_20  and  N_23
REMARK                            x       y       z     vdW  Elec       q    Type
REMARK                         _______ _______ _______ _____ _____    ______ ____
ROOT
ATOM      1  C   UNL     1       2.013   7.867  19.485  0.00  0.00    +0.000 A 
ATOM      2  C   UNL     1       2.078   8.192  18.127  0.00  0.00    +0.000 A 
ATOM      3  C   UNL     1       1.566   9.389  17.656  0.00  0.00    +0.000 A 
ATOM      4  C   UNL     1       0.929  10.261  18.530  0.00  0.00    +0.000 A 
ATOM      5  C   UNL     1       0.692   9.931  19.883  0.00  0.00    +0.000 A 
ATOM      6  C   UNL     1      -0.064  10.747  20.781  0.00  0.00    +0.000 A 
ATOM      7  C   UNL     1      -0.248  10.366  22.119  0.00  0.00    +0.000 A 
ATOM      8  C   UNL     1       0.308   9.194  22.596  0.00  0.00    +0.000 A 
ATOM      9  C   UNL     1       1.044   8.379  21.736  0.00  0.00    +0.000 A 
ATOM     10  C   UNL     1       1.261   8.707  20.374  0.00  0.00    +0.000 A 
ENDROOT
BRANCH   1  13
ATOM     11  O   UNL     1       1.488   5.042  18.824  0.00  0.00    +0.000 OA
ATOM     12  C   UNL     1       2.339   5.387  19.641  0.00  0.00    +0.000 C 
ATOM     13  N   UNL     1       2.685   6.697  19.957  0.00  0.00    +0.000 N 
ATOM     14  H   UNL     1       3.585   6.820  20.399  0.00  0.00    +0.000 HD
BRANCH  12  15
ATOM     15  C   UNL     1       3.103   4.323  20.430  0.00  0.00    +0.000 C 
BRANCH  15  16
ATOM     16  O   UNL     1       3.684   3.337  19.585  0.00  0.00    +0.000 OA
BRANCH  16  17
ATOM     17  C   UNL     1       4.542   3.814  18.625  0.00  0.00    +0.000 A 
ATOM     18  C   UNL     1       4.418   3.584  17.249  0.00  0.00    +0.000 A 
ATOM     19  C   UNL     1       5.367   4.087  16.357  0.00  0.00    +0.000 A 
ATOM     20  C   UNL     1       6.435   4.834  16.837  0.00  0.00    +0.000 A 
ATOM     21  F   UNL     1       7.345   5.287  15.963  0.00  0.00    +0.000 F 
ATOM     22  C   UNL     1       6.550   5.103  18.199  0.00  0.00    +0.000 A 
ATOM     23 CL   UNL     1       7.868   6.037  18.794  0.00  0.00    +0.000 Cl
ATOM     24  C   UNL     1       5.599   4.603  19.093  0.00  0.00    +0.000 A 
ENDBRANCH  16  17
ENDBRANCH  15  16
ENDBRANCH  12  15
ENDBRANCH   1  13
BRANCH   6  25
ATOM     25  S   UNL     1      -0.996  12.203  20.289  0.00  0.00    +0.000 S 
ATOM     26  O   UNL     1      -2.138  11.799  19.494  0.00  0.00    +0.000 OA
ATOM     27  O   UNL     1      -1.212  12.995  21.480  0.00  0.00    +0.000 OA
BRANCH  25  28
ATOM     28  N   UNL     1       0.065  12.991  19.229  0.00  0.00    +0.000 N 
ATOM     29  C   UNL     1       0.877  13.937  19.900  0.00  0.00    +0.000 A 
ATOM     30  N   UNL     1       0.597  15.211  19.785  0.00  0.00    +0.000 NA
ATOM     31  C   UNL     1       1.519  15.939  20.519  0.00  0.00    +0.000 A 
ATOM     32  C   UNL     1       2.548  15.208  21.077  0.00  0.00    +0.000 A 
ATOM     33  S   UNL     1       2.318  13.543  20.732  0.00  0.00    +0.000 S 
ATOM     34  H   UNL     1      -0.522  13.493  18.563  0.00  0.00    +0.000 HD
ENDBRANCH  25  28
ENDBRANCH   6  25
TORSDOF 6
ENDMDL
