MODEL 1
REMARK VINA RESULT:      -8.0      0.000      0.000
REMARK  Name = 
REMARK  7 active torsions:
REMARK  status: ('A' for Active; 'I' for Inactive)
REMARK    1  A    between atoms: C_3  and  C_4
REMARK    2  A    between atoms: C_4  and  C_5
REMARK    3  A    between atoms: C_13  and  O_14
REMARK    4  A    between atoms: N_17  and  C_18
REMARK    5  A    between atoms: C_18  and  C_19
REMARK    6  A    between atoms: C_19  and  C_20
REMARK    7  A    between atoms: C_20  and  N_21
REMARK                            x       y       z     vdW  Elec       q    Type
REMARK                         _______ _______ _______ _____ _____    ______ ____
ROOT
ATOM      1  O   UNL     1       5.307   7.368  16.571  0.00  0.00    +0.000 OA
ATOM      2  C   UNL     1       5.924   6.658  17.363  0.00  0.00    +0.000 A 
ATOM      3  C   UNL     1       5.326   5.368  17.858  0.00  0.00    +0.000 A 
ATOM      4  C   UNL     1       6.011   4.680  18.792  0.00  0.00    +0.000 A 
ATOM      5  C   UNL     1       7.280   5.131  19.292  0.00  0.00    +0.000 A 
ATOM      6  C   UNL     1       7.837   6.241  18.806  0.00  0.00    +0.000 A 
ATOM      7  N   UNL     1       7.196   6.993  17.841  0.00  0.00    +0.000 N 
ENDROOT
BRANCH   4   8
ATOM      8  O   UNL     1       5.614   3.488  19.348  0.00  0.00    +0.000 OA
ATOM      9  H   UNL     1       5.016   3.676  20.094  0.00  0.00    +0.000 HD
ENDBRANCH   4   8
BRANCH   3  10
ATOM     10  C   UNL     1       3.963   5.006  17.315  0.00  0.00    +0.000 C 
BRANCH  10  11
ATOM     11  C   UNL     1       2.930   4.724  18.387  0.00  0.00    +0.000 A 
ATOM     12  C   UNL     1       2.557   5.761  19.255  0.00  0.00    +0.000 A 
ATOM     13  F   UNL     1       3.062   6.991  19.073  0.00  0.00    +0.000 F 
ATOM     14  C   UNL     1       1.656   5.576  20.299  0.00  0.00    +0.000 A 
ATOM     15  C   UNL     1       1.072   4.330  20.485  0.00  0.00    +0.000 A 
ATOM     16  C   UNL     1       1.388   3.289  19.615  0.00  0.00    +0.000 A 
ATOM     17  C   UNL     1       2.308   3.480  18.572  0.00  0.00    +0.000 A 
ATOM     18 CL   UNL     1       2.587   2.134  17.527  0.00  0.00    +0.000 Cl
ENDBRANCH  10  11
ENDBRANCH   3  10
BRANCH   7  19
ATOM     19  C   UNL     1       7.822   8.227  17.369  0.00  0.00    +0.000 C 
BRANCH  19  20
ATOM     20  C   UNL     1       8.565   8.947  18.493  0.00  0.00    +0.000 C 
BRANCH  20  21
ATOM     21  C   UNL     1       8.742  10.429  18.184  0.00  0.00    +0.000 C 
BRANCH  21  22
ATOM     22  N   UNL     1       9.731  11.038  19.052  0.00  0.00    +0.000 N 
ATOM     23  C   UNL     1      10.986  11.438  18.689  0.00  0.00    +0.000 A 
ATOM     24  C   UNL     1      11.526  11.982  19.831  0.00  0.00    +0.000 A 
ATOM     25  N   UNL     1      10.638  11.906  20.873  0.00  0.00    +0.000 NA
ATOM     26  C   UNL     1       9.567  11.331  20.375  0.00  0.00    +0.000 A 
ENDBRANCH  21  22
ENDBRANCH  20  21
ENDBRANCH  19  20
ENDBRANCH   7  19
TORSDOF 7
ENDMDL
MODEL 2
REMARK VINA RESULT:      -7.9      1.555      1.841
REMARK  Name = 
REMARK  7 active torsions:
REMARK  status: ('A' for Active; 'I' for Inactive)
REMARK    1  A    between atoms: C_3  and  C_4
REMARK    2  A    between atoms: C_4  and  C_5
REMARK    3  A    between atoms: C_13  and  O_14
REMARK    4  A    between atoms: N_17  and  C_18
REMARK    5  A    between atoms: C_18  and  C_19
REMARK    6  A    between atoms: C_19  and  C_20
REMARK    7  A    between atoms: C_20  and  N_21
REMARK                            x       y       z     vdW  Elec       q    Type
REMARK                         _______ _______ _______ _____ _____    ______ ____
ROOT
ATOM      1  O   UNL     1       4.957   6.916  16.409  0.00  0.00    +0.000 OA
ATOM      2  C   UNL     1       5.602   6.274  17.235  0.00  0.00    +0.000 A 
ATOM      3  C   UNL     1       5.067   4.975  17.778  0.00  0.00    +0.000 A 
ATOM      4  C   UNL     1       5.776   4.363  18.746  0.00  0.00    +0.000 A 
ATOM      5  C   UNL     1       7.014   4.902  19.238  0.00  0.00    +0.000 A 
ATOM      6  C   UNL     1       7.517   6.019  18.712  0.00  0.00    +0.000 A 
ATOM      7  N   UNL     1       6.848   6.695  17.711  0.00  0.00    +0.000 N 
ENDROOT
BRANCH   4   8
ATOM      8  O   UNL     1       5.437   3.176  19.347  0.00  0.00    +0.000 OA
ATOM      9  H   UNL     1       6.254   2.692  19.564  0.00  0.00    +0.000 HD
ENDBRANCH   4   8
BRANCH   3  10
ATOM     10  C   UNL     1       3.732   4.517  17.236  0.00  0.00    +0.000 C 
BRANCH  10  11
ATOM     11  C   UNL     1       2.744   4.105  18.309  0.00  0.00    +0.000 A 
ATOM     12  C   UNL     1       2.308   2.772  18.348  0.00  0.00    +0.000 A 
ATOM     13  F   UNL     1       2.825   1.880  17.490  0.00  0.00    +0.000 F 
ATOM     14  C   UNL     1       1.363   2.320  19.266  0.00  0.00    +0.000 A 
ATOM     15  C   UNL     1       0.845   3.202  20.204  0.00  0.00    +0.000 A 
ATOM     16  C   UNL     1       1.288   4.524  20.219  0.00  0.00    +0.000 A 
ATOM     17  C   UNL     1       2.231   4.975  19.282  0.00  0.00    +0.000 A 
ATOM     18 CL   UNL     1       2.743   6.618  19.427  0.00  0.00    +0.000 Cl
ENDBRANCH  10  11
ENDBRANCH   3  10
BRANCH   7  19
ATOM     19  C   UNL     1       7.413   7.940  17.194  0.00  0.00    +0.000 C 
BRANCH  19  20
ATOM     20  C   UNL     1       8.287   8.637  18.235  0.00  0.00    +0.000 C 
BRANCH  20  21
ATOM     21  C   UNL     1       8.323  10.145  18.015  0.00  0.00    +0.000 C 
BRANCH  21  22
ATOM     22  N   UNL     1       9.376  10.770  18.790  0.00  0.00    +0.000 N 
ATOM     23  C   UNL     1      10.506  11.356  18.293  0.00  0.00    +0.000 A 
ATOM     24  C   UNL     1      11.171  11.833  19.398  0.00  0.00    +0.000 A 
ATOM     25  N   UNL     1      10.481  11.537  20.547  0.00  0.00    +0.000 NA
ATOM     26  C   UNL     1       9.406  10.896  20.149  0.00  0.00    +0.000 A 
ENDBRANCH  21  22
ENDBRANCH  20  21
ENDBRANCH  19  20
ENDBRANCH   7  19
TORSDOF 7
ENDMDL
MODEL 3
REMARK VINA RESULT:      -7.5      1.509      2.167
REMARK  Name = 
REMARK  7 active torsions:
REMARK  status: ('A' for Active; 'I' for Inactive)
REMARK    1  A    between atoms: C_3  and  C_4
REMARK    2  A    between atoms: C_4  and  C_5
REMARK    3  A    between atoms: C_13  and  O_14
REMARK    4  A    between atoms: N_17  and  C_18
REMARK    5  A    between atoms: C_18  and  C_19
REMARK    6  A    between atoms: C_19  and  C_20
REMARK    7  A    between atoms: C_20  and  N_21
REMARK                            x       y       z     vdW  Elec       q    Type
REMARK                         _______ _______ _______ _____ _____    ______ ____
ROOT
ATOM      1  O   UNL     1       7.317   5.412  19.979  0.00  0.00    +0.000 OA
ATOM      2  C   UNL     1       6.811   5.655  18.885  0.00  0.00    +0.000 A 
ATOM      3  C   UNL     1       5.658   4.829  18.378  0.00  0.00    +0.000 A 
ATOM      4  C   UNL     1       5.204   5.086  17.136  0.00  0.00    +0.000 A 
ATOM      5  C   UNL     1       5.771   6.122  16.318  0.00  0.00    +0.000 A 
ATOM      6  C   UNL     1       6.750   6.893  16.792  0.00  0.00    +0.000 A 
ATOM      7  N   UNL     1       7.259   6.692  18.061  0.00  0.00    +0.000 N 
ENDROOT
BRANCH   4   8
ATOM      8  O   UNL     1       4.163   4.433  16.522  0.00  0.00    +0.000 OA
ATOM      9  H   UNL     1       3.701   5.063  15.940  0.00  0.00    +0.000 HD
ENDBRANCH   4   8
BRANCH   3  10
ATOM     10  C   UNL     1       5.167   3.728  19.289  0.00  0.00    +0.000 C 
BRANCH  10  11
ATOM     11  C   UNL     1       3.662   3.702  19.464  0.00  0.00    +0.000 A 
ATOM     12  C   UNL     1       3.022   4.842  19.975  0.00  0.00    +0.000 A 
ATOM     13  F   UNL     1       3.739   5.948  20.226  0.00  0.00    +0.000 F 
ATOM     14  C   UNL     1       1.651   4.886  20.216  0.00  0.00    +0.000 A 
ATOM     15  C   UNL     1       0.869   3.779  19.917  0.00  0.00    +0.000 A 
ATOM     16  C   UNL     1       1.467   2.646  19.369  0.00  0.00    +0.000 A 
ATOM     17  C   UNL     1       2.851   2.604  19.141  0.00  0.00    +0.000 A 
ATOM     18 CL   UNL     1       3.474   1.167  18.414  0.00  0.00    +0.000 Cl
ENDBRANCH  10  11
ENDBRANCH   3  10
BRANCH   7  19
ATOM     19  C   UNL     1       8.363   7.531  18.524  0.00  0.00    +0.000 C 
BRANCH  19  20
ATOM     20  C   UNL     1       8.209   8.976  18.053  0.00  0.00    +0.000 C 
BRANCH  20  21
ATOM     21  C   UNL     1       8.859   9.953  19.026  0.00  0.00    +0.000 C 
BRANCH  21  22
ATOM     22  N   UNL     1       9.396  11.110  18.338  0.00  0.00    +0.000 N 
ATOM     23  C   UNL     1       8.717  12.257  18.037  0.00  0.00    +0.000 A 
ATOM     24  C   UNL     1       9.646  13.066  17.425  0.00  0.00    +0.000 A 
ATOM     25  N   UNL     1      10.859  12.432  17.336  0.00  0.00    +0.000 NA
ATOM     26  C   UNL     1      10.677  11.256  17.892  0.00  0.00    +0.000 A 
ENDBRANCH  21  22
ENDBRANCH  20  21
ENDBRANCH  19  20
ENDBRANCH   7  19
TORSDOF 7
ENDMDL
MODEL 4
REMARK VINA RESULT:      -7.5      1.811      2.158
REMARK  Name = 
REMARK  7 active torsions:
REMARK  status: ('A' for Active; 'I' for Inactive)
REMARK    1  A    between atoms: C_3  and  C_4
REMARK    2  A    between atoms: C_4  and  C_5
REMARK    3  A    between atoms: C_13  and  O_14
REMARK    4  A    between atoms: N_17  and  C_18
REMARK    5  A    between atoms: C_18  and  C_19
REMARK    6  A    between atoms: C_19  and  C_20
REMARK    7  A    between atoms: C_20  and  N_21
REMARK                            x       y       z     vdW  Elec       q    Type
REMARK                         _______ _______ _______ _____ _____    ______ ____
ROOT
ATOM      1  O   UNL     1       5.775   6.913  16.028  0.00  0.00    +0.000 OA
ATOM      2  C   UNL     1       6.234   6.382  17.037  0.00  0.00    +0.000 A 
ATOM      3  C   UNL     1       5.589   5.147  17.610  0.00  0.00    +0.000 A 
ATOM      4  C   UNL     1       6.084   4.664  18.766  0.00  0.00    +0.000 A 
ATOM      5  C   UNL     1       7.201   5.276  19.431  0.00  0.00    +0.000 A 
ATOM      6  C   UNL     1       7.809   6.332  18.889  0.00  0.00    +0.000 A 
ATOM      7  N   UNL     1       7.361   6.876  17.701  0.00  0.00    +0.000 N 
ENDROOT
BRANCH   4   8
ATOM      8  O   UNL     1       5.621   3.550  19.422  0.00  0.00    +0.000 OA
ATOM      9  H   UNL     1       4.702   3.713  19.702  0.00  0.00    +0.000 HD
ENDBRANCH   4   8
BRANCH   3  10
ATOM     10  C   UNL     1       4.388   4.609  16.868  0.00  0.00    +0.000 C 
BRANCH  10  11
ATOM     11  C   UNL     1       3.248   4.185  17.773  0.00  0.00    +0.000 A 
ATOM     12  C   UNL     1       2.992   2.816  17.939  0.00  0.00    +0.000 A 
ATOM     13  F   UNL     1       3.799   1.915  17.359  0.00  0.00    +0.000 F 
ATOM     14  C   UNL     1       1.934   2.341  18.709  0.00  0.00    +0.000 A 
ATOM     15  C   UNL     1       1.109   3.243  19.369  0.00  0.00    +0.000 A 
ATOM     16  C   UNL     1       1.362   4.609  19.258  0.00  0.00    +0.000 A 
ATOM     17  C   UNL     1       2.423   5.080  18.469  0.00  0.00    +0.000 A 
ATOM     18 CL   UNL     1       2.671   6.789  18.446  0.00  0.00    +0.000 Cl
ENDBRANCH  10  11
ENDBRANCH   3  10
BRANCH   7  19
ATOM     19  C   UNL     1       8.030   8.061  17.166  0.00  0.00    +0.000 C 
BRANCH  19  20
ATOM     20  C   UNL     1       7.747   9.299  18.015  0.00  0.00    +0.000 C 
BRANCH  20  21
ATOM     21  C   UNL     1       8.992   9.756  18.767  0.00  0.00    +0.000 C 
BRANCH  21  22
ATOM     22  N   UNL     1       9.490  11.017  18.254  0.00  0.00    +0.000 N 
ATOM     23  C   UNL     1      10.798  11.337  18.028  0.00  0.00    +0.000 A 
ATOM     24  C   UNL     1      10.766  12.611  17.512  0.00  0.00    +0.000 A 
ATOM     25  N   UNL     1       9.477  13.072  17.436  0.00  0.00    +0.000 NA
ATOM     26  C   UNL     1       8.731  12.092  17.891  0.00  0.00    +0.000 A 
ENDBRANCH  21  22
ENDBRANCH  20  21
ENDBRANCH  19  20
ENDBRANCH   7  19
TORSDOF 7
ENDMDL
MODEL 5
REMARK VINA RESULT:      -7.4      5.384      7.971
REMARK  Name = 
REMARK  7 active torsions:
REMARK  status: ('A' for Active; 'I' for Inactive)
REMARK    1  A    between atoms: C_3  and  C_4
REMARK    2  A    between atoms: C_4  and  C_5
REMARK    3  A    between atoms: C_13  and  O_14
REMARK    4  A    between atoms: N_17  and  C_18
REMARK    5  A    between atoms: C_18  and  C_19
REMARK    6  A    between atoms: C_19  and  C_20
REMARK    7  A    between atoms: C_20  and  N_21
REMARK                            x       y       z     vdW  Elec       q    Type
REMARK                         _______ _______ _______ _____ _____    ______ ____
ROOT
ATOM      1  O   UNL     1       2.262   8.811  17.196  0.00  0.00    +0.000 OA
ATOM      2  C   UNL     1       2.034   8.501  18.364  0.00  0.00    +0.000 A 
ATOM      3  C   UNL     1       2.530   7.190  18.916  0.00  0.00    +0.000 A 
ATOM      4  C   UNL     1       2.173   6.867  20.174  0.00  0.00    +0.000 A 
ATOM      5  C   UNL     1       1.369   7.739  20.985  0.00  0.00    +0.000 A 
ATOM      6  C   UNL     1       0.983   8.926  20.516  0.00  0.00    +0.000 A 
ATOM      7  N   UNL     1       1.320   9.327  19.237  0.00  0.00    +0.000 N 
ENDROOT
BRANCH   4   8
ATOM      8  O   UNL     1       2.538   5.717  20.831  0.00  0.00    +0.000 OA
ATOM      9  H   UNL     1       3.488   5.768  21.042  0.00  0.00    +0.000 HD
ENDBRANCH   4   8
BRANCH   3  10
ATOM     10  C   UNL     1       3.322   6.317  17.969  0.00  0.00    +0.000 C 
BRANCH  10  11
ATOM     11  C   UNL     1       3.167   4.833  18.229  0.00  0.00    +0.000 A 
ATOM     12  C   UNL     1       1.957   4.210  17.885  0.00  0.00    +0.000 A 
ATOM     13  F   UNL     1       0.998   4.919  17.271  0.00  0.00    +0.000 F 
ATOM     14  C   UNL     1       1.710   2.863  18.136  0.00  0.00    +0.000 A 
ATOM     15  C   UNL     1       2.699   2.085  18.722  0.00  0.00    +0.000 A 
ATOM     16  C   UNL     1       3.928   2.662  19.038  0.00  0.00    +0.000 A 
ATOM     17  C   UNL     1       4.164   4.024  18.793  0.00  0.00    +0.000 A 
ATOM     18 CL   UNL     1       5.739   4.619  19.180  0.00  0.00    +0.000 Cl
ENDBRANCH  10  11
ENDBRANCH   3  10
BRANCH   7  19
ATOM     19  C   UNL     1       0.838  10.618  18.748  0.00  0.00    +0.000 C 
BRANCH  19  20
ATOM     20  C   UNL     1      -0.684  10.717  18.824  0.00  0.00    +0.000 C 
BRANCH  20  21
ATOM     21  C   UNL     1      -1.349   9.994  17.658  0.00  0.00    +0.000 C 
BRANCH  21  22
ATOM     22  N   UNL     1      -2.600  10.625  17.286  0.00  0.00    +0.000 N 
ATOM     23  C   UNL     1      -3.146  10.661  16.034  0.00  0.00    +0.000 A 
ATOM     24  C   UNL     1      -4.338  11.329  16.188  0.00  0.00    +0.000 A 
ATOM     25  N   UNL     1      -4.517  11.711  17.493  0.00  0.00    +0.000 NA
ATOM     26  C   UNL     1      -3.454  11.275  18.130  0.00  0.00    +0.000 A 
ENDBRANCH  21  22
ENDBRANCH  20  21
ENDBRANCH  19  20
ENDBRANCH   7  19
TORSDOF 7
ENDMDL
MODEL 6
REMARK VINA RESULT:      -7.3      5.827      8.420
REMARK  Name = 
REMARK  7 active torsions:
REMARK  status: ('A' for Active; 'I' for Inactive)
REMARK    1  A    between atoms: C_3  and  C_4
REMARK    2  A    between atoms: C_4  and  C_5
REMARK    3  A    between atoms: C_13  and  O_14
REMARK    4  A    between atoms: N_17  and  C_18
REMARK    5  A    between atoms: C_18  and  C_19
REMARK    6  A    between atoms: C_19  and  C_20
REMARK    7  A    between atoms: C_20  and  N_21
REMARK                            x       y       z     vdW  Elec       q    Type
REMARK                         _______ _______ _______ _____ _____    ______ ____
ROOT
ATOM      1  O   UNL     1       1.928   9.383  17.414  0.00  0.00    +0.000 OA
ATOM      2  C   UNL     1       1.601   9.050  18.551  0.00  0.00    +0.000 A 
ATOM      3  C   UNL     1       0.617   9.878  19.335  0.00  0.00    +0.000 A 
ATOM      4  C   UNL     1       0.366   9.511  20.607  0.00  0.00    +0.000 A 
ATOM      5  C   UNL     1       0.987   8.360  21.204  0.00  0.00    +0.000 A 
ATOM      6  C   UNL     1       1.810   7.593  20.487  0.00  0.00    +0.000 A 
ATOM      7  N   UNL     1       2.106   7.904  19.175  0.00  0.00    +0.000 N 
ENDROOT
BRANCH   4   8
ATOM      8  O   UNL     1      -0.502  10.148  21.459  0.00  0.00    +0.000 OA
ATOM      9  H   UNL     1      -0.676  11.043  21.115  0.00  0.00    +0.000 HD
ENDBRANCH   4   8
BRANCH   3  10
ATOM     10  C   UNL     1       0.060  11.099  18.640  0.00  0.00    +0.000 C 
BRANCH  10  11
ATOM     11  C   UNL     1      -1.430  11.027  18.376  0.00  0.00    +0.000 A 
ATOM     12  C   UNL     1      -1.905  10.103  17.433  0.00  0.00    +0.000 A 
ATOM     13  F   UNL     1      -1.046   9.258  16.843  0.00  0.00    +0.000 F 
ATOM     14  C   UNL     1      -3.251  10.006  17.091  0.00  0.00    +0.000 A 
ATOM     15  C   UNL     1      -4.177  10.828  17.720  0.00  0.00    +0.000 A 
ATOM     16  C   UNL     1      -3.744  11.728  18.693  0.00  0.00    +0.000 A 
ATOM     17  C   UNL     1      -2.383  11.828  19.022  0.00  0.00    +0.000 A 
ATOM     18 CL   UNL     1      -1.969  12.942  20.275  0.00  0.00    +0.000 Cl
ENDBRANCH  10  11
ENDBRANCH   3  10
BRANCH   7  19
ATOM     19  C   UNL     1       3.048   7.061  18.440  0.00  0.00    +0.000 C 
BRANCH  19  20
ATOM     20  C   UNL     1       2.431   5.712  18.075  0.00  0.00    +0.000 C 
BRANCH  20  21
ATOM     21  C   UNL     1       3.450   4.796  17.408  0.00  0.00    +0.000 C 
BRANCH  21  22
ATOM     22  N   UNL     1       3.692   3.606  18.200  0.00  0.00    +0.000 N 
ATOM     23  C   UNL     1       4.300   3.559  19.423  0.00  0.00    +0.000 A 
ATOM     24  C   UNL     1       4.265   2.232  19.783  0.00  0.00    +0.000 A 
ATOM     25  N   UNL     1       3.669   1.478  18.805  0.00  0.00    +0.000 NA
ATOM     26  C   UNL     1       3.337   2.332  17.864  0.00  0.00    +0.000 A 
ENDBRANCH  21  22
ENDBRANCH  20  21
ENDBRANCH  19  20
ENDBRANCH   7  19
TORSDOF 7
ENDMDL
MODEL 7
REMARK VINA RESULT:      -7.3      5.437      7.698
REMARK  Name = 
REMARK  7 active torsions:
REMARK  status: ('A' for Active; 'I' for Inactive)
REMARK    1  A    between atoms: C_3  and  C_4
REMARK    2  A    between atoms: C_4  and  C_5
REMARK    3  A    between atoms: C_13  and  O_14
REMARK    4  A    between atoms: N_17  and  C_18
REMARK    5  A    between atoms: C_18  and  C_19
REMARK    6  A    between atoms: C_19  and  C_20
REMARK    7  A    between atoms: C_20  and  N_21
REMARK                            x       y       z     vdW  Elec       q    Type
REMARK                         _______ _______ _______ _____ _____    ______ ____
ROOT
ATOM      1  O   UNL     1       1.916   9.447  17.342  0.00  0.00    +0.000 OA
ATOM      2  C   UNL     1       1.611   9.076  18.474  0.00  0.00    +0.000 A 
ATOM      3  C   UNL     1       0.642   9.875  19.304  0.00  0.00    +0.000 A 
ATOM      4  C   UNL     1       0.416   9.466  20.567  0.00  0.00    +0.000 A 
ATOM      5  C   UNL     1       1.049   8.298  21.114  0.00  0.00    +0.000 A 
ATOM      6  C   UNL     1       1.859   7.556  20.357  0.00  0.00    +0.000 A 
ATOM      7  N   UNL     1       2.130   7.911  19.050  0.00  0.00    +0.000 N 
ENDROOT
BRANCH   4   8
ATOM      8  O   UNL     1      -0.436  10.073  21.457  0.00  0.00    +0.000 OA
ATOM      9  H   UNL     1      -1.322  10.126  21.054  0.00  0.00    +0.000 HD
ENDBRANCH   4   8
BRANCH   3  10
ATOM     10  C   UNL     1       0.069  11.117  18.661  0.00  0.00    +0.000 C 
BRANCH  10  11
ATOM     11  C   UNL     1      -1.427  11.056  18.434  0.00  0.00    +0.000 A 
ATOM     12  C   UNL     1      -1.932  10.135  17.503  0.00  0.00    +0.000 A 
ATOM     13  F   UNL     1      -1.095   9.284  16.893  0.00  0.00    +0.000 F 
ATOM     14  C   UNL     1      -3.287  10.048  17.195  0.00  0.00    +0.000 A 
ATOM     15  C   UNL     1      -4.191  10.877  17.847  0.00  0.00    +0.000 A 
ATOM     16  C   UNL     1      -3.727  11.774  18.808  0.00  0.00    +0.000 A 
ATOM     17  C   UNL     1      -2.358  11.864  19.103  0.00  0.00    +0.000 A 
ATOM     18 CL   UNL     1      -1.905  12.976  20.345  0.00  0.00    +0.000 Cl
ENDBRANCH  10  11
ENDBRANCH   3  10
BRANCH   7  19
ATOM     19  C   UNL     1       3.058   7.095  18.270  0.00  0.00    +0.000 C 
BRANCH  19  20
ATOM     20  C   UNL     1       2.855   5.604  18.533  0.00  0.00    +0.000 C 
BRANCH  20  21
ATOM     21  C   UNL     1       3.535   4.752  17.467  0.00  0.00    +0.000 C 
BRANCH  21  22
ATOM     22  N   UNL     1       4.970   4.693  17.669  0.00  0.00    +0.000 N 
ATOM     23  C   UNL     1       5.927   4.815  16.702  0.00  0.00    +0.000 A 
ATOM     24  C   UNL     1       7.122   4.731  17.377  0.00  0.00    +0.000 A 
ATOM     25  N   UNL     1       6.911   4.546  18.719  0.00  0.00    +0.000 NA
ATOM     26  C   UNL     1       5.606   4.525  18.865  0.00  0.00    +0.000 A 
ENDBRANCH  21  22
ENDBRANCH  20  21
ENDBRANCH  19  20
ENDBRANCH   7  19
TORSDOF 7
ENDMDL
MODEL 8
REMARK VINA RESULT:      -7.3      5.882      8.616
REMARK  Name = 
REMARK  7 active torsions:
REMARK  status: ('A' for Active; 'I' for Inactive)
REMARK    1  A    between atoms: C_3  and  C_4
REMARK    2  A    between atoms: C_4  and  C_5
REMARK    3  A    between atoms: C_13  and  O_14
REMARK    4  A    between atoms: N_17  and  C_18
REMARK    5  A    between atoms: C_18  and  C_19
REMARK    6  A    between atoms: C_19  and  C_20
REMARK    7  A    between atoms: C_20  and  N_21
REMARK                            x       y       z     vdW  Elec       q    Type
REMARK                         _______ _______ _______ _____ _____    ______ ____
ROOT
ATOM      1  O   UNL     1       1.881   9.378  17.403  0.00  0.00    +0.000 OA
ATOM      2  C   UNL     1       1.563   9.052  18.545  0.00  0.00    +0.000 A 
ATOM      3  C   UNL     1       0.603   9.897  19.339  0.00  0.00    +0.000 A 
ATOM      4  C   UNL     1       0.362   9.538  20.615  0.00  0.00    +0.000 A 
ATOM      5  C   UNL     1       0.972   8.379  21.207  0.00  0.00    +0.000 A 
ATOM      6  C   UNL     1       1.774   7.598  20.483  0.00  0.00    +0.000 A 
ATOM      7  N   UNL     1       2.058   7.901  19.165  0.00  0.00    +0.000 N 
ENDROOT
BRANCH   4   8
ATOM      8  O   UNL     1      -0.485  10.191  21.477  0.00  0.00    +0.000 OA
ATOM      9  H   UNL     1      -0.934   9.529  22.033  0.00  0.00    +0.000 HD
ENDBRANCH   4   8
BRANCH   3  10
ATOM     10  C   UNL     1       0.055  11.125  18.648  0.00  0.00    +0.000 C 
BRANCH  10  11
ATOM     11  C   UNL     1      -1.442  11.084  18.422  0.00  0.00    +0.000 A 
ATOM     12  C   UNL     1      -1.961  10.166  17.495  0.00  0.00    +0.000 A 
ATOM     13  F   UNL     1      -1.136   9.300  16.889  0.00  0.00    +0.000 F 
ATOM     14  C   UNL     1      -3.317  10.098  17.188  0.00  0.00    +0.000 A 
ATOM     15  C   UNL     1      -4.208  10.943  17.836  0.00  0.00    +0.000 A 
ATOM     16  C   UNL     1      -3.732  11.838  18.792  0.00  0.00    +0.000 A 
ATOM     17  C   UNL     1      -2.361  11.909  19.087  0.00  0.00    +0.000 A 
ATOM     18 CL   UNL     1      -1.892  13.020  20.323  0.00  0.00    +0.000 Cl
ENDBRANCH  10  11
ENDBRANCH   3  10
BRANCH   7  19
ATOM     19  C   UNL     1       2.978   7.041  18.422  0.00  0.00    +0.000 C 
BRANCH  19  20
ATOM     20  C   UNL     1       2.372   5.664  18.156  0.00  0.00    +0.000 C 
BRANCH  20  21
ATOM     21  C   UNL     1       3.252   4.551  18.712  0.00  0.00    +0.000 C 
BRANCH  21  22
ATOM     22  N   UNL     1       2.615   3.878  19.827  0.00  0.00    +0.000 N 
ATOM     23  C   UNL     1       1.827   2.764  19.754  0.00  0.00    +0.000 A 
ATOM     24  C   UNL     1       1.492   2.483  21.057  0.00  0.00    +0.000 A 
ATOM     25  N   UNL     1       2.043   3.405  21.911  0.00  0.00    +0.000 NA
ATOM     26  C   UNL     1       2.712   4.233  21.141  0.00  0.00    +0.000 A 
ENDBRANCH  21  22
ENDBRANCH  20  21
ENDBRANCH  19  20
ENDBRANCH   7  19
TORSDOF 7
ENDMDL
MODEL 9
REMARK VINA RESULT:      -7.3      2.013      2.627
REMARK  Name = 
REMARK  7 active torsions:
REMARK  status: ('A' for Active; 'I' for Inactive)
REMARK    1  A    between atoms: C_3  and  C_4
REMARK    2  A    between atoms: C_4  and  C_5
REMARK    3  A    between atoms: C_13  and  O_14
REMARK    4  A    between atoms: N_17  and  C_18
REMARK    5  A    between atoms: C_18  and  C_19
REMARK    6  A    between atoms: C_19  and  C_20
REMARK    7  A    between atoms: C_20  and  N_21
REMARK                            x       y       z     vdW  Elec       q    Type
REMARK                         _______ _______ _______ _____ _____    ______ ____
ROOT
ATOM      1  O   UNL     1       6.954   5.327  20.018  0.00  0.00    +0.000 OA
ATOM      2  C   UNL     1       6.579   5.415  18.850  0.00  0.00    +0.000 A 
ATOM      3  C   UNL     1       5.555   4.455  18.304  0.00  0.00    +0.000 A 
ATOM      4  C   UNL     1       5.251   4.544  16.995  0.00  0.00    +0.000 A 
ATOM      5  C   UNL     1       5.854   5.529  16.139  0.00  0.00    +0.000 A 
ATOM      6  C   UNL     1       6.714   6.417  16.638  0.00  0.00    +0.000 A 
ATOM      7  N   UNL     1       7.066   6.390  17.974  0.00  0.00    +0.000 N 
ENDROOT
BRANCH   4   8
ATOM      8  O   UNL     1       4.341   3.754  16.337  0.00  0.00    +0.000 OA
ATOM      9  H   UNL     1       4.578   2.820  16.480  0.00  0.00    +0.000 HD
ENDBRANCH   4   8
BRANCH   3  10
ATOM     10  C   UNL     1       5.019   3.422  19.268  0.00  0.00    +0.000 C 
BRANCH  10  11
ATOM     11  C   UNL     1       3.513   3.263  19.221  0.00  0.00    +0.000 A 
ATOM     12  C   UNL     1       2.976   2.021  18.849  0.00  0.00    +0.000 A 
ATOM     13  F   UNL     1       3.799   0.987  18.616  0.00  0.00    +0.000 F 
ATOM     14  C   UNL     1       1.607   1.803  18.729  0.00  0.00    +0.000 A 
ATOM     15  C   UNL     1       0.723   2.834  19.014  0.00  0.00    +0.000 A 
ATOM     16  C   UNL     1       1.221   4.069  19.428  0.00  0.00    +0.000 A 
ATOM     17  C   UNL     1       2.604   4.284  19.533  0.00  0.00    +0.000 A 
ATOM     18 CL   UNL     1       3.105   5.837  20.101  0.00  0.00    +0.000 Cl
ENDBRANCH  10  11
ENDBRANCH   3  10
BRANCH   7  19
ATOM     19  C   UNL     1       8.046   7.355  18.469  0.00  0.00    +0.000 C 
BRANCH  19  20
ATOM     20  C   UNL     1       8.256   8.503  17.484  0.00  0.00    +0.000 C 
BRANCH  20  21
ATOM     21  C   UNL     1       7.914   9.848  18.114  0.00  0.00    +0.000 C 
BRANCH  21  22
ATOM     22  N   UNL     1       9.089  10.485  18.675  0.00  0.00    +0.000 N 
ATOM     23  C   UNL     1      10.118  11.045  17.973  0.00  0.00    +0.000 A 
ATOM     24  C   UNL     1      10.967  11.547  18.930  0.00  0.00    +0.000 A 
ATOM     25  N   UNL     1      10.487  11.291  20.189  0.00  0.00    +0.000 NA
ATOM     26  C   UNL     1       9.356  10.648  20.004  0.00  0.00    +0.000 A 
ENDBRANCH  21  22
ENDBRANCH  20  21
ENDBRANCH  19  20
ENDBRANCH   7  19
TORSDOF 7
ENDMDL
