MODEL 1
REMARK VINA RESULT:      -9.3      0.000      0.000
REMARK  Name = 
REMARK  7 active torsions:
REMARK  status: ('A' for Active; 'I' for Inactive)
REMARK    1  A    between atoms: S_2  and  O_4
REMARK    2  A    between atoms: S_2  and  C_5
REMARK    3  A    between atoms: C_5  and  C_6
REMARK    4  A    between atoms: C_6  and  N_7
REMARK    5  A    between atoms: C_12  and  N_13
REMARK    6  A    between atoms: N_13  and  S_14
REMARK    7  A    between atoms: S_14  and  C_17
REMARK                            x       y       z     vdW  Elec       q    Type
REMARK                         _______ _______ _______ _____ _____    ______ ____
ROOT
ATOM      1  N   UNL     1       3.691   5.471  18.113  0.00  0.00    +0.000 N 
ATOM      2  C   UNL     1       3.480   4.495  19.057  0.00  0.00    +0.000 A 
ATOM      3  C   UNL     1       2.685   5.024  20.056  0.00  0.00    +0.000 A 
ATOM      4  C   UNL     1       2.384   6.367  19.709  0.00  0.00    +0.000 A 
ATOM      5  C   UNL     1       1.646   7.396  20.340  0.00  0.00    +0.000 A 
ATOM      6  C   UNL     1       1.526   8.634  19.711  0.00  0.00    +0.000 A 
ATOM      7  C   UNL     1       2.086   8.850  18.456  0.00  0.00    +0.000 A 
ATOM      8  C   UNL     1       2.817   7.848  17.812  0.00  0.00    +0.000 A 
ATOM      9  C   UNL     1       2.982   6.615  18.465  0.00  0.00    +0.000 A 
ATOM     10  C   UNL     1       2.282   4.253  21.271  0.00  0.00    +0.000 C 
ATOM     11  C   UNL     1       2.515   2.745  21.081  0.00  0.00    +0.000 C 
ATOM     12  C   UNL     1       3.878   2.461  20.430  0.00  0.00    +0.000 C 
ATOM     13  C   UNL     1       3.980   3.083  19.024  0.00  0.00    +0.000 C 
ENDROOT
BRANCH   6  14
ATOM     14  N   UNL     1       0.776   9.678  20.309  0.00  0.00    +0.000 N 
ATOM     15  H   UNL     1       0.243  10.320  19.730  0.00  0.00    +0.000 HD
BRANCH  14  16
ATOM     16  S   UNL     1       0.331   9.604  21.928  0.00  0.00    +0.000 S 
ATOM     17  O   UNL     1      -0.692   8.589  22.019  0.00  0.00    +0.000 OA
ATOM     18  O   UNL     1       1.524   9.544  22.755  0.00  0.00    +0.000 OA
BRANCH  16  19
ATOM     19  C   UNL     1      -0.448  11.181  22.182  0.00  0.00    +0.000 A 
ATOM     20  C   UNL     1       0.002  12.310  21.488  0.00  0.00    +0.000 A 
ATOM     21  C   UNL     1      -0.603  13.546  21.729  0.00  0.00    +0.000 A 
ATOM     22  C   UNL     1      -1.653  13.635  22.640  0.00  0.00    +0.000 A 
ATOM     23  F   UNL     1      -2.214  14.825  22.886  0.00  0.00    +0.000 F 
ATOM     24  C   UNL     1      -2.124  12.506  23.306  0.00  0.00    +0.000 A 
ATOM     25  C   UNL     1      -1.527  11.268  23.070  0.00  0.00    +0.000 A 
ENDBRANCH  16  19
ENDBRANCH  14  16
ENDBRANCH   6  14
BRANCH   1  26
ATOM     26  C   UNL     1       4.538   5.352  16.929  0.00  0.00    +0.000 C 
BRANCH  26  27
ATOM     27  C   UNL     1       5.970   5.781  17.196  0.00  0.00    +0.000 C 
BRANCH  27  29
ATOM     28  O   UNL     1       8.106   4.228  17.253  0.00  0.00    +0.000 OA
ATOM     29  S   UNL     1       7.102   4.717  16.339  0.00  0.00    +0.000 S 
ATOM     30  O   UNL     1       7.441   5.291  15.057  0.00  0.00    +0.000 OA
BRANCH  29  31
ATOM     31  O   UNL     1       6.092   3.487  16.065  0.00  0.00    +0.000 OA
ATOM     32  H   UNL     1       5.215   3.710  16.443  0.00  0.00    +0.000 HD
ENDBRANCH  29  31
ENDBRANCH  27  29
ENDBRANCH  26  27
ENDBRANCH   1  26
TORSDOF 7
ENDMDL
MODEL 2
REMARK VINA RESULT:      -9.1      2.591      2.902
REMARK  Name = 
REMARK  7 active torsions:
REMARK  status: ('A' for Active; 'I' for Inactive)
REMARK    1  A    between atoms: S_2  and  O_4
REMARK    2  A    between atoms: S_2  and  C_5
REMARK    3  A    between atoms: C_5  and  C_6
REMARK    4  A    between atoms: C_6  and  N_7
REMARK    5  A    between atoms: C_12  and  N_13
REMARK    6  A    between atoms: N_13  and  S_14
REMARK    7  A    between atoms: S_14  and  C_17
REMARK                            x       y       z     vdW  Elec       q    Type
REMARK                         _______ _______ _______ _____ _____    ______ ____
ROOT
ATOM      1  N   UNL     1       3.674   5.400  18.129  0.00  0.00    +0.000 N 
ATOM      2  C   UNL     1       3.475   4.439  19.092  0.00  0.00    +0.000 A 
ATOM      3  C   UNL     1       2.695   4.985  20.093  0.00  0.00    +0.000 A 
ATOM      4  C   UNL     1       2.391   6.323  19.729  0.00  0.00    +0.000 A 
ATOM      5  C   UNL     1       1.663   7.363  20.354  0.00  0.00    +0.000 A 
ATOM      6  C   UNL     1       1.535   8.592  19.707  0.00  0.00    +0.000 A 
ATOM      7  C   UNL     1       2.078   8.787  18.441  0.00  0.00    +0.000 A 
ATOM      8  C   UNL     1       2.798   7.773  17.803  0.00  0.00    +0.000 A 
ATOM      9  C   UNL     1       2.971   6.550  18.473  0.00  0.00    +0.000 A 
ATOM     10  C   UNL     1       2.308   4.235  21.325  0.00  0.00    +0.000 C 
ATOM     11  C   UNL     1       2.536   2.723  21.156  0.00  0.00    +0.000 C 
ATOM     12  C   UNL     1       3.890   2.427  20.491  0.00  0.00    +0.000 C 
ATOM     13  C   UNL     1       3.973   3.027  19.073  0.00  0.00    +0.000 C 
ENDROOT
BRANCH   6  14
ATOM     14  N   UNL     1       0.795   9.645  20.299  0.00  0.00    +0.000 N 
ATOM     15  H   UNL     1       0.602   9.635  21.297  0.00  0.00    +0.000 HD
BRANCH  14  16
ATOM     16  S   UNL     1       0.652  11.137  19.537  0.00  0.00    +0.000 S 
ATOM     17  O   UNL     1       0.587  12.123  20.590  0.00  0.00    +0.000 OA
ATOM     18  O   UNL     1       1.640  11.234  18.477  0.00  0.00    +0.000 OA
BRANCH  16  19
ATOM     19  C   UNL     1      -0.960  11.033  18.795  0.00  0.00    +0.000 A 
ATOM     20  C   UNL     1      -1.992  11.870  19.232  0.00  0.00    +0.000 A 
ATOM     21  C   UNL     1      -3.260  11.748  18.657  0.00  0.00    +0.000 A 
ATOM     22  C   UNL     1      -3.474  10.810  17.650  0.00  0.00    +0.000 A 
ATOM     23  F   UNL     1      -4.696  10.678  17.120  0.00  0.00    +0.000 F 
ATOM     24  C   UNL     1      -2.438   9.999  17.191  0.00  0.00    +0.000 A 
ATOM     25  C   UNL     1      -1.170  10.117  17.757  0.00  0.00    +0.000 A 
ENDBRANCH  16  19
ENDBRANCH  14  16
ENDBRANCH   6  14
BRANCH   1  26
ATOM     26  C   UNL     1       4.503   5.261  16.936  0.00  0.00    +0.000 C 
BRANCH  26  27
ATOM     27  C   UNL     1       5.917   5.773  17.150  0.00  0.00    +0.000 C 
BRANCH  27  29
ATOM     28  O   UNL     1       8.068   4.244  17.252  0.00  0.00    +0.000 OA
ATOM     29  S   UNL     1       7.084   4.729  16.315  0.00  0.00    +0.000 S 
ATOM     30  O   UNL     1       7.450   5.317  15.047  0.00  0.00    +0.000 OA
BRANCH  29  31
ATOM     31  O   UNL     1       6.096   3.490  16.005  0.00  0.00    +0.000 OA
ATOM     32  H   UNL     1       5.218   3.844  15.747  0.00  0.00    +0.000 HD
ENDBRANCH  29  31
ENDBRANCH  27  29
ENDBRANCH  26  27
ENDBRANCH   1  26
TORSDOF 7
ENDMDL
MODEL 3
REMARK VINA RESULT:      -9.0      1.492      1.751
REMARK  Name = 
REMARK  7 active torsions:
REMARK  status: ('A' for Active; 'I' for Inactive)
REMARK    1  A    between atoms: S_2  and  O_4
REMARK    2  A    between atoms: S_2  and  C_5
REMARK    3  A    between atoms: C_5  and  C_6
REMARK    4  A    between atoms: C_6  and  N_7
REMARK    5  A    between atoms: C_12  and  N_13
REMARK    6  A    between atoms: N_13  and  S_14
REMARK    7  A    between atoms: S_14  and  C_17
REMARK                            x       y       z     vdW  Elec       q    Type
REMARK                         _______ _______ _______ _____ _____    ______ ____
ROOT
ATOM      1  N   UNL     1       3.626   5.506  18.036  0.00  0.00    +0.000 N 
ATOM      2  C   UNL     1       3.423   4.542  18.995  0.00  0.00    +0.000 A 
ATOM      3  C   UNL     1       2.680   5.100  20.018  0.00  0.00    +0.000 A 
ATOM      4  C   UNL     1       2.404   6.449  19.672  0.00  0.00    +0.000 A 
ATOM      5  C   UNL     1       1.719   7.502  20.322  0.00  0.00    +0.000 A 
ATOM      6  C   UNL     1       1.610   8.739  19.688  0.00  0.00    +0.000 A 
ATOM      7  C   UNL     1       2.129   8.931  18.412  0.00  0.00    +0.000 A 
ATOM      8  C   UNL     1       2.807   7.904  17.749  0.00  0.00    +0.000 A 
ATOM      9  C   UNL     1       2.962   6.671  18.405  0.00  0.00    +0.000 A 
ATOM     10  C   UNL     1       2.301   4.349  21.253  0.00  0.00    +0.000 C 
ATOM     11  C   UNL     1       2.485   2.834  21.067  0.00  0.00    +0.000 C 
ATOM     12  C   UNL     1       3.815   2.507  20.368  0.00  0.00    +0.000 C 
ATOM     13  C   UNL     1       3.882   3.117  18.954  0.00  0.00    +0.000 C 
ENDROOT
BRANCH   6  14
ATOM     14  N   UNL     1       0.912   9.807  20.306  0.00  0.00    +0.000 N 
ATOM     15  H   UNL     1       1.188  10.131  21.229  0.00  0.00    +0.000 HD
BRANCH  14  16
ATOM     16  S   UNL     1      -0.013  10.877  19.397  0.00  0.00    +0.000 S 
ATOM     17  O   UNL     1       0.877  11.942  18.999  0.00  0.00    +0.000 OA
ATOM     18  O   UNL     1      -0.782  10.135  18.413  0.00  0.00    +0.000 OA
BRANCH  16  19
ATOM     19  C   UNL     1      -1.135  11.535  20.607  0.00  0.00    +0.000 A 
ATOM     20  C   UNL     1      -0.925  11.291  21.969  0.00  0.00    +0.000 A 
ATOM     21  C   UNL     1      -1.839  11.790  22.901  0.00  0.00    +0.000 A 
ATOM     22  C   UNL     1      -2.933  12.534  22.465  0.00  0.00    +0.000 A 
ATOM     23  F   UNL     1      -3.820  12.989  23.358  0.00  0.00    +0.000 F 
ATOM     24  C   UNL     1      -3.125  12.806  21.112  0.00  0.00    +0.000 A 
ATOM     25  C   UNL     1      -2.215  12.314  20.176  0.00  0.00    +0.000 A 
ENDBRANCH  16  19
ENDBRANCH  14  16
ENDBRANCH   6  14
BRANCH   1  26
ATOM     26  C   UNL     1       4.424   5.355  16.823  0.00  0.00    +0.000 C 
BRANCH  26  27
ATOM     27  C   UNL     1       5.831   5.903  16.984  0.00  0.00    +0.000 C 
BRANCH  27  29
ATOM     28  O   UNL     1       7.968   4.374  17.263  0.00  0.00    +0.000 OA
ATOM     29  S   UNL     1       7.012   4.790  16.265  0.00  0.00    +0.000 S 
ATOM     30  O   UNL     1       7.417   5.277  14.966  0.00  0.00    +0.000 OA
BRANCH  29  31
ATOM     31  O   UNL     1       6.024   3.537  16.025  0.00  0.00    +0.000 OA
ATOM     32  H   UNL     1       5.130   3.878  15.805  0.00  0.00    +0.000 HD
ENDBRANCH  29  31
ENDBRANCH  27  29
ENDBRANCH  26  27
ENDBRANCH   1  26
TORSDOF 7
ENDMDL
MODEL 4
REMARK VINA RESULT:      -9.0      1.477      1.849
REMARK  Name = 
REMARK  7 active torsions:
REMARK  status: ('A' for Active; 'I' for Inactive)
REMARK    1  A    between atoms: S_2  and  O_4
REMARK    2  A    between atoms: S_2  and  C_5
REMARK    3  A    between atoms: C_5  and  C_6
REMARK    4  A    between atoms: C_6  and  N_7
REMARK    5  A    between atoms: C_12  and  N_13
REMARK    6  A    between atoms: N_13  and  S_14
REMARK    7  A    between atoms: S_14  and  C_17
REMARK                            x       y       z     vdW  Elec       q    Type
REMARK                         _______ _______ _______ _____ _____    ______ ____
ROOT
ATOM      1  N   UNL     1       3.602   5.599  18.058  0.00  0.00    +0.000 N 
ATOM      2  C   UNL     1       3.343   4.639  19.007  0.00  0.00    +0.000 A 
ATOM      3  C   UNL     1       2.585   5.215  20.009  0.00  0.00    +0.000 A 
ATOM      4  C   UNL     1       2.358   6.572  19.659  0.00  0.00    +0.000 A 
ATOM      5  C   UNL     1       1.684   7.643  20.291  0.00  0.00    +0.000 A 
ATOM      6  C   UNL     1       1.630   8.884  19.659  0.00  0.00    +0.000 A 
ATOM      7  C   UNL     1       2.193   9.064  18.400  0.00  0.00    +0.000 A 
ATOM      8  C   UNL     1       2.861   8.020  17.755  0.00  0.00    +0.000 A 
ATOM      9  C   UNL     1       2.960   6.782  18.411  0.00  0.00    +0.000 A 
ATOM     10  C   UNL     1       2.147   4.472  21.229  0.00  0.00    +0.000 C 
ATOM     11  C   UNL     1       2.293   2.952  21.042  0.00  0.00    +0.000 C 
ATOM     12  C   UNL     1       3.633   2.590  20.384  0.00  0.00    +0.000 C 
ATOM     13  C   UNL     1       3.761   3.201  18.975  0.00  0.00    +0.000 C 
ENDROOT
BRANCH   6  14
ATOM     14  N   UNL     1       0.944   9.970  20.259  0.00  0.00    +0.000 N 
ATOM     15  H   UNL     1       1.329  10.424  21.083  0.00  0.00    +0.000 HD
BRANCH  14  16
ATOM     16  S   UNL     1      -0.201  10.851  19.400  0.00  0.00    +0.000 S 
ATOM     17  O   UNL     1       0.508  11.959  18.804  0.00  0.00    +0.000 OA
ATOM     18  O   UNL     1      -0.998   9.947  18.589  0.00  0.00    +0.000 OA
BRANCH  16  19
ATOM     19  C   UNL     1      -1.232  11.502  20.693  0.00  0.00    +0.000 A 
ATOM     20  C   UNL     1      -2.297  12.355  20.383  0.00  0.00    +0.000 A 
ATOM     21  C   UNL     1      -3.073  12.882  21.418  0.00  0.00    +0.000 A 
ATOM     22  C   UNL     1      -2.788  12.539  22.738  0.00  0.00    +0.000 A 
ATOM     23  F   UNL     1      -3.519  13.066  23.728  0.00  0.00    +0.000 F 
ATOM     24  C   UNL     1      -1.749  11.663  23.045  0.00  0.00    +0.000 A 
ATOM     25  C   UNL     1      -0.972  11.131  22.018  0.00  0.00    +0.000 A 
ENDBRANCH  16  19
ENDBRANCH  14  16
ENDBRANCH   6  14
BRANCH   1  26
ATOM     26  C   UNL     1       4.433   5.429  16.870  0.00  0.00    +0.000 C 
BRANCH  26  27
ATOM     27  C   UNL     1       5.898   5.720  17.141  0.00  0.00    +0.000 C 
BRANCH  27  29
ATOM     28  O   UNL     1       6.110   3.583  15.602  0.00  0.00    +0.000 OA
ATOM     29  S   UNL     1       6.928   4.572  16.262  0.00  0.00    +0.000 S 
ATOM     30  O   UNL     1       8.067   4.212  17.074  0.00  0.00    +0.000 OA
BRANCH  29  31
ATOM     31  O   UNL     1       7.453   5.576  15.112  0.00  0.00    +0.000 OA
ATOM     32  H   UNL     1       6.902   6.387  15.126  0.00  0.00    +0.000 HD
ENDBRANCH  29  31
ENDBRANCH  27  29
ENDBRANCH  26  27
ENDBRANCH   1  26
TORSDOF 7
ENDMDL
MODEL 5
REMARK VINA RESULT:      -8.9      2.580      2.891
REMARK  Name = 
REMARK  7 active torsions:
REMARK  status: ('A' for Active; 'I' for Inactive)
REMARK    1  A    between atoms: S_2  and  O_4
REMARK    2  A    between atoms: S_2  and  C_5
REMARK    3  A    between atoms: C_5  and  C_6
REMARK    4  A    between atoms: C_6  and  N_7
REMARK    5  A    between atoms: C_12  and  N_13
REMARK    6  A    between atoms: N_13  and  S_14
REMARK    7  A    between atoms: S_14  and  C_17
REMARK                            x       y       z     vdW  Elec       q    Type
REMARK                         _______ _______ _______ _____ _____    ______ ____
ROOT
ATOM      1  N   UNL     1       4.268   4.891  18.748  0.00  0.00    +0.000 N 
ATOM      2  C   UNL     1       3.400   4.209  19.567  0.00  0.00    +0.000 A 
ATOM      3  C   UNL     1       2.271   4.986  19.744  0.00  0.00    +0.000 A 
ATOM      4  C   UNL     1       2.443   6.182  18.999  0.00  0.00    +0.000 A 
ATOM      5  C   UNL     1       1.652   7.340  18.816  0.00  0.00    +0.000 A 
ATOM      6  C   UNL     1       2.114   8.359  17.985  0.00  0.00    +0.000 A 
ATOM      7  C   UNL     1       3.320   8.227  17.304  0.00  0.00    +0.000 A 
ATOM      8  C   UNL     1       4.117   7.091  17.466  0.00  0.00    +0.000 A 
ATOM      9  C   UNL     1       3.678   6.084  18.341  0.00  0.00    +0.000 A 
ATOM     10  C   UNL     1       1.126   4.575  20.611  0.00  0.00    +0.000 C 
ATOM     11  C   UNL     1       1.182   3.073  20.938  0.00  0.00    +0.000 C 
ATOM     12  C   UNL     1       2.605   2.629  21.313  0.00  0.00    +0.000 C 
ATOM     13  C   UNL     1       3.595   2.844  20.152  0.00  0.00    +0.000 C 
ENDROOT
BRANCH   6  14
ATOM     14  N   UNL     1       1.335   9.523  17.767  0.00  0.00    +0.000 N 
ATOM     15  H   UNL     1       0.749   9.596  16.939  0.00  0.00    +0.000 HD
BRANCH  14  16
ATOM     16  S   UNL     1       0.953  10.558  19.035  0.00  0.00    +0.000 S 
ATOM     17  O   UNL     1       1.054   9.771  20.241  0.00  0.00    +0.000 OA
ATOM     18  O   UNL     1       1.691  11.800  18.883  0.00  0.00    +0.000 OA
BRANCH  16  19
ATOM     19  C   UNL     1      -0.770  10.891  18.750  0.00  0.00    +0.000 A 
ATOM     20  C   UNL     1      -1.431  11.873  19.497  0.00  0.00    +0.000 A 
ATOM     21  C   UNL     1      -2.793  12.094  19.280  0.00  0.00    +0.000 A 
ATOM     22  C   UNL     1      -3.469  11.349  18.317  0.00  0.00    +0.000 A 
ATOM     23  F   UNL     1      -4.780  11.547  18.129  0.00  0.00    +0.000 F 
ATOM     24  C   UNL     1      -2.805  10.394  17.550  0.00  0.00    +0.000 A 
ATOM     25  C   UNL     1      -1.445  10.169  17.758  0.00  0.00    +0.000 A 
ENDBRANCH  16  19
ENDBRANCH  14  16
ENDBRANCH   6  14
BRANCH   1  26
ATOM     26  C   UNL     1       5.609   4.458  18.367  0.00  0.00    +0.000 C 
BRANCH  26  27
ATOM     27  C   UNL     1       5.748   4.256  16.868  0.00  0.00    +0.000 C 
BRANCH  27  29
ATOM     28  O   UNL     1       7.387   6.323  16.732  0.00  0.00    +0.000 OA
ATOM     29  S   UNL     1       7.276   4.953  16.292  0.00  0.00    +0.000 S 
ATOM     30  O   UNL     1       7.507   4.563  14.921  0.00  0.00    +0.000 OA
BRANCH  29  31
ATOM     31  O   UNL     1       8.279   4.091  17.216  0.00  0.00    +0.000 OA
ATOM     32  H   UNL     1       8.700   3.398  16.663  0.00  0.00    +0.000 HD
ENDBRANCH  29  31
ENDBRANCH  27  29
ENDBRANCH  26  27
ENDBRANCH   1  26
TORSDOF 7
ENDMDL
MODEL 6
REMARK VINA RESULT:      -8.9      0.977      1.362
REMARK  Name = 
REMARK  7 active torsions:
REMARK  status: ('A' for Active; 'I' for Inactive)
REMARK    1  A    between atoms: S_2  and  O_4
REMARK    2  A    between atoms: S_2  and  C_5
REMARK    3  A    between atoms: C_5  and  C_6
REMARK    4  A    between atoms: C_6  and  N_7
REMARK    5  A    between atoms: C_12  and  N_13
REMARK    6  A    between atoms: N_13  and  S_14
REMARK    7  A    between atoms: S_14  and  C_17
REMARK                            x       y       z     vdW  Elec       q    Type
REMARK                         _______ _______ _______ _____ _____    ______ ____
ROOT
ATOM      1  N   UNL     1       3.734   5.640  18.261  0.00  0.00    +0.000 N 
ATOM      2  C   UNL     1       3.531   4.647  19.189  0.00  0.00    +0.000 A 
ATOM      3  C   UNL     1       2.609   5.100  20.113  0.00  0.00    +0.000 A 
ATOM      4  C   UNL     1       2.222   6.413  19.735  0.00  0.00    +0.000 A 
ATOM      5  C   UNL     1       1.344   7.370  20.296  0.00  0.00    +0.000 A 
ATOM      6  C   UNL     1       1.169   8.595  19.653  0.00  0.00    +0.000 A 
ATOM      7  C   UNL     1       1.812   8.863  18.449  0.00  0.00    +0.000 A 
ATOM      8  C   UNL     1       2.681   7.931  17.875  0.00  0.00    +0.000 A 
ATOM      9  C   UNL     1       2.898   6.716  18.545  0.00  0.00    +0.000 A 
ATOM     10  C   UNL     1       2.174   4.294  21.293  0.00  0.00    +0.000 C 
ATOM     11  C   UNL     1       2.555   2.812  21.131  0.00  0.00    +0.000 C 
ATOM     12  C   UNL     1       3.989   2.652  20.600  0.00  0.00    +0.000 C 
ATOM     13  C   UNL     1       4.154   3.285  19.204  0.00  0.00    +0.000 C 
ENDROOT
BRANCH   6  14
ATOM     14  N   UNL     1       0.281   9.566  20.180  0.00  0.00    +0.000 N 
ATOM     15  H   UNL     1      -0.718   9.382  20.207  0.00  0.00    +0.000 HD
BRANCH  14  16
ATOM     16  S   UNL     1       0.835  10.779  21.203  0.00  0.00    +0.000 S 
ATOM     17  O   UNL     1       1.425  10.111  22.339  0.00  0.00    +0.000 OA
ATOM     18  O   UNL     1       1.586  11.755  20.432  0.00  0.00    +0.000 OA
BRANCH  16  19
ATOM     19  C   UNL     1      -0.677  11.539  21.749  0.00  0.00    +0.000 A 
ATOM     20  C   UNL     1      -1.232  11.193  22.986  0.00  0.00    +0.000 A 
ATOM     21  C   UNL     1      -2.438  11.777  23.380  0.00  0.00    +0.000 A 
ATOM     22  C   UNL     1      -3.061  12.704  22.547  0.00  0.00    +0.000 A 
ATOM     23  F   UNL     1      -4.229  13.243  22.917  0.00  0.00    +0.000 F 
ATOM     24  C   UNL     1      -2.492  13.074  21.330  0.00  0.00    +0.000 A 
ATOM     25  C   UNL     1      -1.286  12.498  20.932  0.00  0.00    +0.000 A 
ENDBRANCH  16  19
ENDBRANCH  14  16
ENDBRANCH   6  14
BRANCH   1  26
ATOM     26  C   UNL     1       4.685   5.600  17.154  0.00  0.00    +0.000 C 
BRANCH  26  27
ATOM     27  C   UNL     1       6.119   5.795  17.616  0.00  0.00    +0.000 C 
BRANCH  27  29
ATOM     28  O   UNL     1       8.202   4.174  17.518  0.00  0.00    +0.000 OA
ATOM     29  S   UNL     1       7.218   4.784  16.656  0.00  0.00    +0.000 S 
ATOM     30  O   UNL     1       7.580   5.471  15.438  0.00  0.00    +0.000 OA
BRANCH  29  31
ATOM     31  O   UNL     1       6.169   3.622  16.262  0.00  0.00    +0.000 OA
ATOM     32  H   UNL     1       6.207   2.919  16.944  0.00  0.00    +0.000 HD
ENDBRANCH  29  31
ENDBRANCH  27  29
ENDBRANCH  26  27
ENDBRANCH   1  26
TORSDOF 7
ENDMDL
MODEL 7
REMARK VINA RESULT:      -8.8      0.903      1.364
REMARK  Name = 
REMARK  7 active torsions:
REMARK  status: ('A' for Active; 'I' for Inactive)
REMARK    1  A    between atoms: S_2  and  O_4
REMARK    2  A    between atoms: S_2  and  C_5
REMARK    3  A    between atoms: C_5  and  C_6
REMARK    4  A    between atoms: C_6  and  N_7
REMARK    5  A    between atoms: C_12  and  N_13
REMARK    6  A    between atoms: N_13  and  S_14
REMARK    7  A    between atoms: S_14  and  C_17
REMARK                            x       y       z     vdW  Elec       q    Type
REMARK                         _______ _______ _______ _____ _____    ______ ____
ROOT
ATOM      1  N   UNL     1       3.604   5.091  18.258  0.00  0.00    +0.000 N 
ATOM      2  C   UNL     1       3.396   4.173  19.260  0.00  0.00    +0.000 A 
ATOM      3  C   UNL     1       2.647   4.778  20.251  0.00  0.00    +0.000 A 
ATOM      4  C   UNL     1       2.373   6.109  19.841  0.00  0.00    +0.000 A 
ATOM      5  C   UNL     1       1.683   7.191  20.437  0.00  0.00    +0.000 A 
ATOM      6  C   UNL     1       1.577   8.397  19.745  0.00  0.00    +0.000 A 
ATOM      7  C   UNL     1       2.104   8.529  18.465  0.00  0.00    +0.000 A 
ATOM      8  C   UNL     1       2.786   7.472  17.855  0.00  0.00    +0.000 A 
ATOM      9  C   UNL     1       2.937   6.272  18.568  0.00  0.00    +0.000 A 
ATOM     10  C   UNL     1       2.261   4.085  21.518  0.00  0.00    +0.000 C 
ATOM     11  C   UNL     1       2.446   2.562  21.403  0.00  0.00    +0.000 C 
ATOM     12  C   UNL     1       3.780   2.204  20.728  0.00  0.00    +0.000 C 
ATOM     13  C   UNL     1       3.855   2.748  19.288  0.00  0.00    +0.000 C 
ENDROOT
BRANCH   6  14
ATOM     14  N   UNL     1       0.876   9.492  20.308  0.00  0.00    +0.000 N 
ATOM     15  H   UNL     1       0.471  10.203  19.705  0.00  0.00    +0.000 HD
BRANCH  14  16
ATOM     16  S   UNL     1       0.260   9.414  21.871  0.00  0.00    +0.000 S 
ATOM     17  O   UNL     1      -0.674   8.314  21.881  0.00  0.00    +0.000 OA
ATOM     18  O   UNL     1       1.354   9.480  22.825  0.00  0.00    +0.000 OA
BRANCH  16  19
ATOM     19  C   UNL     1      -0.677  10.920  21.987  0.00  0.00    +0.000 A 
ATOM     20  C   UNL     1      -1.447  11.184  23.126  0.00  0.00    +0.000 A 
ATOM     21  C   UNL     1      -2.203  12.358  23.181  0.00  0.00    +0.000 A 
ATOM     22  C   UNL     1      -2.168  13.253  22.115  0.00  0.00    +0.000 A 
ATOM     23  F   UNL     1      -2.912  14.364  22.161  0.00  0.00    +0.000 F 
ATOM     24  C   UNL     1      -1.375  13.007  20.995  0.00  0.00    +0.000 A 
ATOM     25  C   UNL     1      -0.616  11.839  20.934  0.00  0.00    +0.000 A 
ENDBRANCH  16  19
ENDBRANCH  14  16
ENDBRANCH   6  14
BRANCH   1  26
ATOM     26  C   UNL     1       4.409   4.884  17.058  0.00  0.00    +0.000 C 
BRANCH  26  27
ATOM     27  C   UNL     1       5.899   4.986  17.336  0.00  0.00    +0.000 C 
BRANCH  27  29
ATOM     28  O   UNL     1       7.563   5.557  15.365  0.00  0.00    +0.000 OA
ATOM     29  S   UNL     1       6.642   6.198  16.273  0.00  0.00    +0.000 S 
ATOM     30  O   UNL     1       7.004   7.368  17.039  0.00  0.00    +0.000 OA
BRANCH  29  31
ATOM     31  O   UNL     1       5.331   6.573  15.409  0.00  0.00    +0.000 OA
ATOM     32  H   UNL     1       4.802   7.231  15.908  0.00  0.00    +0.000 HD
ENDBRANCH  29  31
ENDBRANCH  27  29
ENDBRANCH  26  27
ENDBRANCH   1  26
TORSDOF 7
ENDMDL
MODEL 8
REMARK VINA RESULT:      -8.7      1.359      1.741
REMARK  Name = 
REMARK  7 active torsions:
REMARK  status: ('A' for Active; 'I' for Inactive)
REMARK    1  A    between atoms: S_2  and  O_4
REMARK    2  A    between atoms: S_2  and  C_5
REMARK    3  A    between atoms: C_5  and  C_6
REMARK    4  A    between atoms: C_6  and  N_7
REMARK    5  A    between atoms: C_12  and  N_13
REMARK    6  A    between atoms: N_13  and  S_14
REMARK    7  A    between atoms: S_14  and  C_17
REMARK                            x       y       z     vdW  Elec       q    Type
REMARK                         _______ _______ _______ _____ _____    ______ ____
ROOT
ATOM      1  N   UNL     1       3.826   5.747  18.342  0.00  0.00    +0.000 N 
ATOM      2  C   UNL     1       3.538   4.724  19.215  0.00  0.00    +0.000 A 
ATOM      3  C   UNL     1       2.551   5.157  20.078  0.00  0.00    +0.000 A 
ATOM      4  C   UNL     1       2.208   6.487  19.718  0.00  0.00    +0.000 A 
ATOM      5  C   UNL     1       1.299   7.436  20.242  0.00  0.00    +0.000 A 
ATOM      6  C   UNL     1       1.189   8.685  19.632  0.00  0.00    +0.000 A 
ATOM      7  C   UNL     1       1.929   8.986  18.494  0.00  0.00    +0.000 A 
ATOM      8  C   UNL     1       2.831   8.063  17.957  0.00  0.00    +0.000 A 
ATOM      9  C   UNL     1       2.981   6.823  18.598  0.00  0.00    +0.000 A 
ATOM     10  C   UNL     1       2.014   4.315  21.190  0.00  0.00    +0.000 C 
ATOM     11  C   UNL     1       2.391   2.836  21.006  0.00  0.00    +0.000 C 
ATOM     12  C   UNL     1       3.860   2.675  20.585  0.00  0.00    +0.000 C 
ATOM     13  C   UNL     1       4.144   3.354  19.231  0.00  0.00    +0.000 C 
ENDROOT
BRANCH   6  14
ATOM     14  N   UNL     1       0.272   9.649  20.121  0.00  0.00    +0.000 N 
ATOM     15  H   UNL     1      -0.723   9.540  19.948  0.00  0.00    +0.000 HD
BRANCH  14  16
ATOM     16  S   UNL     1       0.692  10.680  21.380  0.00  0.00    +0.000 S 
ATOM     17  O   UNL     1       1.066   9.833  22.488  0.00  0.00    +0.000 OA
ATOM     18  O   UNL     1       1.592  11.708  20.883  0.00  0.00    +0.000 OA
BRANCH  16  19
ATOM     19  C   UNL     1      -0.862  11.443  21.784  0.00  0.00    +0.000 A 
ATOM     20  C   UNL     1      -1.567  12.163  20.813  0.00  0.00    +0.000 A 
ATOM     21  C   UNL     1      -2.769  12.783  21.161  0.00  0.00    +0.000 A 
ATOM     22  C   UNL     1      -3.257  12.662  22.460  0.00  0.00    +0.000 A 
ATOM     23  F   UNL     1      -4.397  13.277  22.797  0.00  0.00    +0.000 F 
ATOM     24  C   UNL     1      -2.573  11.917  23.419  0.00  0.00    +0.000 A 
ATOM     25  C   UNL     1      -1.374  11.293  23.078  0.00  0.00    +0.000 A 
ENDBRANCH  16  19
ENDBRANCH  14  16
ENDBRANCH   6  14
BRANCH   1  26
ATOM     26  C   UNL     1       4.862   5.732  17.314  0.00  0.00    +0.000 C 
BRANCH  26  27
ATOM     27  C   UNL     1       6.035   6.632  17.662  0.00  0.00    +0.000 C 
BRANCH  27  29
ATOM     28  O   UNL     1       7.916   4.778  17.622  0.00  0.00    +0.000 OA
ATOM     29  S   UNL     1       7.284   5.710  18.524  0.00  0.00    +0.000 S 
ATOM     30  O   UNL     1       6.793   5.314  19.823  0.00  0.00    +0.000 OA
BRANCH  29  31
ATOM     31  O   UNL     1       8.335   6.914  18.751  0.00  0.00    +0.000 OA
ATOM     32  H   UNL     1       8.264   7.541  18.000  0.00  0.00    +0.000 HD
ENDBRANCH  29  31
ENDBRANCH  27  29
ENDBRANCH  26  27
ENDBRANCH   1  26
TORSDOF 7
ENDMDL
MODEL 9
REMARK VINA RESULT:      -8.6      2.316      2.731
REMARK  Name = 
REMARK  7 active torsions:
REMARK  status: ('A' for Active; 'I' for Inactive)
REMARK    1  A    between atoms: S_2  and  O_4
REMARK    2  A    between atoms: S_2  and  C_5
REMARK    3  A    between atoms: C_5  and  C_6
REMARK    4  A    between atoms: C_6  and  N_7
REMARK    5  A    between atoms: C_12  and  N_13
REMARK    6  A    between atoms: N_13  and  S_14
REMARK    7  A    between atoms: S_14  and  C_17
REMARK                            x       y       z     vdW  Elec       q    Type
REMARK                         _______ _______ _______ _____ _____    ______ ____
ROOT
ATOM      1  N   UNL     1       3.683   5.568  18.166  0.00  0.00    +0.000 N 
ATOM      2  C   UNL     1       3.473   4.560  19.077  0.00  0.00    +0.000 A 
ATOM      3  C   UNL     1       2.660   5.048  20.082  0.00  0.00    +0.000 A 
ATOM      4  C   UNL     1       2.348   6.398  19.774  0.00  0.00    +0.000 A 
ATOM      5  C   UNL     1       1.591   7.398  20.429  0.00  0.00    +0.000 A 
ATOM      6  C   UNL     1       1.463   8.654  19.838  0.00  0.00    +0.000 A 
ATOM      7  C   UNL     1       2.034   8.916  18.597  0.00  0.00    +0.000 A 
ATOM      8  C   UNL     1       2.784   7.942  17.930  0.00  0.00    +0.000 A 
ATOM      9  C   UNL     1       2.956   6.692  18.546  0.00  0.00    +0.000 A 
ATOM     10  C   UNL     1       2.253   4.235  21.268  0.00  0.00    +0.000 C 
ATOM     11  C   UNL     1       2.505   2.736  21.033  0.00  0.00    +0.000 C 
ATOM     12  C   UNL     1       3.879   2.488  20.389  0.00  0.00    +0.000 C 
ATOM     13  C   UNL     1       3.989   3.156  19.005  0.00  0.00    +0.000 C 
ENDROOT
BRANCH   6  14
ATOM     14  N   UNL     1       0.695   9.669  20.460  0.00  0.00    +0.000 N 
ATOM     15  H   UNL     1       0.827   9.878  21.446  0.00  0.00    +0.000 HD
BRANCH  14  16
ATOM     16  S   UNL     1      -0.059  10.865  19.550  0.00  0.00    +0.000 S 
ATOM     17  O   UNL     1      -0.200  10.327  18.217  0.00  0.00    +0.000 OA
ATOM     18  O   UNL     1      -1.206  11.377  20.279  0.00  0.00    +0.000 OA
BRANCH  16  19
ATOM     19  C   UNL     1       1.181  12.138  19.490  0.00  0.00    +0.000 A 
ATOM     20  C   UNL     1       1.689  12.569  18.259  0.00  0.00    +0.000 A 
ATOM     21  C   UNL     1       2.687  13.546  18.238  0.00  0.00    +0.000 A 
ATOM     22  C   UNL     1       3.149  14.088  19.435  0.00  0.00    +0.000 A 
ATOM     23  F   UNL     1       4.123  15.006  19.412  0.00  0.00    +0.000 F 
ATOM     24  C   UNL     1       2.620  13.684  20.659  0.00  0.00    +0.000 A 
ATOM     25  C   UNL     1       1.622  12.711  20.689  0.00  0.00    +0.000 A 
ENDBRANCH  16  19
ENDBRANCH  14  16
ENDBRANCH   6  14
BRANCH   1  26
ATOM     26  C   UNL     1       4.543   5.495  16.989  0.00  0.00    +0.000 C 
BRANCH  26  27
ATOM     27  C   UNL     1       5.993   5.812  17.312  0.00  0.00    +0.000 C 
BRANCH  27  29
ATOM     28  O   UNL     1       8.105   4.226  17.252  0.00  0.00    +0.000 OA
ATOM     29  S   UNL     1       7.076   4.752  16.388  0.00  0.00    +0.000 S 
ATOM     30  O   UNL     1       7.376   5.352  15.108  0.00  0.00    +0.000 OA
BRANCH  29  31
ATOM     31  O   UNL     1       6.038   3.545  16.123  0.00  0.00    +0.000 OA
ATOM     32  H   UNL     1       5.687   3.626  15.211  0.00  0.00    +0.000 HD
ENDBRANCH  29  31
ENDBRANCH  27  29
ENDBRANCH  26  27
ENDBRANCH   1  26
TORSDOF 7
ENDMDL
