MODEL 1
REMARK VINA RESULT:      -7.8      0.000      0.000
REMARK  Name = 
REMARK  13 active torsions:
REMARK  status: ('A' for Active; 'I' for Inactive)
REMARK    1  A    between atoms: C_1  and  C_2
REMARK    2  A    between atoms: C_2  and  O_3
REMARK    3  A    between atoms: O_3  and  C_4
REMARK    4  A    between atoms: C_4  and  C_6
REMARK    5  A    between atoms: C_6  and  C_7
REMARK    6  A    between atoms: C_7  and  C_8
REMARK    7  A    between atoms: C_8  and  O_9
REMARK    8  A    between atoms: O_9  and  C_10
REMARK    9  A    between atoms: C_14  and  C_15
REMARK   10  A    between atoms: C_15  and  C_16
REMARK   11  A    between atoms: C_19  and  C_20
REMARK   12  A    between atoms: N_21  and  C_22
REMARK   13  A    between atoms: C_22  and  C_23
REMARK                            x       y       z     vdW  Elec       q    Type
REMARK                         _______ _______ _______ _____ _____    ______ ____
ROOT
ATOM      1  C   UNL     1       7.210   6.748  17.612  0.00  0.00    +0.000 A 
ATOM      2  C   UNL     1       7.552   5.480  18.075  0.00  0.00    +0.000 A 
ATOM      3  C   UNL     1       6.572   4.498  18.281  0.00  0.00    +0.000 A 
ATOM      4  C   UNL     1       5.217   4.788  18.027  0.00  0.00    +0.000 A 
ATOM      5  C   UNL     1       4.012   4.020  18.101  0.00  0.00    +0.000 A 
ATOM      6  C   UNL     1       2.968   4.863  17.744  0.00  0.00    +0.000 A 
ATOM      7  C   UNL     1       1.513   4.554  17.641  0.00  0.00    +0.000 C 
ATOM      8  N   UNL     1       3.497   6.123  17.529  0.00  0.00    +0.000 N 
ATOM      9  C   UNL     1       4.882   6.080  17.618  0.00  0.00    +0.000 A 
ATOM     10  C   UNL     1       5.863   7.068  17.390  0.00  0.00    +0.000 A 
ENDROOT
BRANCH   1  11
ATOM     11  O   UNL     1       8.108   7.753  17.333  0.00  0.00    +0.000 OA
BRANCH  11  12
ATOM     12  C   UNL     1       7.720   9.069  17.735  0.00  0.00    +0.000 C 
BRANCH  12  13
ATOM     13  C   UNL     1       8.839   9.708  18.550  0.00  0.00    +0.000 C 
BRANCH  13  14
ATOM     14  C   UNL     1       9.039  11.166  18.144  0.00  0.00    +0.000 C 
BRANCH  14  15
ATOM     15  C   UNL     1      10.478  11.590  18.291  0.00  0.00    +0.000 C 
ATOM     16  O   UNL     1      11.268  11.135  19.106  0.00  0.00    +0.000 OA
BRANCH  15  17
ATOM     17  O   UNL     1      10.732  12.623  17.438  0.00  0.00    +0.000 OA
BRANCH  17  19
ATOM     18  C   UNL     1      10.762  14.498  18.913  0.00  0.00    +0.000 C 
ATOM     19  C   UNL     1      10.042  13.841  17.749  0.00  0.00    +0.000 C 
ENDBRANCH  17  19
ENDBRANCH  15  17
ENDBRANCH  14  15
ENDBRANCH  13  14
ENDBRANCH  12  13
ENDBRANCH  11  12
ENDBRANCH   1  11
BRANCH   5  20
ATOM     20  C   UNL     1       3.891   2.587  18.538  0.00  0.00    +0.000 C 
BRANCH  20  21
ATOM     21  C   UNL     1       4.110   2.293  20.018  0.00  0.00    +0.000 C 
ATOM     22  N   UNL     1       5.187   1.556  20.393  0.00  0.00    +0.000 N 
ATOM     23  O   UNL     1       3.343   2.725  20.876  0.00  0.00    +0.000 OA
ATOM     24  H   UNL     1       5.767   1.060  19.728  0.00  0.00    +0.000 HD
ATOM     25  H   UNL     1       5.283   1.338  21.376  0.00  0.00    +0.000 HD
ENDBRANCH  20  21
ENDBRANCH   5  20
BRANCH   8  26
ATOM     26  C   UNL     1       2.720   7.351  17.338  0.00  0.00    +0.000 C 
BRANCH  26  27
ATOM     27  C   UNL     1       2.149   7.947  18.604  0.00  0.00    +0.000 A 
ATOM     28  C   UNL     1       2.183   7.300  19.847  0.00  0.00    +0.000 A 
ATOM     29  C   UNL     1       1.557   7.859  20.961  0.00  0.00    +0.000 A 
ATOM     30  C   UNL     1       0.905   9.084  20.856  0.00  0.00    +0.000 A 
ATOM     31  C   UNL     1       0.903   9.766  19.642  0.00  0.00    +0.000 A 
ATOM     32  C   UNL     1       1.525   9.205  18.525  0.00  0.00    +0.000 A 
ENDBRANCH  26  27
ENDBRANCH   8  26
TORSDOF 11
ENDMDL
MODEL 2
REMARK VINA RESULT:      -7.6      1.115      1.295
REMARK  Name = 
REMARK  13 active torsions:
REMARK  status: ('A' for Active; 'I' for Inactive)
REMARK    1  A    between atoms: C_1  and  C_2
REMARK    2  A    between atoms: C_2  and  O_3
REMARK    3  A    between atoms: O_3  and  C_4
REMARK    4  A    between atoms: C_4  and  C_6
REMARK    5  A    between atoms: C_6  and  C_7
REMARK    6  A    between atoms: C_7  and  C_8
REMARK    7  A    between atoms: C_8  and  O_9
REMARK    8  A    between atoms: O_9  and  C_10
REMARK    9  A    between atoms: C_14  and  C_15
REMARK   10  A    between atoms: C_15  and  C_16
REMARK   11  A    between atoms: C_19  and  C_20
REMARK   12  A    between atoms: N_21  and  C_22
REMARK   13  A    between atoms: C_22  and  C_23
REMARK                            x       y       z     vdW  Elec       q    Type
REMARK                         _______ _______ _______ _____ _____    ______ ____
ROOT
ATOM      1  C   UNL     1       7.085   6.939  17.530  0.00  0.00    +0.000 A 
ATOM      2  C   UNL     1       7.480   5.673  17.958  0.00  0.00    +0.000 A 
ATOM      3  C   UNL     1       6.537   4.657  18.173  0.00  0.00    +0.000 A 
ATOM      4  C   UNL     1       5.167   4.910  17.964  0.00  0.00    +0.000 A 
ATOM      5  C   UNL     1       3.988   4.103  18.057  0.00  0.00    +0.000 A 
ATOM      6  C   UNL     1       2.909   4.919  17.747  0.00  0.00    +0.000 A 
ATOM      7  C   UNL     1       1.462   4.567  17.680  0.00  0.00    +0.000 C 
ATOM      8  N   UNL     1       3.393   6.199  17.542  0.00  0.00    +0.000 N 
ATOM      9  C   UNL     1       4.780   6.198  17.590  0.00  0.00    +0.000 A 
ATOM     10  C   UNL     1       5.723   7.221  17.353  0.00  0.00    +0.000 A 
ENDROOT
BRANCH   1  11
ATOM     11  O   UNL     1       7.943   7.976  17.245  0.00  0.00    +0.000 OA
BRANCH  11  12
ATOM     12  C   UNL     1       8.445   8.700  18.370  0.00  0.00    +0.000 C 
BRANCH  12  13
ATOM     13  C   UNL     1       8.612  10.171  18.004  0.00  0.00    +0.000 C 
BRANCH  13  14
ATOM     14  C   UNL     1       9.788  10.787  18.758  0.00  0.00    +0.000 C 
BRANCH  14  15
ATOM     15  C   UNL     1       9.462  12.172  19.256  0.00  0.00    +0.000 C 
ATOM     16  O   UNL     1       8.731  12.971  18.690  0.00  0.00    +0.000 OA
BRANCH  15  17
ATOM     17  O   UNL     1      10.185  12.424  20.384  0.00  0.00    +0.000 OA
BRANCH  17  19
ATOM     18  C   UNL     1       9.704  14.237  21.860  0.00  0.00    +0.000 C 
ATOM     19  C   UNL     1       9.403  12.785  21.530  0.00  0.00    +0.000 C 
ENDBRANCH  17  19
ENDBRANCH  15  17
ENDBRANCH  14  15
ENDBRANCH  13  14
ENDBRANCH  12  13
ENDBRANCH  11  12
ENDBRANCH   1  11
BRANCH   5  20
ATOM     20  C   UNL     1       3.925   2.658  18.469  0.00  0.00    +0.000 C 
BRANCH  20  21
ATOM     21  C   UNL     1       4.064   2.355  19.956  0.00  0.00    +0.000 C 
ATOM     22  N   UNL     1       5.171   1.705  20.398  0.00  0.00    +0.000 N 
ATOM     23  O   UNL     1       3.205   2.705  20.763  0.00  0.00    +0.000 OA
ATOM     24  H   UNL     1       5.836   1.273  19.769  0.00  0.00    +0.000 HD
ATOM     25  H   UNL     1       5.216   1.477  21.382  0.00  0.00    +0.000 HD
ENDBRANCH  20  21
ENDBRANCH   5  20
BRANCH   8  26
ATOM     26  C   UNL     1       2.573   7.406  17.398  0.00  0.00    +0.000 C 
BRANCH  26  27
ATOM     27  C   UNL     1       2.054   7.981  18.695  0.00  0.00    +0.000 A 
ATOM     28  C   UNL     1       2.139   7.316  19.926  0.00  0.00    +0.000 A 
ATOM     29  C   UNL     1       1.559   7.857  21.073  0.00  0.00    +0.000 A 
ATOM     30  C   UNL     1       0.902   9.083  21.013  0.00  0.00    +0.000 A 
ATOM     31  C   UNL     1       0.850   9.783  19.811  0.00  0.00    +0.000 A 
ATOM     32  C   UNL     1       1.426   9.240  18.660  0.00  0.00    +0.000 A 
ENDBRANCH  26  27
ENDBRANCH   8  26
TORSDOF 11
ENDMDL
MODEL 3
REMARK VINA RESULT:      -7.6      0.596      1.109
REMARK  Name = 
REMARK  13 active torsions:
REMARK  status: ('A' for Active; 'I' for Inactive)
REMARK    1  A    between atoms: C_1  and  C_2
REMARK    2  A    between atoms: C_2  and  O_3
REMARK    3  A    between atoms: O_3  and  C_4
REMARK    4  A    between atoms: C_4  and  C_6
REMARK    5  A    between atoms: C_6  and  C_7
REMARK    6  A    between atoms: C_7  and  C_8
REMARK    7  A    between atoms: C_8  and  O_9
REMARK    8  A    between atoms: O_9  and  C_10
REMARK    9  A    between atoms: C_14  and  C_15
REMARK   10  A    between atoms: C_15  and  C_16
REMARK   11  A    between atoms: C_19  and  C_20
REMARK   12  A    between atoms: N_21  and  C_22
REMARK   13  A    between atoms: C_22  and  C_23
REMARK                            x       y       z     vdW  Elec       q    Type
REMARK                         _______ _______ _______ _____ _____    ______ ____
ROOT
ATOM      1  C   UNL     1       7.119   6.988  17.599  0.00  0.00    +0.000 A 
ATOM      2  C   UNL     1       7.508   5.717  18.014  0.00  0.00    +0.000 A 
ATOM      3  C   UNL     1       6.562   4.698  18.201  0.00  0.00    +0.000 A 
ATOM      4  C   UNL     1       5.194   4.954  17.977  0.00  0.00    +0.000 A 
ATOM      5  C   UNL     1       4.015   4.146  18.043  0.00  0.00    +0.000 A 
ATOM      6  C   UNL     1       2.940   4.968  17.730  0.00  0.00    +0.000 A 
ATOM      7  C   UNL     1       1.493   4.617  17.639  0.00  0.00    +0.000 C 
ATOM      8  N   UNL     1       3.426   6.250  17.551  0.00  0.00    +0.000 N 
ATOM      9  C   UNL     1       4.813   6.248  17.617  0.00  0.00    +0.000 A 
ATOM     10  C   UNL     1       5.759   7.274  17.409  0.00  0.00    +0.000 A 
ENDROOT
BRANCH   1  11
ATOM     11  O   UNL     1       7.980   8.030  17.342  0.00  0.00    +0.000 OA
BRANCH  11  12
ATOM     12  C   UNL     1       8.506   8.706  18.486  0.00  0.00    +0.000 C 
BRANCH  12  13
ATOM     13  C   UNL     1       8.864  10.141  18.116  0.00  0.00    +0.000 C 
BRANCH  13  14
ATOM     14  C   UNL     1       9.476  10.871  19.310  0.00  0.00    +0.000 C 
BRANCH  14  15
ATOM     15  C   UNL     1      10.695  11.662  18.910  0.00  0.00    +0.000 C 
ATOM     16  O   UNL     1      11.845  11.250  18.941  0.00  0.00    +0.000 OA
BRANCH  15  17
ATOM     17  O   UNL     1      10.321  12.936  18.600  0.00  0.00    +0.000 OA
BRANCH  17  19
ATOM     18  C   UNL     1      11.379  14.157  16.844  0.00  0.00    +0.000 C 
ATOM     19  C   UNL     1      11.407  13.832  18.327  0.00  0.00    +0.000 C 
ENDBRANCH  17  19
ENDBRANCH  15  17
ENDBRANCH  14  15
ENDBRANCH  13  14
ENDBRANCH  12  13
ENDBRANCH  11  12
ENDBRANCH   1  11
BRANCH   5  20
ATOM     20  C   UNL     1       3.945   2.696  18.432  0.00  0.00    +0.000 C 
BRANCH  20  21
ATOM     21  C   UNL     1       4.073   2.370  19.916  0.00  0.00    +0.000 C 
ATOM     22  N   UNL     1       5.174   1.710  20.356  0.00  0.00    +0.000 N 
ATOM     23  O   UNL     1       3.209   2.710  20.722  0.00  0.00    +0.000 OA
ATOM     24  H   UNL     1       5.843   1.285  19.725  0.00  0.00    +0.000 HD
ATOM     25  H   UNL     1       5.212   1.467  21.336  0.00  0.00    +0.000 HD
ENDBRANCH  20  21
ENDBRANCH   5  20
BRANCH   8  26
ATOM     26  C   UNL     1       2.609   7.459  17.414  0.00  0.00    +0.000 C 
BRANCH  26  27
ATOM     27  C   UNL     1       2.009   7.971  18.703  0.00  0.00    +0.000 A 
ATOM     28  C   UNL     1       1.311   9.184  18.803  0.00  0.00    +0.000 A 
ATOM     29  C   UNL     1       0.861   9.649  20.038  0.00  0.00    +0.000 A 
ATOM     30  C   UNL     1       1.081   8.900  21.191  0.00  0.00    +0.000 A 
ATOM     31  C   UNL     1       1.727   7.670  21.105  0.00  0.00    +0.000 A 
ATOM     32  C   UNL     1       2.183   7.205  19.869  0.00  0.00    +0.000 A 
ENDBRANCH  26  27
ENDBRANCH   8  26
TORSDOF 11
ENDMDL
MODEL 4
REMARK VINA RESULT:      -7.4      1.104      1.308
REMARK  Name = 
REMARK  13 active torsions:
REMARK  status: ('A' for Active; 'I' for Inactive)
REMARK    1  A    between atoms: C_1  and  C_2
REMARK    2  A    between atoms: C_2  and  O_3
REMARK    3  A    between atoms: O_3  and  C_4
REMARK    4  A    between atoms: C_4  and  C_6
REMARK    5  A    between atoms: C_6  and  C_7
REMARK    6  A    between atoms: C_7  and  C_8
REMARK    7  A    between atoms: C_8  and  O_9
REMARK    8  A    between atoms: O_9  and  C_10
REMARK    9  A    between atoms: C_14  and  C_15
REMARK   10  A    between atoms: C_15  and  C_16
REMARK   11  A    between atoms: C_19  and  C_20
REMARK   12  A    between atoms: N_21  and  C_22
REMARK   13  A    between atoms: C_22  and  C_23
REMARK                            x       y       z     vdW  Elec       q    Type
REMARK                         _______ _______ _______ _____ _____    ______ ____
ROOT
ATOM      1  C   UNL     1       7.318   6.859  18.087  0.00  0.00    +0.000 A 
ATOM      2  C   UNL     1       7.641   5.592  18.566  0.00  0.00    +0.000 A 
ATOM      3  C   UNL     1       6.666   4.591  18.674  0.00  0.00    +0.000 A 
ATOM      4  C   UNL     1       5.333   4.860  18.303  0.00  0.00    +0.000 A 
ATOM      5  C   UNL     1       4.141   4.069  18.261  0.00  0.00    +0.000 A 
ATOM      6  C   UNL     1       3.118   4.897  17.821  0.00  0.00    +0.000 A 
ATOM      7  C   UNL     1       1.683   4.564  17.585  0.00  0.00    +0.000 C 
ATOM      8  N   UNL     1       3.640   6.169  17.666  0.00  0.00    +0.000 N 
ATOM      9  C   UNL     1       5.012   6.150  17.878  0.00  0.00    +0.000 A 
ATOM     10  C   UNL     1       5.990   7.158  17.748  0.00  0.00    +0.000 A 
ENDROOT
BRANCH   1  11
ATOM     11  O   UNL     1       8.218   7.883  17.899  0.00  0.00    +0.000 OA
BRANCH  11  12
ATOM     12  C   UNL     1       7.658   9.159  17.580  0.00  0.00    +0.000 C 
BRANCH  12  13
ATOM     13  C   UNL     1       8.625  10.263  17.989  0.00  0.00    +0.000 C 
BRANCH  13  14
ATOM     14  C   UNL     1       9.264   9.950  19.341  0.00  0.00    +0.000 C 
BRANCH  14  15
ATOM     15  C   UNL     1      10.224  11.032  19.763  0.00  0.00    +0.000 C 
ATOM     16  O   UNL     1      11.242  11.346  19.164  0.00  0.00    +0.000 OA
BRANCH  15  17
ATOM     17  O   UNL     1       9.829  11.539  20.965  0.00  0.00    +0.000 OA
BRANCH  17  19
ATOM     18  C   UNL     1       8.732  13.569  20.358  0.00  0.00    +0.000 C 
ATOM     19  C   UNL     1       9.926  12.965  21.077  0.00  0.00    +0.000 C 
ENDBRANCH  17  19
ENDBRANCH  15  17
ENDBRANCH  14  15
ENDBRANCH  13  14
ENDBRANCH  12  13
ENDBRANCH  11  12
ENDBRANCH   1  11
BRANCH   5  20
ATOM     20  C   UNL     1       4.009   2.629  18.672  0.00  0.00    +0.000 C 
BRANCH  20  21
ATOM     21  C   UNL     1       4.127   2.319  20.160  0.00  0.00    +0.000 C 
ATOM     22  N   UNL     1       3.101   2.647  20.987  0.00  0.00    +0.000 N 
ATOM     23  O   UNL     1       5.121   1.762  20.620  0.00  0.00    +0.000 OA
ATOM     24  H   UNL     1       2.327   3.228  20.691  0.00  0.00    +0.000 HD
ATOM     25  H   UNL     1       3.225   2.471  21.975  0.00  0.00    +0.000 HD
ENDBRANCH  20  21
ENDBRANCH   5  20
BRANCH   8  26
ATOM     26  C   UNL     1       2.860   7.385  17.419  0.00  0.00    +0.000 C 
BRANCH  26  27
ATOM     27  C   UNL     1       2.194   7.975  18.640  0.00  0.00    +0.000 A 
ATOM     28  C   UNL     1       2.190   7.351  19.896  0.00  0.00    +0.000 A 
ATOM     29  C   UNL     1       1.479   7.899  20.964  0.00  0.00    +0.000 A 
ATOM     30  C   UNL     1       0.779   9.090  20.800  0.00  0.00    +0.000 A 
ATOM     31  C   UNL     1       0.812   9.751  19.575  0.00  0.00    +0.000 A 
ATOM     32  C   UNL     1       1.519   9.201  18.504  0.00  0.00    +0.000 A 
ENDBRANCH  26  27
ENDBRANCH   8  26
TORSDOF 11
ENDMDL
MODEL 5
REMARK VINA RESULT:      -7.4      0.972      1.528
REMARK  Name = 
REMARK  13 active torsions:
REMARK  status: ('A' for Active; 'I' for Inactive)
REMARK    1  A    between atoms: C_1  and  C_2
REMARK    2  A    between atoms: C_2  and  O_3
REMARK    3  A    between atoms: O_3  and  C_4
REMARK    4  A    between atoms: C_4  and  C_6
REMARK    5  A    between atoms: C_6  and  C_7
REMARK    6  A    between atoms: C_7  and  C_8
REMARK    7  A    between atoms: C_8  and  O_9
REMARK    8  A    between atoms: O_9  and  C_10
REMARK    9  A    between atoms: C_14  and  C_15
REMARK   10  A    between atoms: C_15  and  C_16
REMARK   11  A    between atoms: C_19  and  C_20
REMARK   12  A    between atoms: N_21  and  C_22
REMARK   13  A    between atoms: C_22  and  C_23
REMARK                            x       y       z     vdW  Elec       q    Type
REMARK                         _______ _______ _______ _____ _____    ______ ____
ROOT
ATOM      1  C   UNL     1       7.440   6.841  17.940  0.00  0.00    +0.000 A 
ATOM      2  C   UNL     1       7.743   5.564  18.408  0.00  0.00    +0.000 A 
ATOM      3  C   UNL     1       6.747   4.584  18.527  0.00  0.00    +0.000 A 
ATOM      4  C   UNL     1       5.415   4.884  18.179  0.00  0.00    +0.000 A 
ATOM      5  C   UNL     1       4.205   4.120  18.153  0.00  0.00    +0.000 A 
ATOM      6  C   UNL     1       3.193   4.973  17.733  0.00  0.00    +0.000 A 
ATOM      7  C   UNL     1       1.748   4.672  17.520  0.00  0.00    +0.000 C 
ATOM      8  N   UNL     1       3.741   6.233  17.577  0.00  0.00    +0.000 N 
ATOM      9  C   UNL     1       5.115   6.183  17.765  0.00  0.00    +0.000 A 
ATOM     10  C   UNL     1       6.113   7.170  17.625  0.00  0.00    +0.000 A 
ENDROOT
BRANCH   1  11
ATOM     11  O   UNL     1       8.359   7.845  17.742  0.00  0.00    +0.000 OA
BRANCH  11  12
ATOM     12  C   UNL     1       7.846   9.179  17.777  0.00  0.00    +0.000 C 
BRANCH  12  13
ATOM     13  C   UNL     1       8.915  10.128  18.305  0.00  0.00    +0.000 C 
BRANCH  13  14
ATOM     14  C   UNL     1       8.680  11.548  17.795  0.00  0.00    +0.000 C 
BRANCH  14  15
ATOM     15  C   UNL     1       9.675  12.518  18.377  0.00  0.00    +0.000 C 
ATOM     16  O   UNL     1      10.199  13.441  17.771  0.00  0.00    +0.000 OA
BRANCH  15  17
ATOM     17  O   UNL     1       9.970  12.146  19.655  0.00  0.00    +0.000 OA
BRANCH  17  19
ATOM     18  C   UNL     1      12.323  11.755  19.700  0.00  0.00    +0.000 C 
ATOM     19  C   UNL     1      11.204  12.670  20.164  0.00  0.00    +0.000 C 
ENDBRANCH  17  19
ENDBRANCH  15  17
ENDBRANCH  14  15
ENDBRANCH  13  14
ENDBRANCH  12  13
ENDBRANCH  11  12
ENDBRANCH   1  11
BRANCH   5  20
ATOM     20  C   UNL     1       4.047   2.681  18.559  0.00  0.00    +0.000 C 
BRANCH  20  21
ATOM     21  C   UNL     1       4.072   2.375  20.052  0.00  0.00    +0.000 C 
ATOM     22  N   UNL     1       3.010   2.733  20.818  0.00  0.00    +0.000 N 
ATOM     23  O   UNL     1       5.024   1.795  20.570  0.00  0.00    +0.000 OA
ATOM     24  H   UNL     1       2.269   3.332  20.476  0.00  0.00    +0.000 HD
ATOM     25  H   UNL     1       3.072   2.559  21.812  0.00  0.00    +0.000 HD
ENDBRANCH  20  21
ENDBRANCH   5  20
BRANCH   8  26
ATOM     26  C   UNL     1       2.984   7.468  17.348  0.00  0.00    +0.000 C 
BRANCH  26  27
ATOM     27  C   UNL     1       2.236   7.989  18.552  0.00  0.00    +0.000 A 
ATOM     28  C   UNL     1       1.486   9.174  18.545  0.00  0.00    +0.000 A 
ATOM     29  C   UNL     1       0.894   9.652  19.714  0.00  0.00    +0.000 A 
ATOM     30  C   UNL     1       1.023   8.943  20.904  0.00  0.00    +0.000 A 
ATOM     31  C   UNL     1       1.721   7.739  20.922  0.00  0.00    +0.000 A 
ATOM     32  C   UNL     1       2.319   7.261  19.753  0.00  0.00    +0.000 A 
ENDBRANCH  26  27
ENDBRANCH   8  26
TORSDOF 11
ENDMDL
MODEL 6
REMARK VINA RESULT:      -7.3      1.067      1.101
REMARK  Name = 
REMARK  13 active torsions:
REMARK  status: ('A' for Active; 'I' for Inactive)
REMARK    1  A    between atoms: C_1  and  C_2
REMARK    2  A    between atoms: C_2  and  O_3
REMARK    3  A    between atoms: O_3  and  C_4
REMARK    4  A    between atoms: C_4  and  C_6
REMARK    5  A    between atoms: C_6  and  C_7
REMARK    6  A    between atoms: C_7  and  C_8
REMARK    7  A    between atoms: C_8  and  O_9
REMARK    8  A    between atoms: O_9  and  C_10
REMARK    9  A    between atoms: C_14  and  C_15
REMARK   10  A    between atoms: C_15  and  C_16
REMARK   11  A    between atoms: C_19  and  C_20
REMARK   12  A    between atoms: N_21  and  C_22
REMARK   13  A    between atoms: C_22  and  C_23
REMARK                            x       y       z     vdW  Elec       q    Type
REMARK                         _______ _______ _______ _____ _____    ______ ____
ROOT
ATOM      1  C   UNL     1       7.110   7.013  17.537  0.00  0.00    +0.000 A 
ATOM      2  C   UNL     1       7.510   5.749  17.963  0.00  0.00    +0.000 A 
ATOM      3  C   UNL     1       6.572   4.727  18.168  0.00  0.00    +0.000 A 
ATOM      4  C   UNL     1       5.201   4.971  17.951  0.00  0.00    +0.000 A 
ATOM      5  C   UNL     1       4.028   4.156  18.034  0.00  0.00    +0.000 A 
ATOM      6  C   UNL     1       2.945   4.967  17.720  0.00  0.00    +0.000 A 
ATOM      7  C   UNL     1       1.500   4.605  17.643  0.00  0.00    +0.000 C 
ATOM      8  N   UNL     1       3.422   6.250  17.522  0.00  0.00    +0.000 N 
ATOM      9  C   UNL     1       4.809   6.258  17.579  0.00  0.00    +0.000 A 
ATOM     10  C   UNL     1       5.747   7.287  17.352  0.00  0.00    +0.000 A 
ENDROOT
BRANCH   1  11
ATOM     11  O   UNL     1       7.963   8.057  17.260  0.00  0.00    +0.000 OA
BRANCH  11  12
ATOM     12  C   UNL     1       8.503   8.740  18.393  0.00  0.00    +0.000 C 
BRANCH  12  13
ATOM     13  C   UNL     1       8.409  10.247  18.180  0.00  0.00    +0.000 C 
BRANCH  13  14
ATOM     14  C   UNL     1       9.793  10.890  18.235  0.00  0.00    +0.000 C 
BRANCH  14  15
ATOM     15  C   UNL     1       9.805  12.100  19.133  0.00  0.00    +0.000 C 
ATOM     16  O   UNL     1       9.037  12.298  20.062  0.00  0.00    +0.000 OA
BRANCH  15  17
ATOM     17  O   UNL     1      10.746  12.981  18.685  0.00  0.00    +0.000 OA
BRANCH  17  19
ATOM     18  C   UNL     1      12.149  13.366  16.794  0.00  0.00    +0.000 C 
ATOM     19  C   UNL     1      10.714  13.227  17.273  0.00  0.00    +0.000 C 
ENDBRANCH  17  19
ENDBRANCH  15  17
ENDBRANCH  14  15
ENDBRANCH  13  14
ENDBRANCH  12  13
ENDBRANCH  11  12
ENDBRANCH   1  11
BRANCH   5  20
ATOM     20  C   UNL     1       3.971   2.710  18.442  0.00  0.00    +0.000 C 
BRANCH  20  21
ATOM     21  C   UNL     1       2.949   2.330  19.507  0.00  0.00    +0.000 C 
ATOM     22  N   UNL     1       1.891   1.552  19.162  0.00  0.00    +0.000 N 
ATOM     23  O   UNL     1       3.076   2.696  20.674  0.00  0.00    +0.000 OA
ATOM     24  H   UNL     1       1.662   1.341  18.198  0.00  0.00    +0.000 HD
ATOM     25  H   UNL     1       1.206   1.353  19.877  0.00  0.00    +0.000 HD
ENDBRANCH  20  21
ENDBRANCH   5  20
BRANCH   8  26
ATOM     26  C   UNL     1       2.595   7.452  17.377  0.00  0.00    +0.000 C 
BRANCH  26  27
ATOM     27  C   UNL     1       2.072   8.026  18.673  0.00  0.00    +0.000 A 
ATOM     28  C   UNL     1       2.125   7.345  19.898  0.00  0.00    +0.000 A 
ATOM     29  C   UNL     1       1.542   7.888  21.043  0.00  0.00    +0.000 A 
ATOM     30  C   UNL     1       0.916   9.130  20.987  0.00  0.00    +0.000 A 
ATOM     31  C   UNL     1       0.896   9.844  19.792  0.00  0.00    +0.000 A 
ATOM     32  C   UNL     1       1.475   9.299  18.644  0.00  0.00    +0.000 A 
ENDBRANCH  26  27
ENDBRANCH   8  26
TORSDOF 11
ENDMDL
MODEL 7
REMARK VINA RESULT:      -7.3      1.587      1.946
REMARK  Name = 
REMARK  13 active torsions:
REMARK  status: ('A' for Active; 'I' for Inactive)
REMARK    1  A    between atoms: C_1  and  C_2
REMARK    2  A    between atoms: C_2  and  O_3
REMARK    3  A    between atoms: O_3  and  C_4
REMARK    4  A    between atoms: C_4  and  C_6
REMARK    5  A    between atoms: C_6  and  C_7
REMARK    6  A    between atoms: C_7  and  C_8
REMARK    7  A    between atoms: C_8  and  O_9
REMARK    8  A    between atoms: O_9  and  C_10
REMARK    9  A    between atoms: C_14  and  C_15
REMARK   10  A    between atoms: C_15  and  C_16
REMARK   11  A    between atoms: C_19  and  C_20
REMARK   12  A    between atoms: N_21  and  C_22
REMARK   13  A    between atoms: C_22  and  C_23
REMARK                            x       y       z     vdW  Elec       q    Type
REMARK                         _______ _______ _______ _____ _____    ______ ____
ROOT
ATOM      1  C   UNL     1       6.169   6.788  16.920  0.00  0.00    +0.000 A 
ATOM      2  C   UNL     1       6.238   5.557  16.272  0.00  0.00    +0.000 A 
ATOM      3  C   UNL     1       5.256   4.577  16.479  0.00  0.00    +0.000 A 
ATOM      4  C   UNL     1       4.184   4.826  17.358  0.00  0.00    +0.000 A 
ATOM      5  C   UNL     1       3.033   4.071  17.751  0.00  0.00    +0.000 A 
ATOM      6  C   UNL     1       2.336   4.840  18.674  0.00  0.00    +0.000 A 
ATOM      7  C   UNL     1       1.059   4.524  19.377  0.00  0.00    +0.000 C 
ATOM      8  N   UNL     1       3.066   5.993  18.899  0.00  0.00    +0.000 N 
ATOM      9  C   UNL     1       4.158   6.042  18.044  0.00  0.00    +0.000 A 
ATOM     10  C   UNL     1       5.131   7.040  17.828  0.00  0.00    +0.000 A 
ENDROOT
BRANCH   1  11
ATOM     11  O   UNL     1       7.057   7.824  16.738  0.00  0.00    +0.000 OA
BRANCH  11  12
ATOM     12  C   UNL     1       7.969   8.062  17.812  0.00  0.00    +0.000 C 
BRANCH  12  13
ATOM     13  C   UNL     1       8.257   9.555  17.921  0.00  0.00    +0.000 C 
BRANCH  13  14
ATOM     14  C   UNL     1       9.135   9.851  19.135  0.00  0.00    +0.000 C 
BRANCH  14  15
ATOM     15  C   UNL     1       9.643  11.270  19.118  0.00  0.00    +0.000 C 
ATOM     16  O   UNL     1       9.508  12.078  20.025  0.00  0.00    +0.000 OA
BRANCH  15  17
ATOM     17  O   UNL     1      10.192  11.536  17.899  0.00  0.00    +0.000 OA
BRANCH  17  19
ATOM     18  C   UNL     1      11.268  13.296  16.699  0.00  0.00    +0.000 C 
ATOM     19  C   UNL     1      11.331  12.407  17.929  0.00  0.00    +0.000 C 
ENDBRANCH  17  19
ENDBRANCH  15  17
ENDBRANCH  14  15
ENDBRANCH  13  14
ENDBRANCH  12  13
ENDBRANCH  11  12
ENDBRANCH   1  11
BRANCH   5  20
ATOM     20  C   UNL     1       2.675   2.684  17.294  0.00  0.00    +0.000 C 
BRANCH  20  21
ATOM     21  C   UNL     1       2.822   1.560  18.312  0.00  0.00    +0.000 C 
ATOM     22  N   UNL     1       1.767   1.243  19.105  0.00  0.00    +0.000 N 
ATOM     23  O   UNL     1       3.869   0.923  18.415  0.00  0.00    +0.000 OA
ATOM     24  H   UNL     1       0.936   1.818  19.162  0.00  0.00    +0.000 HD
ATOM     25  H   UNL     1       1.906   0.524  19.802  0.00  0.00    +0.000 HD
ENDBRANCH  20  21
ENDBRANCH   5  20
BRANCH   8  26
ATOM     26  C   UNL     1       2.798   6.977  19.952  0.00  0.00    +0.000 C 
BRANCH  26  27
ATOM     27  C   UNL     1       1.869   8.100  19.553  0.00  0.00    +0.000 A 
ATOM     28  C   UNL     1       1.745   8.571  18.238  0.00  0.00    +0.000 A 
ATOM     29  C   UNL     1       0.941   9.672  17.946  0.00  0.00    +0.000 A 
ATOM     30  C   UNL     1       0.230  10.308  18.960  0.00  0.00    +0.000 A 
ATOM     31  C   UNL     1       0.301   9.825  20.264  0.00  0.00    +0.000 A 
ATOM     32  C   UNL     1       1.110   8.726  20.558  0.00  0.00    +0.000 A 
ENDBRANCH  26  27
ENDBRANCH   8  26
TORSDOF 11
ENDMDL
MODEL 8
REMARK VINA RESULT:      -7.3      1.100      1.566
REMARK  Name = 
REMARK  13 active torsions:
REMARK  status: ('A' for Active; 'I' for Inactive)
REMARK    1  A    between atoms: C_1  and  C_2
REMARK    2  A    between atoms: C_2  and  O_3
REMARK    3  A    between atoms: O_3  and  C_4
REMARK    4  A    between atoms: C_4  and  C_6
REMARK    5  A    between atoms: C_6  and  C_7
REMARK    6  A    between atoms: C_7  and  C_8
REMARK    7  A    between atoms: C_8  and  O_9
REMARK    8  A    between atoms: O_9  and  C_10
REMARK    9  A    between atoms: C_14  and  C_15
REMARK   10  A    between atoms: C_15  and  C_16
REMARK   11  A    between atoms: C_19  and  C_20
REMARK   12  A    between atoms: N_21  and  C_22
REMARK   13  A    between atoms: C_22  and  C_23
REMARK                            x       y       z     vdW  Elec       q    Type
REMARK                         _______ _______ _______ _____ _____    ______ ____
ROOT
ATOM      1  C   UNL     1       7.100   7.004  17.748  0.00  0.00    +0.000 A 
ATOM      2  C   UNL     1       7.506   5.989  18.611  0.00  0.00    +0.000 A 
ATOM      3  C   UNL     1       6.579   5.083  19.147  0.00  0.00    +0.000 A 
ATOM      4  C   UNL     1       5.213   5.195  18.821  0.00  0.00    +0.000 A 
ATOM      5  C   UNL     1       4.051   4.432  19.161  0.00  0.00    +0.000 A 
ATOM      6  C   UNL     1       2.966   5.045  18.548  0.00  0.00    +0.000 A 
ATOM      7  C   UNL     1       1.531   4.640  18.569  0.00  0.00    +0.000 C 
ATOM      8  N   UNL     1       3.428   6.185  17.914  0.00  0.00    +0.000 N 
ATOM      9  C   UNL     1       4.812   6.251  18.000  0.00  0.00    +0.000 A 
ATOM     10  C   UNL     1       5.740   7.156  17.442  0.00  0.00    +0.000 A 
ENDROOT
BRANCH   1  11
ATOM     11  O   UNL     1       7.944   7.903  17.137  0.00  0.00    +0.000 OA
BRANCH  11  12
ATOM     12  C   UNL     1       7.946   9.226  17.676  0.00  0.00    +0.000 C 
BRANCH  12  13
ATOM     13  C   UNL     1       8.948   9.314  18.822  0.00  0.00    +0.000 C 
BRANCH  13  14
ATOM     14  C   UNL     1       9.145  10.764  19.260  0.00  0.00    +0.000 C 
BRANCH  14  15
ATOM     15  C   UNL     1       9.506  11.650  18.096  0.00  0.00    +0.000 C 
ATOM     16  O   UNL     1       8.765  12.473  17.579  0.00  0.00    +0.000 OA
BRANCH  15  17
ATOM     17  O   UNL     1      10.753  11.323  17.653  0.00  0.00    +0.000 OA
BRANCH  17  19
ATOM     18  C   UNL     1      12.333  11.818  19.371  0.00  0.00    +0.000 C 
ATOM     19  C   UNL     1      11.784  12.248  18.023  0.00  0.00    +0.000 C 
ENDBRANCH  17  19
ENDBRANCH  15  17
ENDBRANCH  14  15
ENDBRANCH  13  14
ENDBRANCH  12  13
ENDBRANCH  11  12
ENDBRANCH   1  11
BRANCH   5  20
ATOM     20  C   UNL     1       4.004   3.228  20.060  0.00  0.00    +0.000 C 
BRANCH  20  21
ATOM     21  C   UNL     1       4.219   1.867  19.407  0.00  0.00    +0.000 C 
ATOM     22  N   UNL     1       5.143   1.021  19.930  0.00  0.00    +0.000 N 
ATOM     23  O   UNL     1       3.559   1.515  18.431  0.00  0.00    +0.000 OA
ATOM     24  H   UNL     1       5.807   1.310  20.638  0.00  0.00    +0.000 HD
ATOM     25  H   UNL     1       5.297   0.145  19.451  0.00  0.00    +0.000 HD
ENDBRANCH  20  21
ENDBRANCH   5  20
BRANCH   8  26
ATOM     26  C   UNL     1       2.587   7.230  17.324  0.00  0.00    +0.000 C 
BRANCH  26  27
ATOM     27  C   UNL     1       1.934   8.160  18.321  0.00  0.00    +0.000 A 
ATOM     28  C   UNL     1       1.377   9.399  17.973  0.00  0.00    +0.000 A 
ATOM     29  C   UNL     1       0.871  10.255  18.951  0.00  0.00    +0.000 A 
ATOM     30  C   UNL     1       0.896   9.878  20.291  0.00  0.00    +0.000 A 
ATOM     31  C   UNL     1       1.399   8.632  20.651  0.00  0.00    +0.000 A 
ATOM     32  C   UNL     1       1.910   7.775  19.673  0.00  0.00    +0.000 A 
ENDBRANCH  26  27
ENDBRANCH   8  26
TORSDOF 11
ENDMDL
MODEL 9
REMARK VINA RESULT:      -7.3      1.537      1.980
REMARK  Name = 
REMARK  13 active torsions:
REMARK  status: ('A' for Active; 'I' for Inactive)
REMARK    1  A    between atoms: C_1  and  C_2
REMARK    2  A    between atoms: C_2  and  O_3
REMARK    3  A    between atoms: O_3  and  C_4
REMARK    4  A    between atoms: C_4  and  C_6
REMARK    5  A    between atoms: C_6  and  C_7
REMARK    6  A    between atoms: C_7  and  C_8
REMARK    7  A    between atoms: C_8  and  O_9
REMARK    8  A    between atoms: O_9  and  C_10
REMARK    9  A    between atoms: C_14  and  C_15
REMARK   10  A    between atoms: C_15  and  C_16
REMARK   11  A    between atoms: C_19  and  C_20
REMARK   12  A    between atoms: N_21  and  C_22
REMARK   13  A    between atoms: C_22  and  C_23
REMARK                            x       y       z     vdW  Elec       q    Type
REMARK                         _______ _______ _______ _____ _____    ______ ____
ROOT
ATOM      1  C   UNL     1       7.473   6.846  18.227  0.00  0.00    +0.000 A 
ATOM      2  C   UNL     1       7.772   5.601  18.775  0.00  0.00    +0.000 A 
ATOM      3  C   UNL     1       6.793   4.603  18.875  0.00  0.00    +0.000 A 
ATOM      4  C   UNL     1       5.481   4.852  18.424  0.00  0.00    +0.000 A 
ATOM      5  C   UNL     1       4.293   4.057  18.354  0.00  0.00    +0.000 A 
ATOM      6  C   UNL     1       3.293   4.862  17.827  0.00  0.00    +0.000 A 
ATOM      7  C   UNL     1       1.873   4.515  17.532  0.00  0.00    +0.000 C 
ATOM      8  N   UNL     1       3.822   6.128  17.646  0.00  0.00    +0.000 N 
ATOM      9  C   UNL     1       5.181   6.122  17.929  0.00  0.00    +0.000 A 
ATOM     10  C   UNL     1       6.164   7.127  17.808  0.00  0.00    +0.000 A 
ENDROOT
BRANCH   1  11
ATOM     11  O   UNL     1       8.381   7.864  18.042  0.00  0.00    +0.000 OA
BRANCH  11  12
ATOM     12  C   UNL     1       7.829   9.149  17.748  0.00  0.00    +0.000 C 
BRANCH  12  13
ATOM     13  C   UNL     1       8.883  10.226  17.976  0.00  0.00    +0.000 C 
BRANCH  13  14
ATOM     14  C   UNL     1       9.309  10.265  19.443  0.00  0.00    +0.000 C 
BRANCH  14  15
ATOM     15  C   UNL     1       9.479  11.681  19.932  0.00  0.00    +0.000 C 
ATOM     16  O   UNL     1       9.344  12.685  19.250  0.00  0.00    +0.000 OA
BRANCH  15  17
ATOM     17  O   UNL     1       9.900  11.659  21.229  0.00  0.00    +0.000 OA
BRANCH  17  19
ATOM     18  C   UNL     1       8.124  11.738  22.821  0.00  0.00    +0.000 C 
ATOM     19  C   UNL     1       9.191  12.546  22.105  0.00  0.00    +0.000 C 
ENDBRANCH  17  19
ENDBRANCH  15  17
ENDBRANCH  14  15
ENDBRANCH  13  14
ENDBRANCH  12  13
ENDBRANCH  11  12
ENDBRANCH   1  11
BRANCH   5  20
ATOM     20  C   UNL     1       4.141   2.635  18.818  0.00  0.00    +0.000 C 
BRANCH  20  21
ATOM     21  C   UNL     1       4.055   2.401  20.322  0.00  0.00    +0.000 C 
ATOM     22  N   UNL     1       2.920   2.747  20.981  0.00  0.00    +0.000 N 
ATOM     23  O   UNL     1       4.984   1.890  20.944  0.00  0.00    +0.000 OA
ATOM     24  H   UNL     1       2.186   3.296  20.551  0.00  0.00    +0.000 HD
ATOM     25  H   UNL     1       2.907   2.623  21.984  0.00  0.00    +0.000 HD
ENDBRANCH  20  21
ENDBRANCH   5  20
BRANCH   8  26
ATOM     26  C   UNL     1       3.055   7.330  17.307  0.00  0.00    +0.000 C 
BRANCH  26  27
ATOM     27  C   UNL     1       2.269   7.927  18.451  0.00  0.00    +0.000 A 
ATOM     28  C   UNL     1       1.548   9.127  18.352  0.00  0.00    +0.000 A 
ATOM     29  C   UNL     1       0.919   9.676  19.469  0.00  0.00    +0.000 A 
ATOM     30  C   UNL     1       0.980   9.026  20.698  0.00  0.00    +0.000 A 
ATOM     31  C   UNL     1       1.648   7.809  20.805  0.00  0.00    +0.000 A 
ATOM     32  C   UNL     1       2.283   7.260  19.689  0.00  0.00    +0.000 A 
ENDBRANCH  26  27
ENDBRANCH   8  26
TORSDOF 11
ENDMDL
