MODEL 1
REMARK VINA RESULT:      -8.1      0.000      0.000
REMARK  Name = 
REMARK  3 active torsions:
REMARK  status: ('A' for Active; 'I' for Inactive)
REMARK    1  A    between atoms: C_4  and  C_5
REMARK    2  A    between atoms: C_5  and  N_6
REMARK    3  A    between atoms: C_10  and  C_11
REMARK                            x       y       z     vdW  Elec       q    Type
REMARK                         _______ _______ _______ _____ _____    ______ ____
ROOT
ATOM      1  N   UNL     1       6.774   4.263  16.839  0.00  0.00    +0.000 N 
ATOM      2  C   UNL     1       5.811   4.430  17.759  0.00  0.00    +0.000 A 
ATOM      3  N   UNL     1       5.835   4.066  19.021  0.00  0.00    +0.000 NA
ATOM      4  N   UNL     1       4.601   4.364  19.545  0.00  0.00    +0.000 NA
ATOM      5  C   UNL     1       3.896   4.876  18.558  0.00  0.00    +0.000 A 
ATOM      6  O   UNL     1       4.611   4.977  17.390  0.00  0.00    +0.000 OA
ATOM      7  H   UNL     1       7.648   3.944  17.251  0.00  0.00    +0.000 HD
ENDROOT
BRANCH   5   8
ATOM      8  C   UNL     1       2.439   5.205  18.570  0.00  0.00    +0.000 C 
ATOM      9  C   UNL     1       1.538   4.161  17.897  0.00  0.00    +0.000 C 
ATOM     10  C   UNL     1       1.229   2.945  18.770  0.00  0.00    +0.000 C 
ATOM     11  C   UNL     1       0.749   3.344  20.164  0.00  0.00    +0.000 C 
ATOM     12  C   UNL     1       1.721   4.300  20.846  0.00  0.00    +0.000 C 
ATOM     13  C   UNL     1       1.968   5.542  19.992  0.00  0.00    +0.000 C 
ENDBRANCH   5   8
BRANCH   1  14
ATOM     14  C   UNL     1       7.011   5.284  15.834  0.00  0.00    +0.000 C 
BRANCH  14  18
ATOM     15  C   UNL     1       6.383   3.714  12.512  0.00  0.00    +0.000 A 
ATOM     16  C   UNL     1       7.362   4.661  12.322  0.00  0.00    +0.000 A 
ATOM     17  O   UNL     1       7.638   5.296  13.491  0.00  0.00    +0.000 OA
ATOM     18  C   UNL     1       6.827   4.752  14.448  0.00  0.00    +0.000 A 
ATOM     19  C   UNL     1       6.036   3.772  13.886  0.00  0.00    +0.000 A 
ENDBRANCH  14  18
ENDBRANCH   1  14
TORSDOF 3
ENDMDL
MODEL 2
REMARK VINA RESULT:      -7.8      1.704      2.373
REMARK  Name = 
REMARK  3 active torsions:
REMARK  status: ('A' for Active; 'I' for Inactive)
REMARK    1  A    between atoms: C_4  and  C_5
REMARK    2  A    between atoms: C_5  and  N_6
REMARK    3  A    between atoms: C_10  and  C_11
REMARK                            x       y       z     vdW  Elec       q    Type
REMARK                         _______ _______ _______ _____ _____    ______ ____
ROOT
ATOM      1  N   UNL     1       6.993   5.268  18.709  0.00  0.00    +0.000 N 
ATOM      2  C   UNL     1       5.737   4.981  19.084  0.00  0.00    +0.000 A 
ATOM      3  N   UNL     1       4.789   5.823  19.426  0.00  0.00    +0.000 NA
ATOM      4  N   UNL     1       3.707   5.070  19.813  0.00  0.00    +0.000 NA
ATOM      5  C   UNL     1       4.076   3.812  19.700  0.00  0.00    +0.000 A 
ATOM      6  O   UNL     1       5.352   3.673  19.212  0.00  0.00    +0.000 OA
ATOM      7  H   UNL     1       7.129   6.264  18.553  0.00  0.00    +0.000 HD
ENDROOT
BRANCH   5   8
ATOM      8  C   UNL     1       3.318   2.607  20.157  0.00  0.00    +0.000 C 
ATOM      9  C   UNL     1       2.045   2.914  20.957  0.00  0.00    +0.000 C 
ATOM     10  C   UNL     1       0.842   3.295  20.096  0.00  0.00    +0.000 C 
ATOM     11  C   UNL     1       0.611   2.305  18.958  0.00  0.00    +0.000 C 
ATOM     12  C   UNL     1       1.867   2.103  18.118  0.00  0.00    +0.000 C 
ATOM     13  C   UNL     1       3.045   1.658  18.982  0.00  0.00    +0.000 C 
ENDBRANCH   5   8
BRANCH   1  14
ATOM     14  C   UNL     1       7.646   4.483  17.677  0.00  0.00    +0.000 C 
BRANCH  14  18
ATOM     15  C   UNL     1       5.664   4.695  14.527  0.00  0.00    +0.000 A 
ATOM     16  C   UNL     1       6.978   4.905  14.181  0.00  0.00    +0.000 A 
ATOM     17  O   UNL     1       7.769   4.861  15.284  0.00  0.00    +0.000 OA
ATOM     18  C   UNL     1       6.957   4.619  16.357  0.00  0.00    +0.000 A 
ATOM     19  C   UNL     1       5.648   4.510  15.934  0.00  0.00    +0.000 A 
ENDBRANCH  14  18
ENDBRANCH   1  14
TORSDOF 3
ENDMDL
MODEL 3
REMARK VINA RESULT:      -7.7      0.812      1.119
REMARK  Name = 
REMARK  3 active torsions:
REMARK  status: ('A' for Active; 'I' for Inactive)
REMARK    1  A    between atoms: C_4  and  C_5
REMARK    2  A    between atoms: C_5  and  N_6
REMARK    3  A    between atoms: C_10  and  C_11
REMARK                            x       y       z     vdW  Elec       q    Type
REMARK                         _______ _______ _______ _____ _____    ______ ____
ROOT
ATOM      1  N   UNL     1       7.210   4.686  16.736  0.00  0.00    +0.000 N 
ATOM      2  C   UNL     1       6.228   4.428  17.614  0.00  0.00    +0.000 A 
ATOM      3  N   UNL     1       6.341   4.219  18.906  0.00  0.00    +0.000 NA
ATOM      4  N   UNL     1       5.085   3.912  19.371  0.00  0.00    +0.000 NA
ATOM      5  C   UNL     1       4.289   3.935  18.323  0.00  0.00    +0.000 A 
ATOM      6  O   UNL     1       4.941   4.286  17.166  0.00  0.00    +0.000 OA
ATOM      7  H   UNL     1       8.098   4.869  17.197  0.00  0.00    +0.000 HD
ENDROOT
BRANCH   5   8
ATOM      8  C   UNL     1       2.858   3.507  18.270  0.00  0.00    +0.000 C 
ATOM      9  C   UNL     1       2.508   2.322  19.181  0.00  0.00    +0.000 C 
ATOM     10  C   UNL     1       2.300   2.699  20.646  0.00  0.00    +0.000 C 
ATOM     11  C   UNL     1       1.347   3.881  20.808  0.00  0.00    +0.000 C 
ATOM     12  C   UNL     1       1.783   5.079  19.971  0.00  0.00    +0.000 C 
ATOM     13  C   UNL     1       1.923   4.703  18.497  0.00  0.00    +0.000 C 
ENDBRANCH   5   8
BRANCH   1  14
ATOM     14  C   UNL     1       6.987   5.613  15.641  0.00  0.00    +0.000 C 
BRANCH  14  18
ATOM     15  C   UNL     1       6.456   3.602  12.547  0.00  0.00    +0.000 A 
ATOM     16  C   UNL     1       7.367   4.582  12.229  0.00  0.00    +0.000 A 
ATOM     17  O   UNL     1       7.603   5.374  13.307  0.00  0.00    +0.000 OA
ATOM     18  C   UNL     1       6.835   4.901  14.334  0.00  0.00    +0.000 A 
ATOM     19  C   UNL     1       6.110   3.807  13.908  0.00  0.00    +0.000 A 
ENDBRANCH  14  18
ENDBRANCH   1  14
TORSDOF 3
ENDMDL
MODEL 4
REMARK VINA RESULT:      -7.7      1.593      1.924
REMARK  Name = 
REMARK  3 active torsions:
REMARK  status: ('A' for Active; 'I' for Inactive)
REMARK    1  A    between atoms: C_4  and  C_5
REMARK    2  A    between atoms: C_5  and  N_6
REMARK    3  A    between atoms: C_10  and  C_11
REMARK                            x       y       z     vdW  Elec       q    Type
REMARK                         _______ _______ _______ _____ _____    ______ ____
ROOT
ATOM      1  N   UNL     1       6.242   5.820  17.920  0.00  0.00    +0.000 N 
ATOM      2  C   UNL     1       4.924   5.568  17.923  0.00  0.00    +0.000 A 
ATOM      3  N   UNL     1       3.943   6.426  17.760  0.00  0.00    +0.000 NA
ATOM      4  N   UNL     1       2.772   5.728  17.927  0.00  0.00    +0.000 NA
ATOM      5  C   UNL     1       3.118   4.488  18.201  0.00  0.00    +0.000 A 
ATOM      6  O   UNL     1       4.478   4.301  18.188  0.00  0.00    +0.000 OA
ATOM      7  H   UNL     1       6.451   6.767  17.613  0.00  0.00    +0.000 HD
ENDROOT
BRANCH   5   8
ATOM      8  C   UNL     1       2.217   3.376  18.630  0.00  0.00    +0.000 C 
ATOM      9  C   UNL     1       2.932   2.181  19.276  0.00  0.00    +0.000 C 
ATOM     10  C   UNL     1       3.304   2.393  20.743  0.00  0.00    +0.000 C 
ATOM     11  C   UNL     1       2.125   2.904  21.568  0.00  0.00    +0.000 C 
ATOM     12  C   UNL     1       1.503   4.154  20.955  0.00  0.00    +0.000 C 
ATOM     13  C   UNL     1       1.076   3.908  19.509  0.00  0.00    +0.000 C 
ENDBRANCH   5   8
BRANCH   1  14
ATOM     14  C   UNL     1       7.168   4.865  17.339  0.00  0.00    +0.000 C 
BRANCH  14  18
ATOM     15  C   UNL     1       6.302   4.005  13.816  0.00  0.00    +0.000 A 
ATOM     16  C   UNL     1       7.259   4.990  13.758  0.00  0.00    +0.000 A 
ATOM     17  O   UNL     1       7.619   5.374  15.010  0.00  0.00    +0.000 OA
ATOM     18  C   UNL     1       6.884   4.628  15.889  0.00  0.00    +0.000 A 
ATOM     19  C   UNL     1       6.057   3.770  15.194  0.00  0.00    +0.000 A 
ENDBRANCH  14  18
ENDBRANCH   1  14
TORSDOF 3
ENDMDL
MODEL 5
REMARK VINA RESULT:      -7.6      0.880      1.073
REMARK  Name = 
REMARK  3 active torsions:
REMARK  status: ('A' for Active; 'I' for Inactive)
REMARK    1  A    between atoms: C_4  and  C_5
REMARK    2  A    between atoms: C_5  and  N_6
REMARK    3  A    between atoms: C_10  and  C_11
REMARK                            x       y       z     vdW  Elec       q    Type
REMARK                         _______ _______ _______ _____ _____    ______ ____
ROOT
ATOM      1  N   UNL     1       6.689   4.139  16.376  0.00  0.00    +0.000 N 
ATOM      2  C   UNL     1       5.825   4.447  17.356  0.00  0.00    +0.000 A 
ATOM      3  N   UNL     1       5.966   4.238  18.645  0.00  0.00    +0.000 NA
ATOM      4  N   UNL     1       4.796   4.638  19.243  0.00  0.00    +0.000 NA
ATOM      5  C   UNL     1       4.008   5.048  18.272  0.00  0.00    +0.000 A 
ATOM      6  O   UNL     1       4.606   4.984  17.038  0.00  0.00    +0.000 OA
ATOM      7  H   UNL     1       7.592   3.844  16.739  0.00  0.00    +0.000 HD
ENDROOT
BRANCH   5   8
ATOM      8  C   UNL     1       2.565   5.424  18.382  0.00  0.00    +0.000 C 
ATOM      9  C   UNL     1       1.583   4.356  17.886  0.00  0.00    +0.000 C 
ATOM     10  C   UNL     1       1.324   3.230  18.886  0.00  0.00    +0.000 C 
ATOM     11  C   UNL     1       0.981   3.761  20.275  0.00  0.00    +0.000 C 
ATOM     12  C   UNL     1       2.033   4.740  20.784  0.00  0.00    +0.000 C 
ATOM     13  C   UNL     1       2.233   5.896  19.805  0.00  0.00    +0.000 C 
ENDBRANCH   5   8
BRANCH   1  14
ATOM     14  C   UNL     1       6.847   5.023  15.235  0.00  0.00    +0.000 C 
BRANCH  14  18
ATOM     15  C   UNL     1       6.243   3.416  11.926  0.00  0.00    +0.000 A 
ATOM     16  C   UNL     1       5.027   3.470  12.566  0.00  0.00    +0.000 A 
ATOM     17  O   UNL     1       5.165   4.031  13.795  0.00  0.00    +0.000 OA
ATOM     18  C   UNL     1       6.487   4.343  13.952  0.00  0.00    +0.000 A 
ATOM     19  C   UNL     1       7.188   3.979  12.821  0.00  0.00    +0.000 A 
ENDBRANCH  14  18
ENDBRANCH   1  14
TORSDOF 3
ENDMDL
MODEL 6
REMARK VINA RESULT:      -7.6      0.991      1.250
REMARK  Name = 
REMARK  3 active torsions:
REMARK  status: ('A' for Active; 'I' for Inactive)
REMARK    1  A    between atoms: C_4  and  C_5
REMARK    2  A    between atoms: C_5  and  N_6
REMARK    3  A    between atoms: C_10  and  C_11
REMARK                            x       y       z     vdW  Elec       q    Type
REMARK                         _______ _______ _______ _____ _____    ______ ____
ROOT
ATOM      1  N   UNL     1       7.285   4.591  16.474  0.00  0.00    +0.000 N 
ATOM      2  C   UNL     1       6.605   4.806  17.610  0.00  0.00    +0.000 A 
ATOM      3  N   UNL     1       7.028   4.641  18.842  0.00  0.00    +0.000 NA
ATOM      4  N   UNL     1       5.961   4.900  19.668  0.00  0.00    +0.000 NA
ATOM      5  C   UNL     1       4.947   5.188  18.880  0.00  0.00    +0.000 A 
ATOM      6  O   UNL     1       5.287   5.176  17.550  0.00  0.00    +0.000 OA
ATOM      7  H   UNL     1       8.274   4.421  16.644  0.00  0.00    +0.000 HD
ENDROOT
BRANCH   5   8
ATOM      8  C   UNL     1       3.521   5.378  19.282  0.00  0.00    +0.000 C 
ATOM      9  C   UNL     1       2.532   5.491  18.114  0.00  0.00    +0.000 C 
ATOM     10  C   UNL     1       2.137   4.151  17.496  0.00  0.00    +0.000 C 
ATOM     11  C   UNL     1       1.705   3.136  18.552  0.00  0.00    +0.000 C 
ATOM     12  C   UNL     1       2.757   2.969  19.643  0.00  0.00    +0.000 C 
ATOM     13  C   UNL     1       3.093   4.308  20.296  0.00  0.00    +0.000 C 
ENDBRANCH   5   8
BRANCH   1  14
ATOM     14  C   UNL     1       7.094   5.465  15.330  0.00  0.00    +0.000 C 
BRANCH  14  18
ATOM     15  C   UNL     1       5.905   3.394  12.468  0.00  0.00    +0.000 A 
ATOM     16  C   UNL     1       7.048   4.031  12.046  0.00  0.00    +0.000 A 
ATOM     17  O   UNL     1       7.537   4.826  13.032  0.00  0.00    +0.000 OA
ATOM     18  C   UNL     1       6.700   4.700  14.106  0.00  0.00    +0.000 A 
ATOM     19  C   UNL     1       5.679   3.825  13.801  0.00  0.00    +0.000 A 
ENDBRANCH  14  18
ENDBRANCH   1  14
TORSDOF 3
ENDMDL
MODEL 7
REMARK VINA RESULT:      -7.6      1.107      1.716
REMARK  Name = 
REMARK  3 active torsions:
REMARK  status: ('A' for Active; 'I' for Inactive)
REMARK    1  A    between atoms: C_4  and  C_5
REMARK    2  A    between atoms: C_5  and  N_6
REMARK    3  A    between atoms: C_10  and  C_11
REMARK                            x       y       z     vdW  Elec       q    Type
REMARK                         _______ _______ _______ _____ _____    ______ ____
ROOT
ATOM      1  N   UNL     1       6.693   5.155  16.874  0.00  0.00    +0.000 N 
ATOM      2  C   UNL     1       6.051   4.687  17.956  0.00  0.00    +0.000 A 
ATOM      3  N   UNL     1       6.426   4.775  19.211  0.00  0.00    +0.000 NA
ATOM      4  N   UNL     1       5.502   4.081  19.952  0.00  0.00    +0.000 NA
ATOM      5  C   UNL     1       4.631   3.595  19.094  0.00  0.00    +0.000 A 
ATOM      6  O   UNL     1       4.898   3.965  17.798  0.00  0.00    +0.000 OA
ATOM      7  H   UNL     1       7.474   5.757  17.121  0.00  0.00    +0.000 HD
ENDROOT
BRANCH   5   8
ATOM      8  C   UNL     1       3.527   2.629  19.380  0.00  0.00    +0.000 C 
ATOM      9  C   UNL     1       3.023   2.639  20.829  0.00  0.00    +0.000 C 
ATOM     10  C   UNL     1       2.054   3.777  21.146  0.00  0.00    +0.000 C 
ATOM     11  C   UNL     1       0.929   3.880  20.119  0.00  0.00    +0.000 C 
ATOM     12  C   UNL     1       1.468   3.975  18.696  0.00  0.00    +0.000 C 
ATOM     13  C   UNL     1       2.382   2.795  18.370  0.00  0.00    +0.000 C 
ENDBRANCH   5   8
BRANCH   1  14
ATOM     14  C   UNL     1       5.942   5.703  15.758  0.00  0.00    +0.000 C 
BRANCH  14  18
ATOM     15  C   UNL     1       6.459   3.671  12.676  0.00  0.00    +0.000 A 
ATOM     16  C   UNL     1       7.471   4.601  12.710  0.00  0.00    +0.000 A 
ATOM     17  O   UNL     1       7.343   5.398  13.802  0.00  0.00    +0.000 OA
ATOM     18  C   UNL     1       6.235   4.979  14.482  0.00  0.00    +0.000 A 
ATOM     19  C   UNL     1       5.658   3.914  13.822  0.00  0.00    +0.000 A 
ENDBRANCH  14  18
ENDBRANCH   1  14
TORSDOF 3
ENDMDL
MODEL 8
REMARK VINA RESULT:      -7.5      1.698      2.086
REMARK  Name = 
REMARK  3 active torsions:
REMARK  status: ('A' for Active; 'I' for Inactive)
REMARK    1  A    between atoms: C_4  and  C_5
REMARK    2  A    between atoms: C_5  and  N_6
REMARK    3  A    between atoms: C_10  and  C_11
REMARK                            x       y       z     vdW  Elec       q    Type
REMARK                         _______ _______ _______ _____ _____    ______ ____
ROOT
ATOM      1  N   UNL     1       6.084   6.721  17.366  0.00  0.00    +0.000 N 
ATOM      2  C   UNL     1       4.890   6.330  17.837  0.00  0.00    +0.000 A 
ATOM      3  N   UNL     1       3.717   6.871  17.601  0.00  0.00    +0.000 NA
ATOM      4  N   UNL     1       2.802   6.187  18.363  0.00  0.00    +0.000 NA
ATOM      5  C   UNL     1       3.483   5.281  19.031  0.00  0.00    +0.000 A 
ATOM      6  O   UNL     1       4.822   5.291  18.727  0.00  0.00    +0.000 OA
ATOM      7  H   UNL     1       5.997   7.429  16.641  0.00  0.00    +0.000 HD
ENDROOT
BRANCH   5   8
ATOM      8  C   UNL     1       2.973   4.395  20.121  0.00  0.00    +0.000 C 
ATOM      9  C   UNL     1       1.445   4.278  20.193  0.00  0.00    +0.000 C 
ATOM     10  C   UNL     1       0.843   3.307  19.177  0.00  0.00    +0.000 C 
ATOM     11  C   UNL     1       1.550   1.954  19.185  0.00  0.00    +0.000 C 
ATOM     12  C   UNL     1       3.057   2.100  19.006  0.00  0.00    +0.000 C 
ATOM     13  C   UNL     1       3.654   3.020  20.069  0.00  0.00    +0.000 C 
ENDBRANCH   5   8
BRANCH   1  14
ATOM     14  C   UNL     1       7.091   5.736  17.017  0.00  0.00    +0.000 C 
BRANCH  14  18
ATOM     15  C   UNL     1       6.185   3.875  13.916  0.00  0.00    +0.000 A 
ATOM     16  C   UNL     1       7.174   4.765  13.567  0.00  0.00    +0.000 A 
ATOM     17  O   UNL     1       7.550   5.499  14.646  0.00  0.00    +0.000 OA
ATOM     18  C   UNL     1       6.795   5.079  15.706  0.00  0.00    +0.000 A 
ATOM     19  C   UNL     1       5.938   4.077  15.299  0.00  0.00    +0.000 A 
ENDBRANCH  14  18
ENDBRANCH   1  14
TORSDOF 3
ENDMDL
MODEL 9
REMARK VINA RESULT:      -7.5      1.481      1.942
REMARK  Name = 
REMARK  3 active torsions:
REMARK  status: ('A' for Active; 'I' for Inactive)
REMARK    1  A    between atoms: C_4  and  C_5
REMARK    2  A    between atoms: C_5  and  N_6
REMARK    3  A    between atoms: C_10  and  C_11
REMARK                            x       y       z     vdW  Elec       q    Type
REMARK                         _______ _______ _______ _____ _____    ______ ____
ROOT
ATOM      1  N   UNL     1       7.435   4.813  16.333  0.00  0.00    +0.000 N 
ATOM      2  C   UNL     1       6.807   4.789  17.518  0.00  0.00    +0.000 A 
ATOM      3  N   UNL     1       7.349   4.754  18.714  0.00  0.00    +0.000 NA
ATOM      4  N   UNL     1       6.318   4.652  19.616  0.00  0.00    +0.000 NA
ATOM      5  C   UNL     1       5.211   4.612  18.906  0.00  0.00    +0.000 A 
ATOM      6  O   UNL     1       5.439   4.723  17.557  0.00  0.00    +0.000 OA
ATOM      7  H   UNL     1       8.437   4.964  16.432  0.00  0.00    +0.000 HD
ENDROOT
BRANCH   5   8
ATOM      8  C   UNL     1       3.830   4.336  19.407  0.00  0.00    +0.000 C 
ATOM      9  C   UNL     1       2.706   4.691  18.425  0.00  0.00    +0.000 C 
ATOM     10  C   UNL     1       2.475   3.647  17.333  0.00  0.00    +0.000 C 
ATOM     11  C   UNL     1       2.350   2.236  17.904  0.00  0.00    +0.000 C 
ATOM     12  C   UNL     1       3.536   1.876  18.791  0.00  0.00    +0.000 C 
ATOM     13  C   UNL     1       3.714   2.893  19.917  0.00  0.00    +0.000 C 
ENDBRANCH   5   8
BRANCH   1  14
ATOM     14  C   UNL     1       6.896   5.595  15.235  0.00  0.00    +0.000 C 
BRANCH  14  18
ATOM     15  C   UNL     1       7.075   3.887  11.925  0.00  0.00    +0.000 A 
ATOM     16  C   UNL     1       6.020   3.324  12.603  0.00  0.00    +0.000 A 
ATOM     17  O   UNL     1       5.897   3.883  13.835  0.00  0.00    +0.000 OA
ATOM     18  C   UNL     1       6.886   4.820  13.955  0.00  0.00    +0.000 A 
ATOM     19  C   UNL     1       7.637   4.855  12.798  0.00  0.00    +0.000 A 
ENDBRANCH  14  18
ENDBRANCH   1  14
TORSDOF 3
ENDMDL
