MODEL 1
REMARK VINA RESULT:      -7.3      0.000      0.000
REMARK  Name = 
REMARK  5 active torsions:
REMARK  status: ('A' for Active; 'I' for Inactive)
REMARK    1  A    between atoms: N_1  and  S_2
REMARK    2  A    between atoms: S_2  and  C_5
REMARK    3  A    between atoms: N_7  and  C_8
REMARK    4  A    between atoms: C_8  and  C_9
REMARK    5  A    between atoms: C_9  and  C_11
REMARK                            x       y       z     vdW  Elec       q    Type
REMARK                         _______ _______ _______ _____ _____    ______ ____
ROOT
ATOM      1  C   UNL     1       5.543   5.261  17.605  0.00  0.00    +0.000 A 
ATOM      2  C   UNL     1       4.750   6.014  18.385  0.00  0.00    +0.000 A 
ATOM      3  N   UNL     1       3.369   5.836  18.512  0.00  0.00    +0.000 N 
ATOM      4  C   UNL     1       2.807   4.756  17.834  0.00  0.00    +0.000 A 
ATOM      5  C   UNL     1       3.480   3.933  17.021  0.00  0.00    +0.000 A 
ATOM      6  C   UNL     1       4.933   4.173  16.820  0.00  0.00    +0.000 A 
ATOM      7  O   UNL     1       5.564   3.473  16.034  0.00  0.00    +0.000 OA
ENDROOT
BRANCH   1   8
ATOM      8  S   UNL     1       7.215   5.604  17.489  0.00  0.00    +0.000 S 
ATOM      9  O   UNL     1       7.658   6.338  18.657  0.00  0.00    +0.000 OA
ATOM     10  O   UNL     1       7.509   6.117  16.169  0.00  0.00    +0.000 OA
BRANCH   8  11
ATOM     11  N   UNL     1       8.058   4.144  17.575  0.00  0.00    +0.000 NA
ATOM     12  H   UNL     1       7.456   3.383  17.258  0.00  0.00    +0.000 HD
ATOM     13  H   UNL     1       8.404   4.002  18.529  0.00  0.00    +0.000 HD
ENDBRANCH   8  11
ENDBRANCH   1   8
BRANCH   3  14
ATOM     14  C   UNL     1       2.557   6.559  19.524  0.00  0.00    +0.000 C 
BRANCH  14  15
ATOM     15  C   UNL     1       2.025   7.911  19.075  0.00  0.00    +0.000 C 
ATOM     16  O   UNL     1       2.199   8.335  17.935  0.00  0.00    +0.000 OA
BRANCH  15  17
ATOM     17  C   UNL     1       1.322   8.773  20.066  0.00  0.00    +0.000 A 
ATOM     18  C   UNL     1       1.322   8.379  21.414  0.00  0.00    +0.000 A 
ATOM     19  C   UNL     1       0.664   9.155  22.369  0.00  0.00    +0.000 A 
ATOM     20  C   UNL     1       0.023  10.325  21.977  0.00  0.00    +0.000 A 
ATOM     21  F   UNL     1      -0.608  11.072  22.892  0.00  0.00    +0.000 F 
ATOM     22  C   UNL     1       0.030  10.734  20.648  0.00  0.00    +0.000 A 
ATOM     23  C   UNL     1       0.678   9.956  19.686  0.00  0.00    +0.000 A 
ENDBRANCH  15  17
ENDBRANCH  14  15
ENDBRANCH   3  14
TORSDOF 5
ENDMDL
MODEL 2
REMARK VINA RESULT:      -7.1      2.513      3.688
REMARK  Name = 
REMARK  5 active torsions:
REMARK  status: ('A' for Active; 'I' for Inactive)
REMARK    1  A    between atoms: N_1  and  S_2
REMARK    2  A    between atoms: S_2  and  C_5
REMARK    3  A    between atoms: N_7  and  C_8
REMARK    4  A    between atoms: C_8  and  C_9
REMARK    5  A    between atoms: C_9  and  C_11
REMARK                            x       y       z     vdW  Elec       q    Type
REMARK                         _______ _______ _______ _____ _____    ______ ____
ROOT
ATOM      1  C   UNL     1       6.188   5.063  16.553  0.00  0.00    +0.000 A 
ATOM      2  C   UNL     1       5.379   4.226  17.224  0.00  0.00    +0.000 A 
ATOM      3  N   UNL     1       5.284   4.168  18.617  0.00  0.00    +0.000 N 
ATOM      4  C   UNL     1       6.029   5.098  19.340  0.00  0.00    +0.000 A 
ATOM      5  C   UNL     1       6.877   5.981  18.798  0.00  0.00    +0.000 A 
ATOM      6  C   UNL     1       7.042   5.987  17.321  0.00  0.00    +0.000 A 
ATOM      7  O   UNL     1       7.855   6.744  16.800  0.00  0.00    +0.000 OA
ENDROOT
BRANCH   1   8
ATOM      8  S   UNL     1       6.258   5.010  14.844  0.00  0.00    +0.000 S 
ATOM      9  O   UNL     1       5.472   6.086  14.277  0.00  0.00    +0.000 OA
ATOM     10  O   UNL     1       6.037   3.652  14.398  0.00  0.00    +0.000 OA
BRANCH   8  11
ATOM     11  N   UNL     1       7.840   5.360  14.371  0.00  0.00    +0.000 NA
ATOM     12  H   UNL     1       8.116   6.267  14.749  0.00  0.00    +0.000 HD
ATOM     13  H   UNL     1       7.910   5.320  13.349  0.00  0.00    +0.000 HD
ENDBRANCH   8  11
ENDBRANCH   1   8
BRANCH   3  14
ATOM     14  C   UNL     1       4.246   3.369  19.317  0.00  0.00    +0.000 C 
BRANCH  14  15
ATOM     15  C   UNL     1       2.813   3.817  19.069  0.00  0.00    +0.000 C 
ATOM     16  O   UNL     1       1.949   3.044  18.663  0.00  0.00    +0.000 OA
BRANCH  15  17
ATOM     17  C   UNL     1       2.464   5.252  19.265  0.00  0.00    +0.000 A 
ATOM     18  C   UNL     1       1.978   5.657  20.518  0.00  0.00    +0.000 A 
ATOM     19  C   UNL     1       1.628   6.990  20.736  0.00  0.00    +0.000 A 
ATOM     20  C   UNL     1       1.781   7.914  19.708  0.00  0.00    +0.000 A 
ATOM     21  F   UNL     1       1.448   9.194  19.914  0.00  0.00    +0.000 F 
ATOM     22  C   UNL     1       2.277   7.529  18.467  0.00  0.00    +0.000 A 
ATOM     23  C   UNL     1       2.618   6.193  18.241  0.00  0.00    +0.000 A 
ENDBRANCH  15  17
ENDBRANCH  14  15
ENDBRANCH   3  14
TORSDOF 5
ENDMDL
MODEL 3
REMARK VINA RESULT:      -7.0      4.754      7.732
REMARK  Name = 
REMARK  5 active torsions:
REMARK  status: ('A' for Active; 'I' for Inactive)
REMARK    1  A    between atoms: N_1  and  S_2
REMARK    2  A    between atoms: S_2  and  C_5
REMARK    3  A    between atoms: N_7  and  C_8
REMARK    4  A    between atoms: C_8  and  C_9
REMARK    5  A    between atoms: C_9  and  C_11
REMARK                            x       y       z     vdW  Elec       q    Type
REMARK                         _______ _______ _______ _____ _____    ______ ____
ROOT
ATOM      1  C   UNL     1       3.592   4.027  19.176  0.00  0.00    +0.000 A 
ATOM      2  C   UNL     1       4.775   4.397  18.657  0.00  0.00    +0.000 A 
ATOM      3  N   UNL     1       4.990   5.584  17.952  0.00  0.00    +0.000 N 
ATOM      4  C   UNL     1       3.914   6.464  17.853  0.00  0.00    +0.000 A 
ATOM      5  C   UNL     1       2.683   6.216  18.318  0.00  0.00    +0.000 A 
ATOM      6  C   UNL     1       2.432   4.917  18.995  0.00  0.00    +0.000 A 
ATOM      7  O   UNL     1       1.301   4.637  19.379  0.00  0.00    +0.000 OA
ENDROOT
BRANCH   1   8
ATOM      8  S   UNL     1       3.435   2.523  19.978  0.00  0.00    +0.000 S 
ATOM      9  O   UNL     1       2.683   1.595  19.160  0.00  0.00    +0.000 OA
ATOM     10  O   UNL     1       3.034   2.752  21.350  0.00  0.00    +0.000 OA
BRANCH   8  11
ATOM     11  N   UNL     1       4.967   1.826  20.094  0.00  0.00    +0.000 NA
ATOM     12  H   UNL     1       5.643   2.535  20.380  0.00  0.00    +0.000 HD
ATOM     13  H   UNL     1       5.212   1.385  19.202  0.00  0.00    +0.000 HD
ENDBRANCH   8  11
ENDBRANCH   1   8
BRANCH   3  14
ATOM     14  C   UNL     1       6.345   6.050  17.561  0.00  0.00    +0.000 C 
BRANCH  14  15
ATOM     15  C   UNL     1       7.211   5.004  16.873  0.00  0.00    +0.000 C 
ATOM     16  O   UNL     1       8.143   4.449  17.448  0.00  0.00    +0.000 OA
BRANCH  15  17
ATOM     17  C   UNL     1       6.955   4.690  15.440  0.00  0.00    +0.000 A 
ATOM     18  C   UNL     1       5.900   3.820  15.123  0.00  0.00    +0.000 A 
ATOM     19  C   UNL     1       5.639   3.493  13.791  0.00  0.00    +0.000 A 
ATOM     20  C   UNL     1       6.421   4.046  12.784  0.00  0.00    +0.000 A 
ATOM     21  F   UNL     1       6.172   3.735  11.506  0.00  0.00    +0.000 F 
ATOM     22  C   UNL     1       7.460   4.922  13.084  0.00  0.00    +0.000 A 
ATOM     23  C   UNL     1       7.732   5.244  14.415  0.00  0.00    +0.000 A 
ENDBRANCH  15  17
ENDBRANCH  14  15
ENDBRANCH   3  14
TORSDOF 5
ENDMDL
MODEL 4
REMARK VINA RESULT:      -7.0      4.708      7.712
REMARK  Name = 
REMARK  5 active torsions:
REMARK  status: ('A' for Active; 'I' for Inactive)
REMARK    1  A    between atoms: N_1  and  S_2
REMARK    2  A    between atoms: S_2  and  C_5
REMARK    3  A    between atoms: N_7  and  C_8
REMARK    4  A    between atoms: C_8  and  C_9
REMARK    5  A    between atoms: C_9  and  C_11
REMARK                            x       y       z     vdW  Elec       q    Type
REMARK                         _______ _______ _______ _____ _____    ______ ____
ROOT
ATOM      1  C   UNL     1       3.623   4.013  19.621  0.00  0.00    +0.000 A 
ATOM      2  C   UNL     1       4.837   4.308  19.128  0.00  0.00    +0.000 A 
ATOM      3  N   UNL     1       5.125   5.445  18.368  0.00  0.00    +0.000 N 
ATOM      4  C   UNL     1       4.090   6.359  18.182  0.00  0.00    +0.000 A 
ATOM      5  C   UNL     1       2.835   6.186  18.613  0.00  0.00    +0.000 A 
ATOM      6  C   UNL     1       2.507   4.937  19.349  0.00  0.00    +0.000 A 
ATOM      7  O   UNL     1       1.353   4.722  19.705  0.00  0.00    +0.000 OA
ENDROOT
BRANCH   1   8
ATOM      8  S   UNL     1       3.376   2.564  20.496  0.00  0.00    +0.000 S 
ATOM      9  O   UNL     1       4.644   2.032  20.952  0.00  0.00    +0.000 OA
ATOM     10  O   UNL     1       2.467   1.710  19.763  0.00  0.00    +0.000 OA
BRANCH   8  11
ATOM     11  N   UNL     1       2.550   2.942  21.918  0.00  0.00    +0.000 NA
ATOM     12  H   UNL     1       3.217   3.241  22.630  0.00  0.00    +0.000 HD
ATOM     13  H   UNL     1       1.991   2.135  22.216  0.00  0.00    +0.000 HD
ENDBRANCH   8  11
ENDBRANCH   1   8
BRANCH   3  14
ATOM     14  C   UNL     1       6.511   5.836  18.003  0.00  0.00    +0.000 C 
BRANCH  14  15
ATOM     15  C   UNL     1       7.292   4.786  17.227  0.00  0.00    +0.000 C 
ATOM     16  O   UNL     1       8.254   4.197  17.713  0.00  0.00    +0.000 OA
BRANCH  15  17
ATOM     17  C   UNL     1       6.914   4.509  15.813  0.00  0.00    +0.000 A 
ATOM     18  C   UNL     1       7.663   5.111  14.789  0.00  0.00    +0.000 A 
ATOM     19  C   UNL     1       7.330   4.885  13.453  0.00  0.00    +0.000 A 
ATOM     20  C   UNL     1       6.262   4.048  13.146  0.00  0.00    +0.000 A 
ATOM     21  F   UNL     1       5.942   3.828  11.865  0.00  0.00    +0.000 F 
ATOM     22  C   UNL     1       5.522   3.434  14.151  0.00  0.00    +0.000 A 
ATOM     23  C   UNL     1       5.845   3.665  15.490  0.00  0.00    +0.000 A 
ENDBRANCH  15  17
ENDBRANCH  14  15
ENDBRANCH   3  14
TORSDOF 5
ENDMDL
MODEL 5
REMARK VINA RESULT:      -7.0      0.834      1.350
REMARK  Name = 
REMARK  5 active torsions:
REMARK  status: ('A' for Active; 'I' for Inactive)
REMARK    1  A    between atoms: N_1  and  S_2
REMARK    2  A    between atoms: S_2  and  C_5
REMARK    3  A    between atoms: N_7  and  C_8
REMARK    4  A    between atoms: C_8  and  C_9
REMARK    5  A    between atoms: C_9  and  C_11
REMARK                            x       y       z     vdW  Elec       q    Type
REMARK                         _______ _______ _______ _____ _____    ______ ____
ROOT
ATOM      1  C   UNL     1       5.463   5.250  17.233  0.00  0.00    +0.000 A 
ATOM      2  C   UNL     1       4.752   6.029  18.066  0.00  0.00    +0.000 A 
ATOM      3  N   UNL     1       3.413   5.809  18.399  0.00  0.00    +0.000 N 
ATOM      4  C   UNL     1       2.813   4.662  17.884  0.00  0.00    +0.000 A 
ATOM      5  C   UNL     1       3.405   3.807  17.041  0.00  0.00    +0.000 A 
ATOM      6  C   UNL     1       4.803   4.085  16.619  0.00  0.00    +0.000 A 
ATOM      7  O   UNL     1       5.351   3.353  15.802  0.00  0.00    +0.000 OA
ENDROOT
BRANCH   1   8
ATOM      8  S   UNL     1       7.085   5.646  16.858  0.00  0.00    +0.000 S 
ATOM      9  O   UNL     1       7.988   4.696  17.474  0.00  0.00    +0.000 OA
ATOM     10  O   UNL     1       7.292   7.063  17.062  0.00  0.00    +0.000 OA
BRANCH   8  11
ATOM     11  N   UNL     1       7.313   5.418  15.202  0.00  0.00    +0.000 NA
ATOM     12  H   UNL     1       7.608   4.456  15.027  0.00  0.00    +0.000 HD
ATOM     13  H   UNL     1       7.985   6.106  14.849  0.00  0.00    +0.000 HD
ENDBRANCH   8  11
ENDBRANCH   1   8
BRANCH   3  14
ATOM     14  C   UNL     1       2.716   6.574  19.465  0.00  0.00    +0.000 C 
BRANCH  14  15
ATOM     15  C   UNL     1       2.082   7.881  19.009  0.00  0.00    +0.000 C 
ATOM     16  O   UNL     1       2.178   8.283  17.853  0.00  0.00    +0.000 OA
BRANCH  15  17
ATOM     17  C   UNL     1       1.377   8.726  20.013  0.00  0.00    +0.000 A 
ATOM     18  C   UNL     1       0.794   9.929  19.584  0.00  0.00    +0.000 A 
ATOM     19  C   UNL     1       0.136  10.752  20.498  0.00  0.00    +0.000 A 
ATOM     20  C   UNL     1       0.050  10.364  21.831  0.00  0.00    +0.000 A 
ATOM     21  F   UNL     1      -0.582  11.151  22.709  0.00  0.00    +0.000 F 
ATOM     22  C   UNL     1       0.609   9.167  22.265  0.00  0.00    +0.000 A 
ATOM     23  C   UNL     1       1.278   8.344  21.356  0.00  0.00    +0.000 A 
ENDBRANCH  15  17
ENDBRANCH  14  15
ENDBRANCH   3  14
TORSDOF 5
ENDMDL
MODEL 6
REMARK VINA RESULT:      -6.9      0.903      1.476
REMARK  Name = 
REMARK  5 active torsions:
REMARK  status: ('A' for Active; 'I' for Inactive)
REMARK    1  A    between atoms: N_1  and  S_2
REMARK    2  A    between atoms: S_2  and  C_5
REMARK    3  A    between atoms: N_7  and  C_8
REMARK    4  A    between atoms: C_8  and  C_9
REMARK    5  A    between atoms: C_9  and  C_11
REMARK                            x       y       z     vdW  Elec       q    Type
REMARK                         _______ _______ _______ _____ _____    ______ ____
ROOT
ATOM      1  C   UNL     1       5.497   5.442  17.510  0.00  0.00    +0.000 A 
ATOM      2  C   UNL     1       4.718   6.348  18.125  0.00  0.00    +0.000 A 
ATOM      3  N   UNL     1       3.332   6.232  18.262  0.00  0.00    +0.000 N 
ATOM      4  C   UNL     1       2.746   5.060  17.788  0.00  0.00    +0.000 A 
ATOM      5  C   UNL     1       3.404   4.084  17.151  0.00  0.00    +0.000 A 
ATOM      6  C   UNL     1       4.865   4.244  16.931  0.00  0.00    +0.000 A 
ATOM      7  O   UNL     1       5.484   3.394  16.299  0.00  0.00    +0.000 OA
ENDROOT
BRANCH   1   8
ATOM      8  S   UNL     1       7.180   5.714  17.358  0.00  0.00    +0.000 S 
ATOM      9  O   UNL     1       7.632   6.636  18.379  0.00  0.00    +0.000 OA
ATOM     10  O   UNL     1       7.501   5.972  15.971  0.00  0.00    +0.000 OA
BRANCH   8  11
ATOM     11  N   UNL     1       7.980   4.273  17.718  0.00  0.00    +0.000 NA
ATOM     12  H   UNL     1       7.308   3.586  18.063  0.00  0.00    +0.000 HD
ATOM     13  H   UNL     1       8.734   4.456  18.389  0.00  0.00    +0.000 HD
ENDBRANCH   8  11
ENDBRANCH   1   8
BRANCH   3  14
ATOM     14  C   UNL     1       2.531   7.151  19.110  0.00  0.00    +0.000 C 
BRANCH  14  15
ATOM     15  C   UNL     1       2.066   8.424  18.418  0.00  0.00    +0.000 C 
ATOM     16  O   UNL     1       2.524   8.782  17.336  0.00  0.00    +0.000 OA
BRANCH  15  17
ATOM     17  C   UNL     1       1.069   9.292  19.104  0.00  0.00    +0.000 A 
ATOM     18  C   UNL     1       0.170  10.030  18.318  0.00  0.00    +0.000 A 
ATOM     19  C   UNL     1      -0.770  10.865  18.925  0.00  0.00    +0.000 A 
ATOM     20  C   UNL     1      -0.817  10.945  20.312  0.00  0.00    +0.000 A 
ATOM     21  F   UNL     1      -1.719  11.743  20.898  0.00  0.00    +0.000 F 
ATOM     22  C   UNL     1       0.057  10.207  21.103  0.00  0.00    +0.000 A 
ATOM     23  C   UNL     1       1.007   9.380  20.500  0.00  0.00    +0.000 A 
ENDBRANCH  15  17
ENDBRANCH  14  15
ENDBRANCH   3  14
TORSDOF 5
ENDMDL
MODEL 7
REMARK VINA RESULT:      -6.9      2.747      3.932
REMARK  Name = 
REMARK  5 active torsions:
REMARK  status: ('A' for Active; 'I' for Inactive)
REMARK    1  A    between atoms: N_1  and  S_2
REMARK    2  A    between atoms: S_2  and  C_5
REMARK    3  A    between atoms: N_7  and  C_8
REMARK    4  A    between atoms: C_8  and  C_9
REMARK    5  A    between atoms: C_9  and  C_11
REMARK                            x       y       z     vdW  Elec       q    Type
REMARK                         _______ _______ _______ _____ _____    ______ ____
ROOT
ATOM      1  C   UNL     1       5.893   4.575  17.148  0.00  0.00    +0.000 A 
ATOM      2  C   UNL     1       4.782   3.875  16.861  0.00  0.00    +0.000 A 
ATOM      3  N   UNL     1       4.064   3.119  17.791  0.00  0.00    +0.000 N 
ATOM      4  C   UNL     1       4.500   3.165  19.114  0.00  0.00    +0.000 A 
ATOM      5  C   UNL     1       5.592   3.816  19.534  0.00  0.00    +0.000 A 
ATOM      6  C   UNL     1       6.404   4.552  18.529  0.00  0.00    +0.000 A 
ATOM      7  O   UNL     1       7.442   5.108  18.873  0.00  0.00    +0.000 OA
ENDROOT
BRANCH   1   8
ATOM      8  S   UNL     1       6.719   5.425  15.914  0.00  0.00    +0.000 S 
ATOM      9  O   UNL     1       5.774   5.970  14.962  0.00  0.00    +0.000 OA
ATOM     10  O   UNL     1       7.827   4.624  15.440  0.00  0.00    +0.000 OA
BRANCH   8  11
ATOM     11  N   UNL     1       7.442   6.784  16.605  0.00  0.00    +0.000 NA
ATOM     12  H   UNL     1       8.404   6.564  16.864  0.00  0.00    +0.000 HD
ATOM     13  H   UNL     1       6.882   7.103  17.402  0.00  0.00    +0.000 HD
ENDBRANCH   8  11
ENDBRANCH   1   8
BRANCH   3  14
ATOM     14  C   UNL     1       2.741   2.517  17.485  0.00  0.00    +0.000 C 
BRANCH  14  15
ATOM     15  C   UNL     1       1.578   3.075  18.293  0.00  0.00    +0.000 C 
ATOM     16  O   UNL     1       0.519   2.464  18.419  0.00  0.00    +0.000 OA
BRANCH  15  17
ATOM     17  C   UNL     1       1.708   4.429  18.899  0.00  0.00    +0.000 A 
ATOM     18  C   UNL     1       2.044   5.507  18.064  0.00  0.00    +0.000 A 
ATOM     19  C   UNL     1       2.187   6.788  18.598  0.00  0.00    +0.000 A 
ATOM     20  C   UNL     1       1.979   6.989  19.958  0.00  0.00    +0.000 A 
ATOM     21  F   UNL     1       2.114   8.217  20.473  0.00  0.00    +0.000 F 
ATOM     22  C   UNL     1       1.631   5.933  20.793  0.00  0.00    +0.000 A 
ATOM     23  C   UNL     1       1.497   4.647  20.266  0.00  0.00    +0.000 A 
ENDBRANCH  15  17
ENDBRANCH  14  15
ENDBRANCH   3  14
TORSDOF 5
ENDMDL
MODEL 8
REMARK VINA RESULT:      -6.9      3.565      4.683
REMARK  Name = 
REMARK  5 active torsions:
REMARK  status: ('A' for Active; 'I' for Inactive)
REMARK    1  A    between atoms: N_1  and  S_2
REMARK    2  A    between atoms: S_2  and  C_5
REMARK    3  A    between atoms: N_7  and  C_8
REMARK    4  A    between atoms: C_8  and  C_9
REMARK    5  A    between atoms: C_9  and  C_11
REMARK                            x       y       z     vdW  Elec       q    Type
REMARK                         _______ _______ _______ _____ _____    ______ ____
ROOT
ATOM      1  C   UNL     1       6.120   5.324  16.326  0.00  0.00    +0.000 A 
ATOM      2  C   UNL     1       4.997   5.994  16.633  0.00  0.00    +0.000 A 
ATOM      3  N   UNL     1       4.598   6.311  17.934  0.00  0.00    +0.000 N 
ATOM      4  C   UNL     1       5.471   5.966  18.964  0.00  0.00    +0.000 A 
ATOM      5  C   UNL     1       6.616   5.293  18.798  0.00  0.00    +0.000 A 
ATOM      6  C   UNL     1       7.000   4.882  17.422  0.00  0.00    +0.000 A 
ATOM      7  O   UNL     1       8.013   4.213  17.245  0.00  0.00    +0.000 OA
ENDROOT
BRANCH   1   8
ATOM      8  S   UNL     1       6.482   4.948  14.697  0.00  0.00    +0.000 S 
ATOM      9  O   UNL     1       7.826   5.378  14.369  0.00  0.00    +0.000 OA
ATOM     10  O   UNL     1       5.378   5.354  13.854  0.00  0.00    +0.000 OA
BRANCH   8  11
ATOM     11  N   UNL     1       6.537   3.268  14.544  0.00  0.00    +0.000 NA
ATOM     12  H   UNL     1       5.894   2.971  13.809  0.00  0.00    +0.000 HD
ATOM     13  H   UNL     1       6.329   2.834  15.449  0.00  0.00    +0.000 HD
ENDBRANCH   8  11
ENDBRANCH   1   8
BRANCH   3  14
ATOM     14  C   UNL     1       3.455   7.214  18.225  0.00  0.00    +0.000 C 
BRANCH  14  15
ATOM     15  C   UNL     1       2.507   6.723  19.309  0.00  0.00    +0.000 C 
ATOM     16  O   UNL     1       2.216   7.413  20.283  0.00  0.00    +0.000 OA
BRANCH  15  17
ATOM     17  C   UNL     1       1.964   5.339  19.216  0.00  0.00    +0.000 A 
ATOM     18  C   UNL     1       1.863   4.743  17.949  0.00  0.00    +0.000 A 
ATOM     19  C   UNL     1       1.347   3.453  17.822  0.00  0.00    +0.000 A 
ATOM     20  C   UNL     1       0.951   2.759  18.959  0.00  0.00    +0.000 A 
ATOM     21  F   UNL     1       0.457   1.521  18.840  0.00  0.00    +0.000 F 
ATOM     22  C   UNL     1       1.060   3.332  20.222  0.00  0.00    +0.000 A 
ATOM     23  C   UNL     1       1.566   4.627  20.354  0.00  0.00    +0.000 A 
ENDBRANCH  15  17
ENDBRANCH  14  15
ENDBRANCH   3  14
TORSDOF 5
ENDMDL
MODEL 9
REMARK VINA RESULT:      -6.9      2.706      3.579
REMARK  Name = 
REMARK  5 active torsions:
REMARK  status: ('A' for Active; 'I' for Inactive)
REMARK    1  A    between atoms: N_1  and  S_2
REMARK    2  A    between atoms: S_2  and  C_5
REMARK    3  A    between atoms: N_7  and  C_8
REMARK    4  A    between atoms: C_8  and  C_9
REMARK    5  A    between atoms: C_9  and  C_11
REMARK                            x       y       z     vdW  Elec       q    Type
REMARK                         _______ _______ _______ _____ _____    ______ ____
ROOT
ATOM      1  C   UNL     1       6.459   4.877  17.774  0.00  0.00    +0.000 A 
ATOM      2  C   UNL     1       5.397   4.150  18.158  0.00  0.00    +0.000 A 
ATOM      3  N   UNL     1       4.374   3.735  17.301  0.00  0.00    +0.000 N 
ATOM      4  C   UNL     1       4.518   4.042  15.950  0.00  0.00    +0.000 A 
ATOM      5  C   UNL     1       5.522   4.764  15.436  0.00  0.00    +0.000 A 
ATOM      6  C   UNL     1       6.568   5.277  16.360  0.00  0.00    +0.000 A 
ATOM      7  O   UNL     1       7.467   5.990  15.929  0.00  0.00    +0.000 OA
ENDROOT
BRANCH   1   8
ATOM      8  S   UNL     1       7.627   5.370  18.924  0.00  0.00    +0.000 S 
ATOM      9  O   UNL     1       8.833   4.581  18.784  0.00  0.00    +0.000 OA
ATOM     10  O   UNL     1       7.000   5.492  20.222  0.00  0.00    +0.000 OA
BRANCH   8  11
ATOM     11  N   UNL     1       8.113   6.940  18.539  0.00  0.00    +0.000 NA
ATOM     12  H   UNL     1       8.114   7.513  19.383  0.00  0.00    +0.000 HD
ATOM     13  H   UNL     1       7.504   7.319  17.806  0.00  0.00    +0.000 HD
ENDBRANCH   8  11
ENDBRANCH   1   8
BRANCH   3  14
ATOM     14  C   UNL     1       3.318   2.776  17.717  0.00  0.00    +0.000 C 
BRANCH  14  15
ATOM     15  C   UNL     1       1.996   3.410  18.123  0.00  0.00    +0.000 C 
ATOM     16  O   UNL     1       0.916   2.874  17.887  0.00  0.00    +0.000 OA
BRANCH  15  17
ATOM     17  C   UNL     1       2.011   4.751  18.772  0.00  0.00    +0.000 A 
ATOM     18  C   UNL     1       1.761   4.830  20.151  0.00  0.00    +0.000 A 
ATOM     19  C   UNL     1       1.755   6.070  20.791  0.00  0.00    +0.000 A 
ATOM     20  C   UNL     1       2.013   7.221  20.055  0.00  0.00    +0.000 A 
ATOM     21  F   UNL     1       2.009   8.412  20.666  0.00  0.00    +0.000 F 
ATOM     22  C   UNL     1       2.277   7.155  18.691  0.00  0.00    +0.000 A 
ATOM     23  C   UNL     1       2.275   5.917  18.044  0.00  0.00    +0.000 A 
ENDBRANCH  15  17
ENDBRANCH  14  15
ENDBRANCH   3  14
TORSDOF 5
ENDMDL
