MODEL 1
REMARK VINA RESULT:      -5.7      0.000      0.000
REMARK  Name = 
REMARK  21 active torsions:
REMARK  status: ('A' for Active; 'I' for Inactive)
REMARK    1  A    between atoms: C_1  and  C_2
REMARK    2  A    between atoms: C_2  and  C_3
REMARK    3  A    between atoms: C_3  and  C_4
REMARK    4  A    between atoms: C_4  and  C_5
REMARK    5  A    between atoms: C_5  and  C_6
REMARK    6  A    between atoms: C_6  and  C_7
REMARK    7  A    between atoms: C_7  and  C_8
REMARK    8  A    between atoms: C_8  and  C_9
REMARK    9  A    between atoms: C_10  and  C_11
REMARK   10  A    between atoms: C_11  and  C_12
REMARK   11  A    between atoms: C_12  and  C_13
REMARK   12  A    between atoms: C_13  and  C_14
REMARK   13  A    between atoms: C_14  and  C_15
REMARK   14  A    between atoms: C_15  and  C_16
REMARK   15  A    between atoms: C_16  and  C_17
REMARK   16  A    between atoms: C_17  and  C_18
REMARK   17  A    between atoms: C_20  and  C_21
REMARK   18  A    between atoms: C_21  and  O_22
REMARK   19  A    between atoms: O_22  and  P_23
REMARK   20  A    between atoms: P_23  and  O_25
REMARK   21  A    between atoms: P_23  and  O_26
REMARK                            x       y       z     vdW  Elec       q    Type
REMARK                         _______ _______ _______ _____ _____    ______ ____
ROOT
ATOM      1  C   UNL     1       8.127   7.201  18.415  0.00  0.00    +0.000 C 
ENDROOT
BRANCH   1   2
ATOM      2  C   UNL     1       8.290   8.658  18.021  0.00  0.00    +0.000 C 
BRANCH   2   3
ATOM      3  C   UNL     1       9.027   9.434  19.105  0.00  0.00    +0.000 C 
BRANCH   3   4
ATOM      4  C   UNL     1       9.252  10.891  18.727  0.00  0.00    +0.000 C 
ATOM      5  O   UNL     1      10.339  10.948  17.788  0.00  0.00    +0.000 OA
ATOM      6  C   UNL     1      11.113  12.135  18.014  0.00  0.00    +0.000 C 
ATOM      7  C   UNL     1      11.259  12.351  19.516  0.00  0.00    +0.000 C 
ATOM      8  S   UNL     1       9.623  11.951  20.154  0.00  0.00    +0.000 S 
BRANCH   6   9
ATOM      9  C   UNL     1      10.465  13.308  17.293  0.00  0.00    +0.000 C 
BRANCH   9  10
ATOM     10  O   UNL     1      10.830  14.544  17.899  0.00  0.00    +0.000 OA
BRANCH  10  11
ATOM     11  P   UNL     1       9.410  15.501  18.152  0.00  0.00    +0.000 P 
ATOM     12  O   UNL     1       9.848  16.563  17.142  0.00  0.00    +0.000 OA
BRANCH  11  13
ATOM     13  O   UNL     1       7.991  16.458  18.406  0.00  0.00    +0.000 OA
ATOM     14  H   UNL     1       7.601  16.052  19.208  0.00  0.00    +0.000 HD
ENDBRANCH  11  13
BRANCH  11  15
ATOM     15  O   UNL     1       8.599  14.401  17.274  0.00  0.00    +0.000 OA
ATOM     16  H   UNL     1       7.682  14.728  17.183  0.00  0.00    +0.000 HD
ENDBRANCH  11  15
ENDBRANCH  10  11
ENDBRANCH   9  10
ENDBRANCH   6   9
ENDBRANCH   3   4
ENDBRANCH   2   3
ENDBRANCH   1   2
BRANCH   1  17
ATOM     17  C   UNL     1       7.245   6.519  17.381  0.00  0.00    +0.000 C 
BRANCH  17  18
ATOM     18  C   UNL     1       6.060   7.394  17.002  0.00  0.00    +0.000 C 
BRANCH  18  19
ATOM     19  C   UNL     1       5.014   6.607  16.213  0.00  0.00    +0.000 C 
BRANCH  19  20
ATOM     20  C   UNL     1       5.622   5.396  15.513  0.00  0.00    +0.000 C 
BRANCH  20  22
ATOM     21  C   UNL     1       3.985   4.122  16.865  0.00  0.00    +0.000 C 
ATOM     22  C   UNL     1       4.963   4.131  15.952  0.00  0.00    +0.000 C 
BRANCH  21  23
ATOM     23  C   UNL     1       3.304   2.882  17.308  0.00  0.00    +0.000 C 
BRANCH  23  24
ATOM     24  C   UNL     1       1.881   3.178  17.756  0.00  0.00    +0.000 C 
BRANCH  24  25
ATOM     25  C   UNL     1       1.759   4.607  18.233  0.00  0.00    +0.000 C 
BRANCH  25  26
ATOM     26  C   UNL     1       1.216   4.657  19.657  0.00  0.00    +0.000 C 
BRANCH  26  27
ATOM     27  C   UNL     1       2.327   4.356  20.660  0.00  0.00    +0.000 C 
BRANCH  27  28
ATOM     28  C   UNL     1       1.947   3.161  21.525  0.00  0.00    +0.000 C 
BRANCH  28  30
ATOM     29  C   UNL     1       4.180   2.524  20.586  0.00  0.00    +0.000 C 
ATOM     30  C   UNL     1       3.075   2.133  21.549  0.00  0.00    +0.000 C 
ENDBRANCH  28  30
ENDBRANCH  27  28
ENDBRANCH  26  27
ENDBRANCH  25  26
ENDBRANCH  24  25
ENDBRANCH  23  24
ENDBRANCH  21  23
ENDBRANCH  20  22
ENDBRANCH  19  20
ENDBRANCH  18  19
ENDBRANCH  17  18
ENDBRANCH   1  17
TORSDOF 20
ENDMDL
MODEL 2
REMARK VINA RESULT:      -5.6      6.945     10.052
REMARK  Name = 
REMARK  21 active torsions:
REMARK  status: ('A' for Active; 'I' for Inactive)
REMARK    1  A    between atoms: C_1  and  C_2
REMARK    2  A    between atoms: C_2  and  C_3
REMARK    3  A    between atoms: C_3  and  C_4
REMARK    4  A    between atoms: C_4  and  C_5
REMARK    5  A    between atoms: C_5  and  C_6
REMARK    6  A    between atoms: C_6  and  C_7
REMARK    7  A    between atoms: C_7  and  C_8
REMARK    8  A    between atoms: C_8  and  C_9
REMARK    9  A    between atoms: C_10  and  C_11
REMARK   10  A    between atoms: C_11  and  C_12
REMARK   11  A    between atoms: C_12  and  C_13
REMARK   12  A    between atoms: C_13  and  C_14
REMARK   13  A    between atoms: C_14  and  C_15
REMARK   14  A    between atoms: C_15  and  C_16
REMARK   15  A    between atoms: C_16  and  C_17
REMARK   16  A    between atoms: C_17  and  C_18
REMARK   17  A    between atoms: C_20  and  C_21
REMARK   18  A    between atoms: C_21  and  O_22
REMARK   19  A    between atoms: O_22  and  P_23
REMARK   20  A    between atoms: P_23  and  O_25
REMARK   21  A    between atoms: P_23  and  O_26
REMARK                            x       y       z     vdW  Elec       q    Type
REMARK                         _______ _______ _______ _____ _____    ______ ____
ROOT
ATOM      1  C   UNL     1       1.409   7.593  21.047  0.00  0.00    +0.000 C 
ENDROOT
BRANCH   1   2
ATOM      2  C   UNL     1       2.029   6.781  19.924  0.00  0.00    +0.000 C 
BRANCH   2   3
ATOM      3  C   UNL     1       2.225   5.331  20.348  0.00  0.00    +0.000 C 
BRANCH   3   4
ATOM      4  C   UNL     1       3.297   4.626  19.529  0.00  0.00    +0.000 C 
ATOM      5  O   UNL     1       3.085   4.943  18.143  0.00  0.00    +0.000 OA
ATOM      6  C   UNL     1       3.412   3.807  17.330  0.00  0.00    +0.000 C 
ATOM      7  C   UNL     1       2.899   2.545  18.014  0.00  0.00    +0.000 C 
ATOM      8  S   UNL     1       3.294   2.823  19.749  0.00  0.00    +0.000 S 
BRANCH   6   9
ATOM      9  C   UNL     1       4.911   3.787  17.067  0.00  0.00    +0.000 C 
BRANCH   9  10
ATOM     10  O   UNL     1       5.233   4.514  15.886  0.00  0.00    +0.000 OA
BRANCH  10  11
ATOM     11  P   UNL     1       6.459   5.680  16.245  0.00  0.00    +0.000 P 
ATOM     12  O   UNL     1       7.239   5.373  14.966  0.00  0.00    +0.000 OA
BRANCH  11  13
ATOM     13  O   UNL     1       7.686   6.846  16.605  0.00  0.00    +0.000 OA
ATOM     14  H   UNL     1       7.344   7.656  16.170  0.00  0.00    +0.000 HD
ENDBRANCH  11  13
BRANCH  11  15
ATOM     15  O   UNL     1       5.392   6.828  15.816  0.00  0.00    +0.000 OA
ATOM     16  H   UNL     1       5.855   7.432  15.201  0.00  0.00    +0.000 HD
ENDBRANCH  11  15
ENDBRANCH  10  11
ENDBRANCH   9  10
ENDBRANCH   6   9
ENDBRANCH   3   4
ENDBRANCH   2   3
ENDBRANCH   1   2
BRANCH   1  17
ATOM     17  C   UNL     1       1.000   8.948  20.492  0.00  0.00    +0.000 C 
BRANCH  17  18
ATOM     18  C   UNL     1       0.945  10.000  21.589  0.00  0.00    +0.000 C 
BRANCH  18  19
ATOM     19  C   UNL     1      -0.058   9.617  22.678  0.00  0.00    +0.000 C 
BRANCH  19  20
ATOM     20  C   UNL     1      -1.096  10.711  22.906  0.00  0.00    +0.000 C 
BRANCH  20  22
ATOM     21  C   UNL     1      -1.218  12.702  21.440  0.00  0.00    +0.000 C 
ATOM     22  C   UNL     1      -0.603  12.034  22.422  0.00  0.00    +0.000 C 
BRANCH  21  23
ATOM     23  C   UNL     1      -0.757  14.023  20.950  0.00  0.00    +0.000 C 
BRANCH  23  24
ATOM     24  C   UNL     1      -0.851  14.099  19.434  0.00  0.00    +0.000 C 
BRANCH  24  25
ATOM     25  C   UNL     1      -0.272  12.856  18.800  0.00  0.00    +0.000 C 
BRANCH  25  26
ATOM     26  C   UNL     1      -1.331  12.120  17.988  0.00  0.00    +0.000 C 
BRANCH  26  27
ATOM     27  C   UNL     1      -1.206  10.612  18.192  0.00  0.00    +0.000 C 
BRANCH  27  28
ATOM     28  C   UNL     1      -1.965   9.867  17.103  0.00  0.00    +0.000 C 
BRANCH  28  30
ATOM     29  C   UNL     1      -3.017  10.358  14.883  0.00  0.00    +0.000 C 
ATOM     30  C   UNL     1      -2.860  10.823  16.319  0.00  0.00    +0.000 C 
ENDBRANCH  28  30
ENDBRANCH  27  28
ENDBRANCH  26  27
ENDBRANCH  25  26
ENDBRANCH  24  25
ENDBRANCH  23  24
ENDBRANCH  21  23
ENDBRANCH  20  22
ENDBRANCH  19  20
ENDBRANCH  18  19
ENDBRANCH  17  18
ENDBRANCH   1  17
TORSDOF 20
ENDMDL
MODEL 3
REMARK VINA RESULT:      -5.6      1.422      2.233
REMARK  Name = 
REMARK  21 active torsions:
REMARK  status: ('A' for Active; 'I' for Inactive)
REMARK    1  A    between atoms: C_1  and  C_2
REMARK    2  A    between atoms: C_2  and  C_3
REMARK    3  A    between atoms: C_3  and  C_4
REMARK    4  A    between atoms: C_4  and  C_5
REMARK    5  A    between atoms: C_5  and  C_6
REMARK    6  A    between atoms: C_6  and  C_7
REMARK    7  A    between atoms: C_7  and  C_8
REMARK    8  A    between atoms: C_8  and  C_9
REMARK    9  A    between atoms: C_10  and  C_11
REMARK   10  A    between atoms: C_11  and  C_12
REMARK   11  A    between atoms: C_12  and  C_13
REMARK   12  A    between atoms: C_13  and  C_14
REMARK   13  A    between atoms: C_14  and  C_15
REMARK   14  A    between atoms: C_15  and  C_16
REMARK   15  A    between atoms: C_16  and  C_17
REMARK   16  A    between atoms: C_17  and  C_18
REMARK   17  A    between atoms: C_20  and  C_21
REMARK   18  A    between atoms: C_21  and  O_22
REMARK   19  A    between atoms: O_22  and  P_23
REMARK   20  A    between atoms: P_23  and  O_25
REMARK   21  A    between atoms: P_23  and  O_26
REMARK                            x       y       z     vdW  Elec       q    Type
REMARK                         _______ _______ _______ _____ _____    ______ ____
ROOT
ATOM      1  C   UNL     1       7.486   7.043  17.857  0.00  0.00    +0.000 C 
ENDROOT
BRANCH   1   2
ATOM      2  C   UNL     1       7.780   8.522  17.685  0.00  0.00    +0.000 C 
BRANCH   2   3
ATOM      3  C   UNL     1       8.800   8.995  18.712  0.00  0.00    +0.000 C 
BRANCH   3   4
ATOM      4  C   UNL     1       8.936  10.511  18.743  0.00  0.00    +0.000 C 
ATOM      5  O   UNL     1       9.880  10.897  17.730  0.00  0.00    +0.000 OA
ATOM      6  C   UNL     1      10.650  12.018  18.187  0.00  0.00    +0.000 C 
ATOM      7  C   UNL     1      10.999  11.812  19.657  0.00  0.00    +0.000 C 
ATOM      8  S   UNL     1       9.477  11.147  20.356  0.00  0.00    +0.000 S 
BRANCH   6   9
ATOM      9  C   UNL     1       9.881  13.304  17.922  0.00  0.00    +0.000 C 
BRANCH   9  10
ATOM     10  O   UNL     1      10.662  14.221  17.163  0.00  0.00    +0.000 OA
BRANCH  10  11
ATOM     11  P   UNL     1      10.432  15.821  17.779  0.00  0.00    +0.000 P 
ATOM     12  O   UNL     1      11.347  16.446  16.725  0.00  0.00    +0.000 OA
BRANCH  11  13
ATOM     13  O   UNL     1      10.202  17.421  18.397  0.00  0.00    +0.000 OA
ATOM     14  H   UNL     1      10.476  17.329  19.333  0.00  0.00    +0.000 HD
ENDBRANCH  11  13
BRANCH  11  15
ATOM     15  O   UNL     1       8.960  15.797  17.092  0.00  0.00    +0.000 OA
ATOM     16  H   UNL     1       8.307  15.907  17.812  0.00  0.00    +0.000 HD
ENDBRANCH  11  15
ENDBRANCH  10  11
ENDBRANCH   9  10
ENDBRANCH   6   9
ENDBRANCH   3   4
ENDBRANCH   2   3
ENDBRANCH   1   2
BRANCH   1  17
ATOM     17  C   UNL     1       7.684   6.354  16.515  0.00  0.00    +0.000 C 
BRANCH  17  18
ATOM     18  C   UNL     1       7.249   4.897  16.574  0.00  0.00    +0.000 C 
BRANCH  18  19
ATOM     19  C   UNL     1       5.836   4.760  17.143  0.00  0.00    +0.000 C 
BRANCH  19  20
ATOM     20  C   UNL     1       5.851   4.355  18.613  0.00  0.00    +0.000 C 
BRANCH  20  22
ATOM     21  C   UNL     1       3.963   5.945  18.813  0.00  0.00    +0.000 C 
ATOM     22  C   UNL     1       4.728   4.993  19.360  0.00  0.00    +0.000 C 
BRANCH  21  23
ATOM     23  C   UNL     1       2.833   6.584  19.527  0.00  0.00    +0.000 C 
BRANCH  23  24
ATOM     24  C   UNL     1       1.681   5.606  19.699  0.00  0.00    +0.000 C 
BRANCH  24  25
ATOM     25  C   UNL     1       1.768   4.909  21.036  0.00  0.00    +0.000 C 
BRANCH  25  26
ATOM     26  C   UNL     1       1.234   3.484  20.939  0.00  0.00    +0.000 C 
BRANCH  26  27
ATOM     27  C   UNL     1       2.299   2.556  20.359  0.00  0.00    +0.000 C 
BRANCH  27  28
ATOM     28  C   UNL     1       1.790   1.905  19.079  0.00  0.00    +0.000 C 
BRANCH  28  30
ATOM     29  C   UNL     1       2.495   3.189  17.048  0.00  0.00    +0.000 C 
ATOM     30  C   UNL     1       2.824   2.026  17.964  0.00  0.00    +0.000 C 
ENDBRANCH  28  30
ENDBRANCH  27  28
ENDBRANCH  26  27
ENDBRANCH  25  26
ENDBRANCH  24  25
ENDBRANCH  23  24
ENDBRANCH  21  23
ENDBRANCH  20  22
ENDBRANCH  19  20
ENDBRANCH  18  19
ENDBRANCH  17  18
ENDBRANCH   1  17
TORSDOF 20
ENDMDL
MODEL 4
REMARK VINA RESULT:      -5.6      6.796      9.955
REMARK  Name = 
REMARK  21 active torsions:
REMARK  status: ('A' for Active; 'I' for Inactive)
REMARK    1  A    between atoms: C_1  and  C_2
REMARK    2  A    between atoms: C_2  and  C_3
REMARK    3  A    between atoms: C_3  and  C_4
REMARK    4  A    between atoms: C_4  and  C_5
REMARK    5  A    between atoms: C_5  and  C_6
REMARK    6  A    between atoms: C_6  and  C_7
REMARK    7  A    between atoms: C_7  and  C_8
REMARK    8  A    between atoms: C_8  and  C_9
REMARK    9  A    between atoms: C_10  and  C_11
REMARK   10  A    between atoms: C_11  and  C_12
REMARK   11  A    between atoms: C_12  and  C_13
REMARK   12  A    between atoms: C_13  and  C_14
REMARK   13  A    between atoms: C_14  and  C_15
REMARK   14  A    between atoms: C_15  and  C_16
REMARK   15  A    between atoms: C_16  and  C_17
REMARK   16  A    between atoms: C_17  and  C_18
REMARK   17  A    between atoms: C_20  and  C_21
REMARK   18  A    between atoms: C_21  and  O_22
REMARK   19  A    between atoms: O_22  and  P_23
REMARK   20  A    between atoms: P_23  and  O_25
REMARK   21  A    between atoms: P_23  and  O_26
REMARK                            x       y       z     vdW  Elec       q    Type
REMARK                         _______ _______ _______ _____ _____    ______ ____
ROOT
ATOM      1  C   UNL     1       2.264   5.379  20.776  0.00  0.00    +0.000 C 
ENDROOT
BRANCH   1   2
ATOM      2  C   UNL     1       1.622   4.035  20.481  0.00  0.00    +0.000 C 
BRANCH   2   3
ATOM      3  C   UNL     1       2.678   2.942  20.377  0.00  0.00    +0.000 C 
BRANCH   3   4
ATOM      4  C   UNL     1       3.472   3.023  19.081  0.00  0.00    +0.000 C 
ATOM      5  O   UNL     1       4.615   3.866  19.306  0.00  0.00    +0.000 OA
ATOM      6  C   UNL     1       4.896   4.628  18.124  0.00  0.00    +0.000 C 
ATOM      7  C   UNL     1       3.580   5.103  17.517  0.00  0.00    +0.000 C 
ATOM      8  S   UNL     1       2.503   3.669  17.687  0.00  0.00    +0.000 S 
BRANCH   6   9
ATOM      9  C   UNL     1       5.736   3.792  17.170  0.00  0.00    +0.000 C 
BRANCH   9  10
ATOM     10  O   UNL     1       5.326   3.989  15.821  0.00  0.00    +0.000 OA
BRANCH  10  11
ATOM     11  P   UNL     1       6.589   4.784  14.945  0.00  0.00    +0.000 P 
ATOM     12  O   UNL     1       7.667   4.330  15.930  0.00  0.00    +0.000 OA
BRANCH  11  13
ATOM     13  O   UNL     1       7.852   5.580  14.070  0.00  0.00    +0.000 OA
ATOM     14  H   UNL     1       7.389   6.353  13.685  0.00  0.00    +0.000 HD
ENDBRANCH  11  13
BRANCH  11  15
ATOM     15  O   UNL     1       6.491   3.584  13.854  0.00  0.00    +0.000 OA
ATOM     16  H   UNL     1       5.549   3.324  13.800  0.00  0.00    +0.000 HD
ENDBRANCH  11  15
ENDBRANCH  10  11
ENDBRANCH   9  10
ENDBRANCH   6   9
ENDBRANCH   3   4
ENDBRANCH   2   3
ENDBRANCH   1   2
BRANCH   1  17
ATOM     17  C   UNL     1       1.170   6.435  20.820  0.00  0.00    +0.000 C 
BRANCH  17  18
ATOM     18  C   UNL     1       1.732   7.822  20.543  0.00  0.00    +0.000 C 
BRANCH  18  19
ATOM     19  C   UNL     1       0.814   8.915  21.090  0.00  0.00    +0.000 C 
BRANCH  19  20
ATOM     20  C   UNL     1       0.987   9.105  22.592  0.00  0.00    +0.000 C 
BRANCH  20  22
ATOM     21  C   UNL     1      -0.828  10.785  22.484  0.00  0.00    +0.000 C 
ATOM     22  C   UNL     1      -0.162   9.855  23.178  0.00  0.00    +0.000 C 
BRANCH  21  23
ATOM     23  C   UNL     1      -1.981  11.534  23.037  0.00  0.00    +0.000 C 
BRANCH  23  24
ATOM     24  C   UNL     1      -2.261  12.781  22.212  0.00  0.00    +0.000 C 
BRANCH  24  25
ATOM     25  C   UNL     1      -1.530  12.721  20.891  0.00  0.00    +0.000 C 
BRANCH  25  26
ATOM     26  C   UNL     1      -2.505  12.482  19.744  0.00  0.00    +0.000 C 
BRANCH  26  27
ATOM     27  C   UNL     1      -1.758  11.995  18.504  0.00  0.00    +0.000 C 
BRANCH  27  28
ATOM     28  C   UNL     1      -1.629  10.478  18.528  0.00  0.00    +0.000 C 
BRANCH  28  30
ATOM     29  C   UNL     1      -2.629  10.712  16.244  0.00  0.00    +0.000 C 
ATOM     30  C   UNL     1      -2.542   9.842  17.484  0.00  0.00    +0.000 C 
ENDBRANCH  28  30
ENDBRANCH  27  28
ENDBRANCH  26  27
ENDBRANCH  25  26
ENDBRANCH  24  25
ENDBRANCH  23  24
ENDBRANCH  21  23
ENDBRANCH  20  22
ENDBRANCH  19  20
ENDBRANCH  18  19
ENDBRANCH  17  18
ENDBRANCH   1  17
TORSDOF 20
ENDMDL
MODEL 5
REMARK VINA RESULT:      -5.6      7.585      9.643
REMARK  Name = 
REMARK  21 active torsions:
REMARK  status: ('A' for Active; 'I' for Inactive)
REMARK    1  A    between atoms: C_1  and  C_2
REMARK    2  A    between atoms: C_2  and  C_3
REMARK    3  A    between atoms: C_3  and  C_4
REMARK    4  A    between atoms: C_4  and  C_5
REMARK    5  A    between atoms: C_5  and  C_6
REMARK    6  A    between atoms: C_6  and  C_7
REMARK    7  A    between atoms: C_7  and  C_8
REMARK    8  A    between atoms: C_8  and  C_9
REMARK    9  A    between atoms: C_10  and  C_11
REMARK   10  A    between atoms: C_11  and  C_12
REMARK   11  A    between atoms: C_12  and  C_13
REMARK   12  A    between atoms: C_13  and  C_14
REMARK   13  A    between atoms: C_14  and  C_15
REMARK   14  A    between atoms: C_15  and  C_16
REMARK   15  A    between atoms: C_16  and  C_17
REMARK   16  A    between atoms: C_17  and  C_18
REMARK   17  A    between atoms: C_20  and  C_21
REMARK   18  A    between atoms: C_21  and  O_22
REMARK   19  A    between atoms: O_22  and  P_23
REMARK   20  A    between atoms: P_23  and  O_25
REMARK   21  A    between atoms: P_23  and  O_26
REMARK                            x       y       z     vdW  Elec       q    Type
REMARK                         _______ _______ _______ _____ _____    ______ ____
ROOT
ATOM      1  C   UNL     1       2.293   8.336  18.198  0.00  0.00    +0.000 C 
ENDROOT
BRANCH   1   2
ATOM      2  C   UNL     1       1.272   9.457  18.126  0.00  0.00    +0.000 C 
BRANCH   2   3
ATOM      3  C   UNL     1       0.621   9.685  19.484  0.00  0.00    +0.000 C 
BRANCH   3   4
ATOM      4  C   UNL     1      -0.785  10.257  19.366  0.00  0.00    +0.000 C 
ATOM      5  O   UNL     1      -1.116  10.350  17.970  0.00  0.00    +0.000 OA
ATOM      6  C   UNL     1      -1.913  11.520  17.737  0.00  0.00    +0.000 C 
ATOM      7  C   UNL     1      -1.358  12.670  18.571  0.00  0.00    +0.000 C 
ATOM      8  S   UNL     1      -0.960  11.889  20.144  0.00  0.00    +0.000 S 
BRANCH   6   9
ATOM      9  C   UNL     1      -3.372  11.207  18.034  0.00  0.00    +0.000 C 
BRANCH   9  10
ATOM     10  O   UNL     1      -3.917  12.139  18.962  0.00  0.00    +0.000 OA
BRANCH  10  11
ATOM     11  P   UNL     1      -5.640  11.979  18.993  0.00  0.00    +0.000 P 
ATOM     12  O   UNL     1      -5.709  12.149  20.511  0.00  0.00    +0.000 OA
BRANCH  11  13
ATOM     13  O   UNL     1      -7.363  11.819  19.024  0.00  0.00    +0.000 OA
ATOM     14  H   UNL     1      -7.486  10.847  19.039  0.00  0.00    +0.000 HD
ENDBRANCH  11  13
BRANCH  11  15
ATOM     15  O   UNL     1      -5.719  13.490  18.402  0.00  0.00    +0.000 OA
ATOM     16  H   UNL     1      -4.935  13.970  18.738  0.00  0.00    +0.000 HD
ENDBRANCH  11  15
ENDBRANCH  10  11
ENDBRANCH   9  10
ENDBRANCH   6   9
ENDBRANCH   3   4
ENDBRANCH   2   3
ENDBRANCH   1   2
BRANCH   1  17
ATOM     17  C   UNL     1       2.244   7.729  19.592  0.00  0.00    +0.000 C 
BRANCH  17  18
ATOM     18  C   UNL     1       2.547   6.239  19.555  0.00  0.00    +0.000 C 
BRANCH  18  19
ATOM     19  C   UNL     1       1.665   5.466  20.536  0.00  0.00    +0.000 C 
BRANCH  19  20
ATOM     20  C   UNL     1       1.234   4.116  19.974  0.00  0.00    +0.000 C 
BRANCH  20  22
ATOM     21  C   UNL     1       3.233   3.131  18.894  0.00  0.00    +0.000 C 
ATOM     22  C   UNL     1       2.049   3.743  18.780  0.00  0.00    +0.000 C 
BRANCH  21  23
ATOM     23  C   UNL     1       4.055   2.737  17.725  0.00  0.00    +0.000 C 
BRANCH  23  24
ATOM     24  C   UNL     1       4.090   3.851  16.691  0.00  0.00    +0.000 C 
BRANCH  24  25
ATOM     25  C   UNL     1       5.365   3.787  15.882  0.00  0.00    +0.000 C 
BRANCH  25  26
ATOM     26  C   UNL     1       5.941   5.182  15.670  0.00  0.00    +0.000 C 
BRANCH  26  27
ATOM     27  C   UNL     1       5.050   6.232  16.330  0.00  0.00    +0.000 C 
BRANCH  27  28
ATOM     28  C   UNL     1       5.866   7.093  17.284  0.00  0.00    +0.000 C 
BRANCH  28  30
ATOM     29  C   UNL     1       7.675   6.106  18.707  0.00  0.00    +0.000 C 
ATOM     30  C   UNL     1       7.318   6.624  17.327  0.00  0.00    +0.000 C 
ENDBRANCH  28  30
ENDBRANCH  27  28
ENDBRANCH  26  27
ENDBRANCH  25  26
ENDBRANCH  24  25
ENDBRANCH  23  24
ENDBRANCH  21  23
ENDBRANCH  20  22
ENDBRANCH  19  20
ENDBRANCH  18  19
ENDBRANCH  17  18
ENDBRANCH   1  17
TORSDOF 20
ENDMDL
MODEL 6
REMARK VINA RESULT:      -5.5      7.759      9.657
REMARK  Name = 
REMARK  21 active torsions:
REMARK  status: ('A' for Active; 'I' for Inactive)
REMARK    1  A    between atoms: C_1  and  C_2
REMARK    2  A    between atoms: C_2  and  C_3
REMARK    3  A    between atoms: C_3  and  C_4
REMARK    4  A    between atoms: C_4  and  C_5
REMARK    5  A    between atoms: C_5  and  C_6
REMARK    6  A    between atoms: C_6  and  C_7
REMARK    7  A    between atoms: C_7  and  C_8
REMARK    8  A    between atoms: C_8  and  C_9
REMARK    9  A    between atoms: C_10  and  C_11
REMARK   10  A    between atoms: C_11  and  C_12
REMARK   11  A    between atoms: C_12  and  C_13
REMARK   12  A    between atoms: C_13  and  C_14
REMARK   13  A    between atoms: C_14  and  C_15
REMARK   14  A    between atoms: C_15  and  C_16
REMARK   15  A    between atoms: C_16  and  C_17
REMARK   16  A    between atoms: C_17  and  C_18
REMARK   17  A    between atoms: C_20  and  C_21
REMARK   18  A    between atoms: C_21  and  O_22
REMARK   19  A    between atoms: O_22  and  P_23
REMARK   20  A    between atoms: P_23  and  O_25
REMARK   21  A    between atoms: P_23  and  O_26
REMARK                            x       y       z     vdW  Elec       q    Type
REMARK                         _______ _______ _______ _____ _____    ______ ____
ROOT
ATOM      1  C   UNL     1       2.052  10.070  17.883  0.00  0.00    +0.000 C 
ENDROOT
BRANCH   1   2
ATOM      2  C   UNL     1       0.703  10.100  18.579  0.00  0.00    +0.000 C 
BRANCH   2   3
ATOM      3  C   UNL     1       0.524  11.397  19.356  0.00  0.00    +0.000 C 
BRANCH   3   4
ATOM      4  C   UNL     1      -0.702  11.369  20.259  0.00  0.00    +0.000 C 
ATOM      5  O   UNL     1      -0.661  12.528  21.108  0.00  0.00    +0.000 OA
ATOM      6  C   UNL     1      -1.183  12.199  22.404  0.00  0.00    +0.000 C 
ATOM      7  C   UNL     1      -0.676  10.817  22.804  0.00  0.00    +0.000 C 
ATOM      8  S   UNL     1      -0.805   9.869  21.278  0.00  0.00    +0.000 S 
BRANCH   6   9
ATOM      9  C   UNL     1      -2.701  12.304  22.380  0.00  0.00    +0.000 C 
BRANCH   9  10
ATOM     10  O   UNL     1      -3.257  11.961  23.645  0.00  0.00    +0.000 OA
BRANCH  10  11
ATOM     11  P   UNL     1      -4.604  12.993  23.980  0.00  0.00    +0.000 P 
ATOM     12  O   UNL     1      -5.343  11.909  24.767  0.00  0.00    +0.000 OA
BRANCH  11  13
ATOM     13  O   UNL     1      -5.952  14.026  24.314  0.00  0.00    +0.000 OA
ATOM     14  H   UNL     1      -6.197  13.768  25.227  0.00  0.00    +0.000 HD
ENDBRANCH  11  13
BRANCH  11  15
ATOM     15  O   UNL     1      -3.668  13.740  25.078  0.00  0.00    +0.000 OA
ATOM     16  H   UNL     1      -2.802  13.901  24.653  0.00  0.00    +0.000 HD
ENDBRANCH  11  15
ENDBRANCH  10  11
ENDBRANCH   9  10
ENDBRANCH   6   9
ENDBRANCH   3   4
ENDBRANCH   2   3
ENDBRANCH   1   2
BRANCH   1  17
ATOM     17  C   UNL     1       2.547   8.632  17.855  0.00  0.00    +0.000 C 
BRANCH  17  18
ATOM     18  C   UNL     1       1.639   7.720  18.666  0.00  0.00    +0.000 C 
BRANCH  18  19
ATOM     19  C   UNL     1       2.202   7.472  20.065  0.00  0.00    +0.000 C 
BRANCH  19  20
ATOM     20  C   UNL     1       1.407   6.412  20.820  0.00  0.00    +0.000 C 
BRANCH  20  22
ATOM     21  C   UNL     1       1.572   3.951  21.029  0.00  0.00    +0.000 C 
ATOM     22  C   UNL     1       1.667   5.049  20.271  0.00  0.00    +0.000 C 
BRANCH  21  23
ATOM     23  C   UNL     1       1.810   2.585  20.506  0.00  0.00    +0.000 C 
BRANCH  23  24
ATOM     24  C   UNL     1       1.126   2.395  19.161  0.00  0.00    +0.000 C 
BRANCH  24  25
ATOM     25  C   UNL     1       2.139   2.066  18.089  0.00  0.00    +0.000 C 
BRANCH  25  26
ATOM     26  C   UNL     1       2.437   3.290  17.232  0.00  0.00    +0.000 C 
BRANCH  26  27
ATOM     27  C   UNL     1       3.885   3.734  17.424  0.00  0.00    +0.000 C 
BRANCH  27  28
ATOM     28  C   UNL     1       3.961   5.251  17.540  0.00  0.00    +0.000 C 
BRANCH  28  30
ATOM     29  C   UNL     1       5.206   6.548  15.797  0.00  0.00    +0.000 C 
ATOM     30  C   UNL     1       5.327   5.759  17.087  0.00  0.00    +0.000 C 
ENDBRANCH  28  30
ENDBRANCH  27  28
ENDBRANCH  26  27
ENDBRANCH  25  26
ENDBRANCH  24  25
ENDBRANCH  23  24
ENDBRANCH  21  23
ENDBRANCH  20  22
ENDBRANCH  19  20
ENDBRANCH  18  19
ENDBRANCH  17  18
ENDBRANCH   1  17
TORSDOF 20
ENDMDL
MODEL 7
REMARK VINA RESULT:      -5.5      1.688      2.471
REMARK  Name = 
REMARK  21 active torsions:
REMARK  status: ('A' for Active; 'I' for Inactive)
REMARK    1  A    between atoms: C_1  and  C_2
REMARK    2  A    between atoms: C_2  and  C_3
REMARK    3  A    between atoms: C_3  and  C_4
REMARK    4  A    between atoms: C_4  and  C_5
REMARK    5  A    between atoms: C_5  and  C_6
REMARK    6  A    between atoms: C_6  and  C_7
REMARK    7  A    between atoms: C_7  and  C_8
REMARK    8  A    between atoms: C_8  and  C_9
REMARK    9  A    between atoms: C_10  and  C_11
REMARK   10  A    between atoms: C_11  and  C_12
REMARK   11  A    between atoms: C_12  and  C_13
REMARK   12  A    between atoms: C_13  and  C_14
REMARK   13  A    between atoms: C_14  and  C_15
REMARK   14  A    between atoms: C_15  and  C_16
REMARK   15  A    between atoms: C_16  and  C_17
REMARK   16  A    between atoms: C_17  and  C_18
REMARK   17  A    between atoms: C_20  and  C_21
REMARK   18  A    between atoms: C_21  and  O_22
REMARK   19  A    between atoms: O_22  and  P_23
REMARK   20  A    between atoms: P_23  and  O_25
REMARK   21  A    between atoms: P_23  and  O_26
REMARK                            x       y       z     vdW  Elec       q    Type
REMARK                         _______ _______ _______ _____ _____    ______ ____
ROOT
ATOM      1  C   UNL     1       7.427   7.862  17.961  0.00  0.00    +0.000 C 
ENDROOT
BRANCH   1   2
ATOM      2  C   UNL     1       8.326   9.035  17.619  0.00  0.00    +0.000 C 
BRANCH   2   3
ATOM      3  C   UNL     1       8.986   9.595  18.873  0.00  0.00    +0.000 C 
BRANCH   3   4
ATOM      4  C   UNL     1       9.627  10.955  18.635  0.00  0.00    +0.000 C 
ATOM      5  O   UNL     1      10.430  11.280  19.783  0.00  0.00    +0.000 OA
ATOM      6  C   UNL     1      10.366  12.691  20.036  0.00  0.00    +0.000 C 
ATOM      7  C   UNL     1       8.932  13.166  19.824  0.00  0.00    +0.000 C 
ATOM      8  S   UNL     1       8.414  12.276  18.346  0.00  0.00    +0.000 S 
BRANCH   6   9
ATOM      9  C   UNL     1      11.379  13.410  19.158  0.00  0.00    +0.000 C 
BRANCH   9  10
ATOM     10  O   UNL     1      11.108  14.807  19.104  0.00  0.00    +0.000 OA
BRANCH  10  11
ATOM     11  P   UNL     1      11.107  15.329  17.455  0.00  0.00    +0.000 P 
ATOM     12  O   UNL     1      11.277  13.907  16.920  0.00  0.00    +0.000 OA
BRANCH  11  13
ATOM     13  O   UNL     1      11.107  15.852  15.805  0.00  0.00    +0.000 OA
ATOM     14  H   UNL     1      11.753  15.244  15.389  0.00  0.00    +0.000 HD
ENDBRANCH  11  13
BRANCH  11  15
ATOM     15  O   UNL     1       9.502  15.533  17.595  0.00  0.00    +0.000 OA
ATOM     16  H   UNL     1       9.340  16.496  17.652  0.00  0.00    +0.000 HD
ENDBRANCH  11  15
ENDBRANCH  10  11
ENDBRANCH   9  10
ENDBRANCH   6   9
ENDBRANCH   3   4
ENDBRANCH   2   3
ENDBRANCH   1   2
BRANCH   1  17
ATOM     17  C   UNL     1       7.674   6.755  16.947  0.00  0.00    +0.000 C 
BRANCH  17  18
ATOM     18  C   UNL     1       7.413   5.384  17.552  0.00  0.00    +0.000 C 
BRANCH  18  19
ATOM     19  C   UNL     1       6.012   5.299  18.157  0.00  0.00    +0.000 C 
BRANCH  19  20
ATOM     20  C   UNL     1       4.925   5.371  17.089  0.00  0.00    +0.000 C 
BRANCH  20  22
ATOM     21  C   UNL     1       3.382   7.101  17.958  0.00  0.00    +0.000 C 
ATOM     22  C   UNL     1       3.625   5.817  17.671  0.00  0.00    +0.000 C 
BRANCH  21  23
ATOM     23  C   UNL     1       2.095   7.573  18.521  0.00  0.00    +0.000 C 
BRANCH  23  24
ATOM     24  C   UNL     1       2.126   7.536  20.042  0.00  0.00    +0.000 C 
BRANCH  24  25
ATOM     25  C   UNL     1       1.252   6.421  20.566  0.00  0.00    +0.000 C 
BRANCH  25  26
ATOM     26  C   UNL     1       2.074   5.162  20.815  0.00  0.00    +0.000 C 
BRANCH  26  27
ATOM     27  C   UNL     1       1.252   3.917  20.490  0.00  0.00    +0.000 C 
BRANCH  27  28
ATOM     28  C   UNL     1       1.784   3.248  19.229  0.00  0.00    +0.000 C 
BRANCH  28  30
ATOM     29  C   UNL     1       3.488   1.664  18.303  0.00  0.00    +0.000 C 
ATOM     30  C   UNL     1       2.952   2.324  19.560  0.00  0.00    +0.000 C 
ENDBRANCH  28  30
ENDBRANCH  27  28
ENDBRANCH  26  27
ENDBRANCH  25  26
ENDBRANCH  24  25
ENDBRANCH  23  24
ENDBRANCH  21  23
ENDBRANCH  20  22
ENDBRANCH  19  20
ENDBRANCH  18  19
ENDBRANCH  17  18
ENDBRANCH   1  17
TORSDOF 20
ENDMDL
MODEL 8
REMARK VINA RESULT:      -5.4      7.585      9.436
REMARK  Name = 
REMARK  21 active torsions:
REMARK  status: ('A' for Active; 'I' for Inactive)
REMARK    1  A    between atoms: C_1  and  C_2
REMARK    2  A    between atoms: C_2  and  C_3
REMARK    3  A    between atoms: C_3  and  C_4
REMARK    4  A    between atoms: C_4  and  C_5
REMARK    5  A    between atoms: C_5  and  C_6
REMARK    6  A    between atoms: C_6  and  C_7
REMARK    7  A    between atoms: C_7  and  C_8
REMARK    8  A    between atoms: C_8  and  C_9
REMARK    9  A    between atoms: C_10  and  C_11
REMARK   10  A    between atoms: C_11  and  C_12
REMARK   11  A    between atoms: C_12  and  C_13
REMARK   12  A    between atoms: C_13  and  C_14
REMARK   13  A    between atoms: C_14  and  C_15
REMARK   14  A    between atoms: C_15  and  C_16
REMARK   15  A    between atoms: C_16  and  C_17
REMARK   16  A    between atoms: C_17  and  C_18
REMARK   17  A    between atoms: C_20  and  C_21
REMARK   18  A    between atoms: C_21  and  O_22
REMARK   19  A    between atoms: O_22  and  P_23
REMARK   20  A    between atoms: P_23  and  O_25
REMARK   21  A    between atoms: P_23  and  O_26
REMARK                            x       y       z     vdW  Elec       q    Type
REMARK                         _______ _______ _______ _____ _____    ______ ____
ROOT
ATOM      1  C   UNL     1       1.491   7.943  17.906  0.00  0.00    +0.000 C 
ENDROOT
BRANCH   1   2
ATOM      2  C   UNL     1       1.404   9.457  17.965  0.00  0.00    +0.000 C 
BRANCH   2   3
ATOM      3  C   UNL     1       0.918   9.919  19.333  0.00  0.00    +0.000 C 
BRANCH   3   4
ATOM      4  C   UNL     1      -0.460  10.565  19.272  0.00  0.00    +0.000 C 
ATOM      5  O   UNL     1      -0.930  10.494  17.915  0.00  0.00    +0.000 OA
ATOM      6  C   UNL     1      -1.682  11.674  17.601  0.00  0.00    +0.000 C 
ATOM      7  C   UNL     1      -0.982  12.884  18.209  0.00  0.00    +0.000 C 
ATOM      8  S   UNL     1      -0.464  12.293  19.830  0.00  0.00    +0.000 S 
BRANCH   6   9
ATOM      9  C   UNL     1      -3.117  11.502  18.077  0.00  0.00    +0.000 C 
BRANCH   9  10
ATOM     10  O   UNL     1      -4.035  11.641  16.997  0.00  0.00    +0.000 OA
BRANCH  10  11
ATOM     11  P   UNL     1      -5.638  11.819  17.624  0.00  0.00    +0.000 P 
ATOM     12  O   UNL     1      -5.548  10.530  18.443  0.00  0.00    +0.000 OA
BRANCH  11  13
ATOM     13  O   UNL     1      -7.241  11.997  18.250  0.00  0.00    +0.000 OA
ATOM     14  H   UNL     1      -7.079  12.281  19.174  0.00  0.00    +0.000 HD
ENDBRANCH  11  13
BRANCH  11  15
ATOM     15  O   UNL     1      -5.050  12.975  18.602  0.00  0.00    +0.000 OA
ATOM     16  H   UNL     1      -5.225  13.833  18.167  0.00  0.00    +0.000 HD
ENDBRANCH  11  15
ENDBRANCH  10  11
ENDBRANCH   9  10
ENDBRANCH   6   9
ENDBRANCH   3   4
ENDBRANCH   2   3
ENDBRANCH   1   2
BRANCH   1  17
ATOM     17  C   UNL     1       2.952   7.540  18.037  0.00  0.00    +0.000 C 
BRANCH  17  18
ATOM     18  C   UNL     1       3.200   6.777  19.329  0.00  0.00    +0.000 C 
BRANCH  18  19
ATOM     19  C   UNL     1       1.943   6.728  20.198  0.00  0.00    +0.000 C 
BRANCH  19  20
ATOM     20  C   UNL     1       1.560   5.299  20.565  0.00  0.00    +0.000 C 
BRANCH  20  22
ATOM     21  C   UNL     1       1.827   3.048  19.571  0.00  0.00    +0.000 C 
ATOM     22  C   UNL     1       1.752   4.374  19.411  0.00  0.00    +0.000 C 
BRANCH  21  23
ATOM     23  C   UNL     1       2.003   2.106  18.440  0.00  0.00    +0.000 C 
BRANCH  23  24
ATOM     24  C   UNL     1       3.380   2.267  17.814  0.00  0.00    +0.000 C 
BRANCH  24  25
ATOM     25  C   UNL     1       3.460   3.555  17.028  0.00  0.00    +0.000 C 
BRANCH  25  26
ATOM     26  C   UNL     1       4.908   4.011  16.883  0.00  0.00    +0.000 C 
BRANCH  26  27
ATOM     27  C   UNL     1       5.521   4.277  18.256  0.00  0.00    +0.000 C 
BRANCH  27  28
ATOM     28  C   UNL     1       6.825   5.050  18.110  0.00  0.00    +0.000 C 
BRANCH  28  30
ATOM     29  C   UNL     1       7.583   7.387  17.623  0.00  0.00    +0.000 C 
ATOM     30  C   UNL     1       6.628   6.278  17.225  0.00  0.00    +0.000 C 
ENDBRANCH  28  30
ENDBRANCH  27  28
ENDBRANCH  26  27
ENDBRANCH  25  26
ENDBRANCH  24  25
ENDBRANCH  23  24
ENDBRANCH  21  23
ENDBRANCH  20  22
ENDBRANCH  19  20
ENDBRANCH  18  19
ENDBRANCH  17  18
ENDBRANCH   1  17
TORSDOF 20
ENDMDL
MODEL 9
REMARK VINA RESULT:      -5.4      6.745      8.798
REMARK  Name = 
REMARK  21 active torsions:
REMARK  status: ('A' for Active; 'I' for Inactive)
REMARK    1  A    between atoms: C_1  and  C_2
REMARK    2  A    between atoms: C_2  and  C_3
REMARK    3  A    between atoms: C_3  and  C_4
REMARK    4  A    between atoms: C_4  and  C_5
REMARK    5  A    between atoms: C_5  and  C_6
REMARK    6  A    between atoms: C_6  and  C_7
REMARK    7  A    between atoms: C_7  and  C_8
REMARK    8  A    between atoms: C_8  and  C_9
REMARK    9  A    between atoms: C_10  and  C_11
REMARK   10  A    between atoms: C_11  and  C_12
REMARK   11  A    between atoms: C_12  and  C_13
REMARK   12  A    between atoms: C_13  and  C_14
REMARK   13  A    between atoms: C_14  and  C_15
REMARK   14  A    between atoms: C_15  and  C_16
REMARK   15  A    between atoms: C_16  and  C_17
REMARK   16  A    between atoms: C_17  and  C_18
REMARK   17  A    between atoms: C_20  and  C_21
REMARK   18  A    between atoms: C_21  and  O_22
REMARK   19  A    between atoms: O_22  and  P_23
REMARK   20  A    between atoms: P_23  and  O_25
REMARK   21  A    between atoms: P_23  and  O_26
REMARK                            x       y       z     vdW  Elec       q    Type
REMARK                         _______ _______ _______ _____ _____    ______ ____
ROOT
ATOM      1  C   UNL     1       2.322   7.155  19.115  0.00  0.00    +0.000 C 
ENDROOT
BRANCH   1   2
ATOM      2  C   UNL     1       1.878   8.599  18.966  0.00  0.00    +0.000 C 
BRANCH   2   3
ATOM      3  C   UNL     1       1.134   9.067  20.210  0.00  0.00    +0.000 C 
BRANCH   3   4
ATOM      4  C   UNL     1      -0.109   9.878  19.873  0.00  0.00    +0.000 C 
ATOM      5  O   UNL     1       0.138  10.591  18.649  0.00  0.00    +0.000 OA
ATOM      6  C   UNL     1      -0.499  11.875  18.698  0.00  0.00    +0.000 C 
ATOM      7  C   UNL     1      -0.315  12.465  20.092  0.00  0.00    +0.000 C 
ATOM      8  S   UNL     1      -0.572  11.053  21.179  0.00  0.00    +0.000 S 
BRANCH   6   9
ATOM      9  C   UNL     1      -1.958  11.733  18.289  0.00  0.00    +0.000 C 
BRANCH   9  10
ATOM     10  O   UNL     1      -2.258  10.392  17.920  0.00  0.00    +0.000 OA
BRANCH  10  11
ATOM     11  P   UNL     1      -3.006  10.378  16.360  0.00  0.00    +0.000 P 
ATOM     12  O   UNL     1      -4.363  10.809  16.918  0.00  0.00    +0.000 OA
BRANCH  11  13
ATOM     13  O   UNL     1      -3.755  10.363  14.800  0.00  0.00    +0.000 OA
ATOM     14  H   UNL     1      -3.134  10.897  14.261  0.00  0.00    +0.000 HD
ENDBRANCH  11  13
BRANCH  11  15
ATOM     15  O   UNL     1      -2.222  11.766  16.051  0.00  0.00    +0.000 OA
ATOM     16  H   UNL     1      -1.450  11.798  16.650  0.00  0.00    +0.000 HD
ENDBRANCH  11  15
ENDBRANCH  10  11
ENDBRANCH   9  10
ENDBRANCH   6   9
ENDBRANCH   3   4
ENDBRANCH   2   3
ENDBRANCH   1   2
BRANCH   1  17
ATOM     17  C   UNL     1       1.979   6.688  20.521  0.00  0.00    +0.000 C 
BRANCH  17  18
ATOM     18  C   UNL     1       1.463   5.257  20.517  0.00  0.00    +0.000 C 
BRANCH  18  19
ATOM     19  C   UNL     1       2.268   4.371  21.468  0.00  0.00    +0.000 C 
BRANCH  19  20
ATOM     20  C   UNL     1       1.717   2.951  21.527  0.00  0.00    +0.000 C 
BRANCH  20  22
ATOM     21  C   UNL     1       3.074   2.390  19.534  0.00  0.00    +0.000 C 
ATOM     22  C   UNL     1       1.952   2.225  20.245  0.00  0.00    +0.000 C 
BRANCH  21  23
ATOM     23  C   UNL     1       3.338   1.671  18.265  0.00  0.00    +0.000 C 
BRANCH  23  24
ATOM     24  C   UNL     1       2.802   2.457  17.078  0.00  0.00    +0.000 C 
BRANCH  24  25
ATOM     25  C   UNL     1       3.048   3.936  17.262  0.00  0.00    +0.000 C 
BRANCH  25  26
ATOM     26  C   UNL     1       4.415   4.328  16.714  0.00  0.00    +0.000 C 
BRANCH  26  27
ATOM     27  C   UNL     1       4.610   5.840  16.803  0.00  0.00    +0.000 C 
BRANCH  27  28
ATOM     28  C   UNL     1       6.032   6.164  17.243  0.00  0.00    +0.000 C 
BRANCH  28  30
ATOM     29  C   UNL     1       7.859   4.640  18.026  0.00  0.00    +0.000 C 
ATOM     30  C   UNL     1       6.987   5.040  16.850  0.00  0.00    +0.000 C 
ENDBRANCH  28  30
ENDBRANCH  27  28
ENDBRANCH  26  27
ENDBRANCH  25  26
ENDBRANCH  24  25
ENDBRANCH  23  24
ENDBRANCH  21  23
ENDBRANCH  20  22
ENDBRANCH  19  20
ENDBRANCH  18  19
ENDBRANCH  17  18
ENDBRANCH   1  17
TORSDOF 20
ENDMDL
