MODEL 1
REMARK VINA RESULT:      -6.7      0.000      0.000
REMARK  Name = 
REMARK  15 active torsions:
REMARK  status: ('A' for Active; 'I' for Inactive)
REMARK    1  A    between atoms: C_1  and  C_2
REMARK    2  A    between atoms: C_3  and  C_4
REMARK    3  A    between atoms: C_4  and  O_6
REMARK    4  A    between atoms: O_6  and  C_7
REMARK    5  A    between atoms: C_7  and  C_8
REMARK    6  A    between atoms: C_10  and  O_11
REMARK    7  A    between atoms: O_11  and  C_12
REMARK    8  A    between atoms: C_15  and  C_16
REMARK    9  A    between atoms: C_17  and  C_18
REMARK   10  A    between atoms: C_18  and  O_19
REMARK   11  A    between atoms: O_19  and  C_20
REMARK   12  A    between atoms: C_20  and  C_22
REMARK   13  A    between atoms: C_23  and  C_24
REMARK   14  A    between atoms: C_26  and  O_27
REMARK   15  A    between atoms: O_27  and  C_28
REMARK                            x       y       z     vdW  Elec       q    Type
REMARK                         _______ _______ _______ _____ _____    ______ ____
ROOT
ATOM      1  C   UNL     1       0.530   9.605  21.572  0.00  0.00    +0.000 A 
ATOM      2  C   UNL     1       0.983   8.247  21.727  0.00  0.00    +0.000 A 
ATOM      3  C   UNL     1       1.633   7.542  20.719  0.00  0.00    +0.000 A 
ATOM      4  C   UNL     1       1.782   8.199  19.525  0.00  0.00    +0.000 A 
ATOM      5  C   UNL     1       1.278   9.483  19.324  0.00  0.00    +0.000 A 
ATOM      6  C   UNL     1       0.687  10.281  20.320  0.00  0.00    +0.000 A 
ATOM      7  O   UNL     1       1.417   9.832  18.006  0.00  0.00    +0.000 OA
ATOM      8  C   UNL     1       2.310   8.821  17.524  0.00  0.00    +0.000 C 
ATOM      9  O   UNL     1       2.395   7.705  18.410  0.00  0.00    +0.000 OA
ENDROOT
BRANCH   6  10
ATOM     10  C   UNL     1       0.334  11.734  20.072  0.00  0.00    +0.000 A 
ATOM     11  C   UNL     1      -0.844  12.196  19.398  0.00  0.00    +0.000 A 
ATOM     12  C   UNL     1      -0.958  13.564  18.997  0.00  0.00    +0.000 A 
ATOM     13  C   UNL     1       0.033  14.509  19.230  0.00  0.00    +0.000 A 
ATOM     14  C   UNL     1       1.120  14.079  19.952  0.00  0.00    +0.000 A 
ATOM     15  C   UNL     1       1.228  12.765  20.403  0.00  0.00    +0.000 A 
ATOM     16  O   UNL     1       2.353  12.623  21.180  0.00  0.00    +0.000 OA
ATOM     17  C   UNL     1       3.053  13.841  20.892  0.00  0.00    +0.000 C 
ATOM     18  O   UNL     1       2.213  14.826  20.285  0.00  0.00    +0.000 OA
BRANCH  13  19
ATOM     19  O   UNL     1      -0.225  15.744  18.720  0.00  0.00    +0.000 OA
ATOM     20  C   UNL     1      -0.732  16.725  19.613  0.00  0.00    +0.000 C 
ENDBRANCH  13  19
BRANCH  11  21
ATOM     21  C   UNL     1      -2.090  11.386  19.084  0.00  0.00    +0.000 C 
BRANCH  21  22
ATOM     22  O   UNL     1      -2.561  11.569  17.751  0.00  0.00    +0.000 OA
BRANCH  22  23
ATOM     23  C   UNL     1      -2.235  10.560  16.913  0.00  0.00    +0.000 C 
ATOM     24  O   UNL     1      -1.572   9.571  17.186  0.00  0.00    +0.000 OA
BRANCH  23  25
ATOM     25  C   UNL     1      -2.787  10.862  15.581  0.00  0.00    +0.000 C 
ATOM     26  C   UNL     1      -3.194   9.844  14.809  0.00  0.00    +0.000 C 
ATOM     27  C   UNL     1      -3.796   9.996  13.455  0.00  0.00    +0.000 C 
ENDBRANCH  23  25
ENDBRANCH  22  23
ENDBRANCH  21  22
ENDBRANCH  11  21
ENDBRANCH   6  10
BRANCH   3  28
ATOM     28  O   UNL     1       2.017   6.280  21.057  0.00  0.00    +0.000 OA
ATOM     29  C   UNL     1       1.292   5.205  20.473  0.00  0.00    +0.000 C 
ENDBRANCH   3  28
BRANCH   1  30
ATOM     30  C   UNL     1      -0.160  10.118  22.837  0.00  0.00    +0.000 C 
BRANCH  30  31
ATOM     31  O   UNL     1      -1.452  10.693  22.666  0.00  0.00    +0.000 OA
BRANCH  31  32
ATOM     32  C   UNL     1      -1.583  11.968  23.078  0.00  0.00    +0.000 C 
ATOM     33  O   UNL     1      -0.691  12.776  23.258  0.00  0.00    +0.000 OA
BRANCH  32  36
ATOM     34  C   UNL     1      -5.150  13.090  22.241  0.00  0.00    +0.000 C 
ATOM     35  C   UNL     1      -3.689  12.817  22.223  0.00  0.00    +0.000 C 
ATOM     36  C   UNL     1      -3.026  12.231  23.233  0.00  0.00    +0.000 C 
ENDBRANCH  32  36
ENDBRANCH  31  32
ENDBRANCH  30  31
ENDBRANCH   1  30
TORSDOF 11
ENDMDL
MODEL 2
REMARK VINA RESULT:      -6.6      0.633      6.884
REMARK  Name = 
REMARK  15 active torsions:
REMARK  status: ('A' for Active; 'I' for Inactive)
REMARK    1  A    between atoms: C_1  and  C_2
REMARK    2  A    between atoms: C_3  and  C_4
REMARK    3  A    between atoms: C_4  and  O_6
REMARK    4  A    between atoms: O_6  and  C_7
REMARK    5  A    between atoms: C_7  and  C_8
REMARK    6  A    between atoms: C_10  and  O_11
REMARK    7  A    between atoms: O_11  and  C_12
REMARK    8  A    between atoms: C_15  and  C_16
REMARK    9  A    between atoms: C_17  and  C_18
REMARK   10  A    between atoms: C_18  and  O_19
REMARK   11  A    between atoms: O_19  and  C_20
REMARK   12  A    between atoms: C_20  and  C_22
REMARK   13  A    between atoms: C_23  and  C_24
REMARK   14  A    between atoms: C_26  and  O_27
REMARK   15  A    between atoms: O_27  and  C_28
REMARK                            x       y       z     vdW  Elec       q    Type
REMARK                         _______ _______ _______ _____ _____    ______ ____
ROOT
ATOM      1  C   UNL     1      -0.854  12.458  19.154  0.00  0.00    +0.000 A 
ATOM      2  C   UNL     1      -0.907  13.863  18.846  0.00  0.00    +0.000 A 
ATOM      3  C   UNL     1       0.112  14.753  19.171  0.00  0.00    +0.000 A 
ATOM      4  C   UNL     1       1.173  14.227  19.860  0.00  0.00    +0.000 A 
ATOM      5  C   UNL     1       1.210  12.887  20.244  0.00  0.00    +0.000 A 
ATOM      6  C   UNL     1       0.258  11.919  19.878  0.00  0.00    +0.000 A 
ATOM      7  O   UNL     1       2.293  12.670  21.054  0.00  0.00    +0.000 OA
ATOM      8  C   UNL     1       3.054  13.868  20.862  0.00  0.00    +0.000 C 
ATOM      9  O   UNL     1       2.282  14.911  20.268  0.00  0.00    +0.000 OA
ENDROOT
BRANCH   6  10
ATOM     10  C   UNL     1       0.464  10.447  20.176  0.00  0.00    +0.000 A 
ATOM     11  C   UNL     1       0.092   9.789  21.394  0.00  0.00    +0.000 A 
ATOM     12  C   UNL     1       0.553   8.464  21.670  0.00  0.00    +0.000 A 
ATOM     13  C   UNL     1       1.366   7.747  20.802  0.00  0.00    +0.000 A 
ATOM     14  C   UNL     1       1.647   8.350  19.601  0.00  0.00    +0.000 A 
ATOM     15  C   UNL     1       1.162   9.617  19.284  0.00  0.00    +0.000 A 
ATOM     16  O   UNL     1       1.500   9.944  17.993  0.00  0.00    +0.000 OA
ATOM     17  C   UNL     1       2.475   8.936  17.690  0.00  0.00    +0.000 C 
ATOM     18  O   UNL     1       2.432   7.839  18.606  0.00  0.00    +0.000 OA
BRANCH  13  19
ATOM     19  O   UNL     1       1.758   6.527  21.264  0.00  0.00    +0.000 OA
ATOM     20  C   UNL     1       1.397   5.392  20.491  0.00  0.00    +0.000 C 
ENDBRANCH  13  19
BRANCH  11  21
ATOM     21  C   UNL     1      -0.834  10.326  22.473  0.00  0.00    +0.000 C 
BRANCH  21  22
ATOM     22  O   UNL     1      -0.307  11.462  23.154  0.00  0.00    +0.000 OA
BRANCH  22  23
ATOM     23  C   UNL     1      -1.076  12.568  23.046  0.00  0.00    +0.000 C 
ATOM     24  O   UNL     1      -0.732  13.719  23.266  0.00  0.00    +0.000 OA
BRANCH  23  25
ATOM     25  C   UNL     1      -2.433  12.156  22.648  0.00  0.00    +0.000 C 
ATOM     26  C   UNL     1      -3.223  13.052  22.039  0.00  0.00    +0.000 C 
ATOM     27  C   UNL     1      -4.604  12.775  21.556  0.00  0.00    +0.000 C 
ENDBRANCH  23  25
ENDBRANCH  22  23
ENDBRANCH  21  22
ENDBRANCH  11  21
ENDBRANCH   6  10
BRANCH   3  28
ATOM     28  O   UNL     1      -0.100  16.038  18.771  0.00  0.00    +0.000 OA
ATOM     29  C   UNL     1      -0.744  16.905  19.695  0.00  0.00    +0.000 C 
ENDBRANCH   3  28
BRANCH   1  30
ATOM     30  C   UNL     1      -2.116  11.729  18.692  0.00  0.00    +0.000 C 
BRANCH  30  31
ATOM     31  O   UNL     1      -1.979  10.881  17.555  0.00  0.00    +0.000 OA
BRANCH  31  32
ATOM     32  C   UNL     1      -3.117  10.611  16.888  0.00  0.00    +0.000 C 
ATOM     33  O   UNL     1      -4.250  10.630  17.332  0.00  0.00    +0.000 OA
BRANCH  32  36
ATOM     34  C   UNL     1      -3.474   9.848  13.150  0.00  0.00    +0.000 C 
ATOM     35  C   UNL     1      -3.720  10.098  14.595  0.00  0.00    +0.000 C 
ATOM     36  C   UNL     1      -2.745  10.327  15.489  0.00  0.00    +0.000 C 
ENDBRANCH  32  36
ENDBRANCH  31  32
ENDBRANCH  30  31
ENDBRANCH   1  30
TORSDOF 11
ENDMDL
MODEL 3
REMARK VINA RESULT:      -6.4      1.985      6.352
REMARK  Name = 
REMARK  15 active torsions:
REMARK  status: ('A' for Active; 'I' for Inactive)
REMARK    1  A    between atoms: C_1  and  C_2
REMARK    2  A    between atoms: C_3  and  C_4
REMARK    3  A    between atoms: C_4  and  O_6
REMARK    4  A    between atoms: O_6  and  C_7
REMARK    5  A    between atoms: C_7  and  C_8
REMARK    6  A    between atoms: C_10  and  O_11
REMARK    7  A    between atoms: O_11  and  C_12
REMARK    8  A    between atoms: C_15  and  C_16
REMARK    9  A    between atoms: C_17  and  C_18
REMARK   10  A    between atoms: C_18  and  O_19
REMARK   11  A    between atoms: O_19  and  C_20
REMARK   12  A    between atoms: C_20  and  C_22
REMARK   13  A    between atoms: C_23  and  C_24
REMARK   14  A    between atoms: C_26  and  O_27
REMARK   15  A    between atoms: O_27  and  C_28
REMARK                            x       y       z     vdW  Elec       q    Type
REMARK                         _______ _______ _______ _____ _____    ______ ____
ROOT
ATOM      1  C   UNL     1      -1.153  11.422  18.932  0.00  0.00    +0.000 A 
ATOM      2  C   UNL     1      -1.849  10.702  17.898  0.00  0.00    +0.000 A 
ATOM      3  C   UNL     1      -3.212  10.844  17.658  0.00  0.00    +0.000 A 
ATOM      4  C   UNL     1      -3.889  11.683  18.505  0.00  0.00    +0.000 A 
ATOM      5  C   UNL     1      -3.254  12.326  19.566  0.00  0.00    +0.000 A 
ATOM      6  C   UNL     1      -1.870  12.294  19.814  0.00  0.00    +0.000 A 
ATOM      7  O   UNL     1      -4.185  12.964  20.342  0.00  0.00    +0.000 OA
ATOM      8  C   UNL     1      -5.347  12.926  19.505  0.00  0.00    +0.000 C 
ATOM      9  O   UNL     1      -5.221  11.977  18.446  0.00  0.00    +0.000 OA
ENDROOT
BRANCH   6  10
ATOM     10  C   UNL     1      -1.230  13.168  20.874  0.00  0.00    +0.000 A 
ATOM     11  C   UNL     1      -1.214  12.887  22.280  0.00  0.00    +0.000 A 
ATOM     12  C   UNL     1      -0.808  13.892  23.213  0.00  0.00    +0.000 A 
ATOM     13  C   UNL     1      -0.411  15.167  22.832  0.00  0.00    +0.000 A 
ATOM     14  C   UNL     1      -0.347  15.400  21.480  0.00  0.00    +0.000 A 
ATOM     15  C   UNL     1      -0.682  14.420  20.549  0.00  0.00    +0.000 A 
ATOM     16  O   UNL     1      -0.436  14.872  19.275  0.00  0.00    +0.000 OA
ATOM     17  C   UNL     1      -0.242  16.275  19.504  0.00  0.00    +0.000 C 
ATOM     18  O   UNL     1       0.003  16.577  20.880  0.00  0.00    +0.000 OA
BRANCH  13  19
ATOM     19  O   UNL     1      -0.122  16.007  23.864  0.00  0.00    +0.000 OA
ATOM     20  C   UNL     1      -1.149  16.888  24.293  0.00  0.00    +0.000 C 
ENDBRANCH  13  19
BRANCH  11  21
ATOM     21  C   UNL     1      -1.537  11.561  22.947  0.00  0.00    +0.000 C 
BRANCH  21  22
ATOM     22  O   UNL     1      -1.198  10.431  22.148  0.00  0.00    +0.000 OA
BRANCH  22  23
ATOM     23  C   UNL     1      -0.269   9.625  22.709  0.00  0.00    +0.000 C 
ATOM     24  O   UNL     1       0.328   9.819  23.756  0.00  0.00    +0.000 OA
BRANCH  23  25
ATOM     25  C   UNL     1      -0.059   8.467  21.823  0.00  0.00    +0.000 C 
ATOM     26  C   UNL     1       1.197   8.082  21.556  0.00  0.00    +0.000 C 
ATOM     27  C   UNL     1       1.563   6.918  20.702  0.00  0.00    +0.000 C 
ENDBRANCH  23  25
ENDBRANCH  22  23
ENDBRANCH  21  22
ENDBRANCH  11  21
ENDBRANCH   6  10
BRANCH   3  28
ATOM     28  O   UNL     1      -3.691  10.107  16.617  0.00  0.00    +0.000 OA
ATOM     29  C   UNL     1      -3.570  10.669  15.317  0.00  0.00    +0.000 C 
ENDBRANCH   3  28
BRANCH   1  30
ATOM     30  C   UNL     1       0.332  11.059  18.974  0.00  0.00    +0.000 C 
BRANCH  30  31
ATOM     31  O   UNL     1       0.682   9.764  18.494  0.00  0.00    +0.000 OA
BRANCH  31  32
ATOM     32  C   UNL     1       1.885   9.669  17.895  0.00  0.00    +0.000 C 
ATOM     33  O   UNL     1       2.627  10.585  17.592  0.00  0.00    +0.000 OA
BRANCH  32  36
ATOM     34  C   UNL     1       3.856   6.400  17.559  0.00  0.00    +0.000 C 
ATOM     35  C   UNL     1       3.446   7.824  17.691  0.00  0.00    +0.000 C 
ATOM     36  C   UNL     1       2.168   8.233  17.710  0.00  0.00    +0.000 C 
ENDBRANCH  32  36
ENDBRANCH  31  32
ENDBRANCH  30  31
ENDBRANCH   1  30
TORSDOF 11
ENDMDL
MODEL 4
REMARK VINA RESULT:      -6.4      4.344      8.480
REMARK  Name = 
REMARK  15 active torsions:
REMARK  status: ('A' for Active; 'I' for Inactive)
REMARK    1  A    between atoms: C_1  and  C_2
REMARK    2  A    between atoms: C_3  and  C_4
REMARK    3  A    between atoms: C_4  and  O_6
REMARK    4  A    between atoms: O_6  and  C_7
REMARK    5  A    between atoms: C_7  and  C_8
REMARK    6  A    between atoms: C_10  and  O_11
REMARK    7  A    between atoms: O_11  and  C_12
REMARK    8  A    between atoms: C_15  and  C_16
REMARK    9  A    between atoms: C_17  and  C_18
REMARK   10  A    between atoms: C_18  and  O_19
REMARK   11  A    between atoms: O_19  and  C_20
REMARK   12  A    between atoms: C_20  and  C_22
REMARK   13  A    between atoms: C_23  and  C_24
REMARK   14  A    between atoms: C_26  and  O_27
REMARK   15  A    between atoms: O_27  and  C_28
REMARK                            x       y       z     vdW  Elec       q    Type
REMARK                         _______ _______ _______ _____ _____    ______ ____
ROOT
ATOM      1  C   UNL     1       4.599   4.647  19.490  0.00  0.00    +0.000 A 
ATOM      2  C   UNL     1       4.971   3.279  19.739  0.00  0.00    +0.000 A 
ATOM      3  C   UNL     1       4.076   2.218  19.644  0.00  0.00    +0.000 A 
ATOM      4  C   UNL     1       2.780   2.549  19.345  0.00  0.00    +0.000 A 
ATOM      5  C   UNL     1       2.377   3.873  19.182  0.00  0.00    +0.000 A 
ATOM      6  C   UNL     1       3.241   4.983  19.181  0.00  0.00    +0.000 A 
ATOM      7  O   UNL     1       1.014   3.929  19.056  0.00  0.00    +0.000 OA
ATOM      8  C   UNL     1       0.680   2.553  18.834  0.00  0.00    +0.000 C 
ATOM      9  O   UNL     1       1.744   1.672  19.193  0.00  0.00    +0.000 OA
ENDROOT
BRANCH   6  10
ATOM     10  C   UNL     1       2.756   6.370  18.812  0.00  0.00    +0.000 A 
ATOM     11  C   UNL     1       3.070   7.060  17.595  0.00  0.00    +0.000 A 
ATOM     12  C   UNL     1       2.772   8.452  17.455  0.00  0.00    +0.000 A 
ATOM     13  C   UNL     1       2.174   9.205  18.457  0.00  0.00    +0.000 A 
ATOM     14  C   UNL     1       1.799   8.518  19.586  0.00  0.00    +0.000 A 
ATOM     15  C   UNL     1       2.026   7.151  19.723  0.00  0.00    +0.000 A 
ATOM     16  O   UNL     1       1.468   6.693  20.893  0.00  0.00    +0.000 OA
ATOM     17  C   UNL     1       1.185   7.924  21.573  0.00  0.00    +0.000 C 
ATOM     18  O   UNL     1       1.211   9.053  20.697  0.00  0.00    +0.000 OA
BRANCH  13  19
ATOM     19  O   UNL     1       2.028  10.527  18.167  0.00  0.00    +0.000 OA
ATOM     20  C   UNL     1       0.788  11.133  18.500  0.00  0.00    +0.000 C 
ENDBRANCH  13  19
BRANCH  11  21
ATOM     21  C   UNL     1       3.663   6.456  16.333  0.00  0.00    +0.000 C 
BRANCH  21  22
ATOM     22  O   UNL     1       4.980   5.944  16.518  0.00  0.00    +0.000 OA
BRANCH  22  23
ATOM     23  C   UNL     1       5.173   4.724  15.970  0.00  0.00    +0.000 C 
ATOM     24  O   UNL     1       4.710   3.665  16.365  0.00  0.00    +0.000 OA
BRANCH  23  25
ATOM     25  C   UNL     1       6.078   4.868  14.817  0.00  0.00    +0.000 C 
ATOM     26  C   UNL     1       5.946   4.019  13.787  0.00  0.00    +0.000 C 
ATOM     27  C   UNL     1       6.767   4.059  12.546  0.00  0.00    +0.000 C 
ENDBRANCH  23  25
ENDBRANCH  22  23
ENDBRANCH  21  22
ENDBRANCH  11  21
ENDBRANCH   6  10
BRANCH   3  28
ATOM     28  O   UNL     1       4.615   0.990  19.884  0.00  0.00    +0.000 OA
ATOM     29  C   UNL     1       5.378   0.839  21.073  0.00  0.00    +0.000 C 
ENDBRANCH   3  28
BRANCH   1  30
ATOM     30  C   UNL     1       5.781   5.599  19.681  0.00  0.00    +0.000 C 
BRANCH  30  31
ATOM     31  O   UNL     1       7.081   5.019  19.613  0.00  0.00    +0.000 OA
BRANCH  31  32
ATOM     32  C   UNL     1       7.814   5.355  18.535  0.00  0.00    +0.000 C 
ATOM     33  O   UNL     1       8.127   4.633  17.607  0.00  0.00    +0.000 OA
BRANCH  32  36
ATOM     34  C   UNL     1       8.008   9.089  17.697  0.00  0.00    +0.000 C 
ATOM     35  C   UNL     1       7.779   7.620  17.667  0.00  0.00    +0.000 C 
ATOM     36  C   UNL     1       8.138   6.789  18.658  0.00  0.00    +0.000 C 
ENDBRANCH  32  36
ENDBRANCH  31  32
ENDBRANCH  30  31
ENDBRANCH   1  30
TORSDOF 11
ENDMDL
MODEL 5
REMARK VINA RESULT:      -6.4      1.298      1.660
REMARK  Name = 
REMARK  15 active torsions:
REMARK  status: ('A' for Active; 'I' for Inactive)
REMARK    1  A    between atoms: C_1  and  C_2
REMARK    2  A    between atoms: C_3  and  C_4
REMARK    3  A    between atoms: C_4  and  O_6
REMARK    4  A    between atoms: O_6  and  C_7
REMARK    5  A    between atoms: C_7  and  C_8
REMARK    6  A    between atoms: C_10  and  O_11
REMARK    7  A    between atoms: O_11  and  C_12
REMARK    8  A    between atoms: C_15  and  C_16
REMARK    9  A    between atoms: C_17  and  C_18
REMARK   10  A    between atoms: C_18  and  O_19
REMARK   11  A    between atoms: O_19  and  C_20
REMARK   12  A    between atoms: C_20  and  C_22
REMARK   13  A    between atoms: C_23  and  C_24
REMARK   14  A    between atoms: C_26  and  O_27
REMARK   15  A    between atoms: O_27  and  C_28
REMARK                            x       y       z     vdW  Elec       q    Type
REMARK                         _______ _______ _______ _____ _____    ______ ____
ROOT
ATOM      1  C   UNL     1       0.074   9.801  21.398  0.00  0.00    +0.000 A 
ATOM      2  C   UNL     1       0.452   8.435  21.650  0.00  0.00    +0.000 A 
ATOM      3  C   UNL     1       1.254   7.696  20.787  0.00  0.00    +0.000 A 
ATOM      4  C   UNL     1       1.635   8.327  19.631  0.00  0.00    +0.000 A 
ATOM      5  C   UNL     1       1.212   9.619  19.325  0.00  0.00    +0.000 A 
ATOM      6  C   UNL     1       0.474  10.450  20.186  0.00  0.00    +0.000 A 
ATOM      7  O   UNL     1       1.599   9.941  18.050  0.00  0.00    +0.000 OA
ATOM      8  C   UNL     1       2.535   8.899  17.751  0.00  0.00    +0.000 C 
ATOM      9  O   UNL     1       2.426   7.797  18.653  0.00  0.00    +0.000 OA
ENDROOT
BRANCH   6  10
ATOM     10  C   UNL     1       0.213  11.906  19.859  0.00  0.00    +0.000 A 
ATOM     11  C   UNL     1      -0.872  12.394  19.059  0.00  0.00    +0.000 A 
ATOM     12  C   UNL     1      -0.885  13.751  18.606  0.00  0.00    +0.000 A 
ATOM     13  C   UNL     1       0.122  14.660  18.904  0.00  0.00    +0.000 A 
ATOM     14  C   UNL     1       1.113  14.210  19.741  0.00  0.00    +0.000 A 
ATOM     15  C   UNL     1       1.118  12.910  20.243  0.00  0.00    +0.000 A 
ATOM     16  O   UNL     1       2.155  12.749  21.130  0.00  0.00    +0.000 OA
ATOM     17  C   UNL     1       2.935  13.925  20.873  0.00  0.00    +0.000 C 
ATOM     18  O   UNL     1       2.203  14.922  20.156  0.00  0.00    +0.000 OA
BRANCH  13  19
ATOM     19  O   UNL     1      -0.029  15.886  18.332  0.00  0.00    +0.000 OA
ATOM     20  C   UNL     1      -0.701  16.880  19.091  0.00  0.00    +0.000 C 
ENDBRANCH  13  19
BRANCH  11  21
ATOM     21  C   UNL     1      -2.118  11.626  18.651  0.00  0.00    +0.000 C 
BRANCH  21  22
ATOM     22  O   UNL     1      -2.366  11.660  17.247  0.00  0.00    +0.000 OA
BRANCH  22  23
ATOM     23  C   UNL     1      -3.609  11.255  16.903  0.00  0.00    +0.000 C 
ATOM     24  O   UNL     1      -3.958  10.815  15.819  0.00  0.00    +0.000 OA
BRANCH  23  25
ATOM     25  C   UNL     1      -4.504  11.466  18.054  0.00  0.00    +0.000 C 
ATOM     26  C   UNL     1      -5.808  11.186  17.914  0.00  0.00    +0.000 C 
ATOM     27  C   UNL     1      -6.825  11.322  18.992  0.00  0.00    +0.000 C 
ENDBRANCH  23  25
ENDBRANCH  22  23
ENDBRANCH  21  22
ENDBRANCH  11  21
ENDBRANCH   6  10
BRANCH   3  28
ATOM     28  O   UNL     1       1.534   6.430  21.206  0.00  0.00    +0.000 OA
ATOM     29  C   UNL     1       2.040   5.524  20.234  0.00  0.00    +0.000 C 
ENDBRANCH   3  28
BRANCH   1  30
ATOM     30  C   UNL     1      -0.820  10.355  22.510  0.00  0.00    +0.000 C 
BRANCH  30  31
ATOM     31  O   UNL     1      -0.407  11.582  23.104  0.00  0.00    +0.000 OA
BRANCH  31  32
ATOM     32  C   UNL     1      -1.305  12.584  23.059  0.00  0.00    +0.000 C 
ATOM     33  O   UNL     1      -1.100  13.739  22.737  0.00  0.00    +0.000 OA
BRANCH  32  36
ATOM     34  C   UNL     1      -4.830  12.318  24.540  0.00  0.00    +0.000 C 
ATOM     35  C   UNL     1      -3.467  12.764  24.145  0.00  0.00    +0.000 C 
ATOM     36  C   UNL     1      -2.613  12.012  23.432  0.00  0.00    +0.000 C 
ENDBRANCH  32  36
ENDBRANCH  31  32
ENDBRANCH  30  31
ENDBRANCH   1  30
TORSDOF 11
ENDMDL
MODEL 6
REMARK VINA RESULT:      -6.3      1.308      6.585
REMARK  Name = 
REMARK  15 active torsions:
REMARK  status: ('A' for Active; 'I' for Inactive)
REMARK    1  A    between atoms: C_1  and  C_2
REMARK    2  A    between atoms: C_3  and  C_4
REMARK    3  A    between atoms: C_4  and  O_6
REMARK    4  A    between atoms: O_6  and  C_7
REMARK    5  A    between atoms: C_7  and  C_8
REMARK    6  A    between atoms: C_10  and  O_11
REMARK    7  A    between atoms: O_11  and  C_12
REMARK    8  A    between atoms: C_15  and  C_16
REMARK    9  A    between atoms: C_17  and  C_18
REMARK   10  A    between atoms: C_18  and  O_19
REMARK   11  A    between atoms: O_19  and  C_20
REMARK   12  A    between atoms: C_20  and  C_22
REMARK   13  A    between atoms: C_23  and  C_24
REMARK   14  A    between atoms: C_26  and  O_27
REMARK   15  A    between atoms: O_27  and  C_28
REMARK                            x       y       z     vdW  Elec       q    Type
REMARK                         _______ _______ _______ _____ _____    ______ ____
ROOT
ATOM      1  C   UNL     1      -0.627  12.185  18.715  0.00  0.00    +0.000 A 
ATOM      2  C   UNL     1      -0.680  13.587  18.393  0.00  0.00    +0.000 A 
ATOM      3  C   UNL     1       0.247  14.512  18.864  0.00  0.00    +0.000 A 
ATOM      4  C   UNL     1       1.207  14.023  19.712  0.00  0.00    +0.000 A 
ATOM      5  C   UNL     1       1.229  12.686  20.106  0.00  0.00    +0.000 A 
ATOM      6  C   UNL     1       0.378  11.685  19.604  0.00  0.00    +0.000 A 
ATOM      7  O   UNL     1       2.182  12.506  21.074  0.00  0.00    +0.000 OA
ATOM      8  C   UNL     1       2.923  13.729  20.993  0.00  0.00    +0.000 C 
ATOM      9  O   UNL     1       2.216  14.745  20.281  0.00  0.00    +0.000 OA
ENDROOT
BRANCH   6  10
ATOM     10  C   UNL     1       0.585  10.222  19.939  0.00  0.00    +0.000 A 
ATOM     11  C   UNL     1       0.166   9.583  21.152  0.00  0.00    +0.000 A 
ATOM     12  C   UNL     1       0.628   8.268  21.474  0.00  0.00    +0.000 A 
ATOM     13  C   UNL     1       1.486   7.543  20.657  0.00  0.00    +0.000 A 
ATOM     14  C   UNL     1       1.813   8.126  19.458  0.00  0.00    +0.000 A 
ATOM     15  C   UNL     1       1.330   9.382  19.095  0.00  0.00    +0.000 A 
ATOM     16  O   UNL     1       1.722   9.688  17.814  0.00  0.00    +0.000 OA
ATOM     17  C   UNL     1       2.719   8.685  17.574  0.00  0.00    +0.000 C 
ATOM     18  O   UNL     1       2.646   7.605  18.508  0.00  0.00    +0.000 OA
BRANCH  13  19
ATOM     19  O   UNL     1       1.868   6.337  21.159  0.00  0.00    +0.000 OA
ATOM     20  C   UNL     1       1.594   5.188  20.372  0.00  0.00    +0.000 C 
ENDBRANCH  13  19
BRANCH  11  21
ATOM     21  C   UNL     1      -0.812  10.130  22.179  0.00  0.00    +0.000 C 
BRANCH  21  22
ATOM     22  O   UNL     1      -0.249  11.142  23.009  0.00  0.00    +0.000 OA
BRANCH  22  23
ATOM     23  C   UNL     1      -0.906  12.322  22.954  0.00  0.00    +0.000 C 
ATOM     24  O   UNL     1      -0.436  13.430  23.160  0.00  0.00    +0.000 OA
BRANCH  23  25
ATOM     25  C   UNL     1      -2.318  12.054  22.631  0.00  0.00    +0.000 C 
ATOM     26  C   UNL     1      -3.152  13.094  22.486  0.00  0.00    +0.000 C 
ATOM     27  C   UNL     1      -4.595  12.981  22.135  0.00  0.00    +0.000 C 
ENDBRANCH  23  25
ENDBRANCH  22  23
ENDBRANCH  21  22
ENDBRANCH  11  21
ENDBRANCH   6  10
BRANCH   3  28
ATOM     28  O   UNL     1       0.056  15.788  18.429  0.00  0.00    +0.000 OA
ATOM     29  C   UNL     1      -0.699  16.652  19.268  0.00  0.00    +0.000 C 
ENDBRANCH   3  28
BRANCH   1  30
ATOM     30  C   UNL     1      -1.778  11.412  18.068  0.00  0.00    +0.000 C 
BRANCH  30  31
ATOM     31  O   UNL     1      -3.044  12.064  18.042  0.00  0.00    +0.000 OA
BRANCH  31  32
ATOM     32  C   UNL     1      -4.100  11.276  17.764  0.00  0.00    +0.000 C 
ATOM     33  O   UNL     1      -4.168  10.418  16.903  0.00  0.00    +0.000 OA
BRANCH  32  36
ATOM     34  C   UNL     1      -7.324  10.993  19.815  0.00  0.00    +0.000 C 
ATOM     35  C   UNL     1      -6.217  10.789  18.845  0.00  0.00    +0.000 C 
ATOM     36  C   UNL     1      -5.162  11.611  18.732  0.00  0.00    +0.000 C 
ENDBRANCH  32  36
ENDBRANCH  31  32
ENDBRANCH  30  31
ENDBRANCH   1  30
TORSDOF 11
ENDMDL
MODEL 7
REMARK VINA RESULT:      -6.3      2.266      4.330
REMARK  Name = 
REMARK  15 active torsions:
REMARK  status: ('A' for Active; 'I' for Inactive)
REMARK    1  A    between atoms: C_1  and  C_2
REMARK    2  A    between atoms: C_3  and  C_4
REMARK    3  A    between atoms: C_4  and  O_6
REMARK    4  A    between atoms: O_6  and  C_7
REMARK    5  A    between atoms: C_7  and  C_8
REMARK    6  A    between atoms: C_10  and  O_11
REMARK    7  A    between atoms: O_11  and  C_12
REMARK    8  A    between atoms: C_15  and  C_16
REMARK    9  A    between atoms: C_17  and  C_18
REMARK   10  A    between atoms: C_18  and  O_19
REMARK   11  A    between atoms: O_19  and  C_20
REMARK   12  A    between atoms: C_20  and  C_22
REMARK   13  A    between atoms: C_23  and  C_24
REMARK   14  A    between atoms: C_26  and  O_27
REMARK   15  A    between atoms: O_27  and  C_28
REMARK                            x       y       z     vdW  Elec       q    Type
REMARK                         _______ _______ _______ _____ _____    ______ ____
ROOT
ATOM      1  C   UNL     1       0.052  12.245  19.556  0.00  0.00    +0.000 A 
ATOM      2  C   UNL     1       0.678  11.034  19.093  0.00  0.00    +0.000 A 
ATOM      3  C   UNL     1       0.824   9.901  19.887  0.00  0.00    +0.000 A 
ATOM      4  C   UNL     1       0.380  10.011  21.179  0.00  0.00    +0.000 A 
ATOM      5  C   UNL     1      -0.153  11.200  21.676  0.00  0.00    +0.000 A 
ATOM      6  C   UNL     1      -0.406  12.351  20.909  0.00  0.00    +0.000 A 
ATOM      7  O   UNL     1      -0.361  11.083  23.025  0.00  0.00    +0.000 OA
ATOM      8  C   UNL     1      -0.223   9.672  23.227  0.00  0.00    +0.000 C 
ATOM      9  O   UNL     1       0.414   9.026  22.125  0.00  0.00    +0.000 OA
ENDROOT
BRANCH   6  10
ATOM     10  C   UNL     1      -1.158  13.537  21.476  0.00  0.00    +0.000 A 
ATOM     11  C   UNL     1      -2.562  13.782  21.315  0.00  0.00    +0.000 A 
ATOM     12  C   UNL     1      -3.121  15.048  21.673  0.00  0.00    +0.000 A 
ATOM     13  C   UNL     1      -2.366  16.094  22.188  0.00  0.00    +0.000 A 
ATOM     14  C   UNL     1      -1.039  15.824  22.419  0.00  0.00    +0.000 A 
ATOM     15  C   UNL     1      -0.483  14.579  22.133  0.00  0.00    +0.000 A 
ATOM     16  O   UNL     1       0.826  14.538  22.549  0.00  0.00    +0.000 OA
ATOM     17  C   UNL     1       1.087  15.926  22.801  0.00  0.00    +0.000 C 
ATOM     18  O   UNL     1      -0.111  16.699  22.906  0.00  0.00    +0.000 OA
BRANCH  13  19
ATOM     19  O   UNL     1      -3.059  17.244  22.408  0.00  0.00    +0.000 OA
ATOM     20  C   UNL     1      -3.871  17.302  23.572  0.00  0.00    +0.000 C 
ENDBRANCH  13  19
BRANCH  11  21
ATOM     21  C   UNL     1      -3.610  12.790  20.838  0.00  0.00    +0.000 C 
BRANCH  21  22
ATOM     22  O   UNL     1      -3.496  12.473  19.453  0.00  0.00    +0.000 OA
BRANCH  22  23
ATOM     23  C   UNL     1      -4.609  11.914  18.928  0.00  0.00    +0.000 C 
ATOM     24  O   UNL     1      -5.763  12.140  19.255  0.00  0.00    +0.000 OA
BRANCH  23  25
ATOM     25  C   UNL     1      -4.201  10.941  17.899  0.00  0.00    +0.000 C 
ATOM     26  C   UNL     1      -2.892  10.736  17.692  0.00  0.00    +0.000 C 
ATOM     27  C   UNL     1      -2.331   9.769  16.709  0.00  0.00    +0.000 C 
ENDBRANCH  23  25
ENDBRANCH  22  23
ENDBRANCH  21  22
ENDBRANCH  11  21
ENDBRANCH   6  10
BRANCH   3  28
ATOM     28  O   UNL     1       1.411   8.839  19.269  0.00  0.00    +0.000 OA
ATOM     29  C   UNL     1       1.887   9.042  17.945  0.00  0.00    +0.000 C 
ENDBRANCH   3  28
BRANCH   1  30
ATOM     30  C   UNL     1       0.042  13.326  18.474  0.00  0.00    +0.000 C 
BRANCH  30  31
ATOM     31  O   UNL     1       1.223  14.115  18.354  0.00  0.00    +0.000 OA
BRANCH  31  32
ATOM     32  C   UNL     1       1.160  15.345  18.899  0.00  0.00    +0.000 C 
ATOM     33  O   UNL     1       2.069  15.962  19.423  0.00  0.00    +0.000 OA
BRANCH  32  36
ATOM     34  C   UNL     1      -1.837  17.732  18.847  0.00  0.00    +0.000 C 
ATOM     35  C   UNL     1      -0.502  17.107  19.039  0.00  0.00    +0.000 C 
ATOM     36  C   UNL     1      -0.216  15.838  18.705  0.00  0.00    +0.000 C 
ENDBRANCH  32  36
ENDBRANCH  31  32
ENDBRANCH  30  31
ENDBRANCH   1  30
TORSDOF 11
ENDMDL
MODEL 8
REMARK VINA RESULT:      -6.3      1.133      6.942
REMARK  Name = 
REMARK  15 active torsions:
REMARK  status: ('A' for Active; 'I' for Inactive)
REMARK    1  A    between atoms: C_1  and  C_2
REMARK    2  A    between atoms: C_3  and  C_4
REMARK    3  A    between atoms: C_4  and  O_6
REMARK    4  A    between atoms: O_6  and  C_7
REMARK    5  A    between atoms: C_7  and  C_8
REMARK    6  A    between atoms: C_10  and  O_11
REMARK    7  A    between atoms: O_11  and  C_12
REMARK    8  A    between atoms: C_15  and  C_16
REMARK    9  A    between atoms: C_17  and  C_18
REMARK   10  A    between atoms: C_18  and  O_19
REMARK   11  A    between atoms: O_19  and  C_20
REMARK   12  A    between atoms: C_20  and  C_22
REMARK   13  A    between atoms: C_23  and  C_24
REMARK   14  A    between atoms: C_26  and  O_27
REMARK   15  A    between atoms: O_27  and  C_28
REMARK                            x       y       z     vdW  Elec       q    Type
REMARK                         _______ _______ _______ _____ _____    ______ ____
ROOT
ATOM      1  C   UNL     1      -0.908  12.945  19.826  0.00  0.00    +0.000 A 
ATOM      2  C   UNL     1      -0.944  14.363  19.582  0.00  0.00    +0.000 A 
ATOM      3  C   UNL     1       0.149  15.199  19.786  0.00  0.00    +0.000 A 
ATOM      4  C   UNL     1       1.276  14.603  20.291  0.00  0.00    +0.000 A 
ATOM      5  C   UNL     1       1.310  13.248  20.615  0.00  0.00    +0.000 A 
ATOM      6  C   UNL     1       0.273  12.333  20.357  0.00  0.00    +0.000 A 
ATOM      7  O   UNL     1       2.489  12.954  21.248  0.00  0.00    +0.000 OA
ATOM      8  C   UNL     1       3.265  14.130  20.990  0.00  0.00    +0.000 C 
ATOM      9  O   UNL     1       2.461  15.227  20.557  0.00  0.00    +0.000 OA
ENDROOT
BRANCH   6  10
ATOM     10  C   UNL     1       0.455  10.843  20.566  0.00  0.00    +0.000 A 
ATOM     11  C   UNL     1       0.242  10.148  21.802  0.00  0.00    +0.000 A 
ATOM     12  C   UNL     1       0.680   8.795  21.956  0.00  0.00    +0.000 A 
ATOM     13  C   UNL     1       1.320   8.085  20.948  0.00  0.00    +0.000 A 
ATOM     14  C   UNL     1       1.443   8.728  19.741  0.00  0.00    +0.000 A 
ATOM     15  C   UNL     1       0.972  10.025  19.548  0.00  0.00    +0.000 A 
ATOM     16  O   UNL     1       1.127  10.394  18.234  0.00  0.00    +0.000 OA
ATOM     17  C   UNL     1       1.998   9.363  17.749  0.00  0.00    +0.000 C 
ATOM     18  O   UNL     1       2.044   8.231  18.620  0.00  0.00    +0.000 OA
BRANCH  13  19
ATOM     19  O   UNL     1       1.722   6.833  21.300  0.00  0.00    +0.000 OA
ATOM     20  C   UNL     1       1.823   5.867  20.264  0.00  0.00    +0.000 C 
ENDBRANCH  13  19
BRANCH  11  21
ATOM     21  C   UNL     1      -0.485  10.673  23.028  0.00  0.00    +0.000 C 
BRANCH  21  22
ATOM     22  O   UNL     1      -1.900  10.730  22.863  0.00  0.00    +0.000 OA
BRANCH  22  23
ATOM     23  C   UNL     1      -2.452  11.890  23.282  0.00  0.00    +0.000 C 
ATOM     24  O   UNL     1      -3.633  12.092  23.518  0.00  0.00    +0.000 OA
BRANCH  23  25
ATOM     25  C   UNL     1      -1.389  12.905  23.378  0.00  0.00    +0.000 C 
ATOM     26  C   UNL     1      -1.727  14.200  23.294  0.00  0.00    +0.000 C 
ATOM     27  C   UNL     1      -0.769  15.334  23.401  0.00  0.00    +0.000 C 
ENDBRANCH  23  25
ENDBRANCH  22  23
ENDBRANCH  21  22
ENDBRANCH  11  21
ENDBRANCH   6  10
BRANCH   3  28
ATOM     28  O   UNL     1      -0.062  16.507  19.471  0.00  0.00    +0.000 OA
ATOM     29  C   UNL     1       0.524  16.985  18.267  0.00  0.00    +0.000 C 
ENDBRANCH   3  28
BRANCH   1  30
ATOM     30  C   UNL     1      -2.255  12.284  19.528  0.00  0.00    +0.000 C 
BRANCH  30  31
ATOM     31  O   UNL     1      -2.591  12.119  18.154  0.00  0.00    +0.000 OA
BRANCH  31  32
ATOM     32  C   UNL     1      -2.394  10.886  17.650  0.00  0.00    +0.000 C 
ATOM     33  O   UNL     1      -2.207   9.859  18.275  0.00  0.00    +0.000 OA
BRANCH  32  36
ATOM     34  C   UNL     1      -3.156   9.954  14.012  0.00  0.00    +0.000 C 
ATOM     35  C   UNL     1      -2.966   9.948  15.487  0.00  0.00    +0.000 C 
ATOM     36  C   UNL     1      -2.492  10.994  16.182  0.00  0.00    +0.000 C 
ENDBRANCH  32  36
ENDBRANCH  31  32
ENDBRANCH  30  31
ENDBRANCH   1  30
TORSDOF 11
ENDMDL
MODEL 9
REMARK VINA RESULT:      -6.3      4.181     10.325
REMARK  Name = 
REMARK  15 active torsions:
REMARK  status: ('A' for Active; 'I' for Inactive)
REMARK    1  A    between atoms: C_1  and  C_2
REMARK    2  A    between atoms: C_3  and  C_4
REMARK    3  A    between atoms: C_4  and  O_6
REMARK    4  A    between atoms: O_6  and  C_7
REMARK    5  A    between atoms: C_7  and  C_8
REMARK    6  A    between atoms: C_10  and  O_11
REMARK    7  A    between atoms: O_11  and  C_12
REMARK    8  A    between atoms: C_15  and  C_16
REMARK    9  A    between atoms: C_17  and  C_18
REMARK   10  A    between atoms: C_18  and  O_19
REMARK   11  A    between atoms: O_19  and  C_20
REMARK   12  A    between atoms: C_20  and  C_22
REMARK   13  A    between atoms: C_23  and  C_24
REMARK   14  A    between atoms: C_26  and  O_27
REMARK   15  A    between atoms: O_27  and  C_28
REMARK                            x       y       z     vdW  Elec       q    Type
REMARK                         _______ _______ _______ _____ _____    ______ ____
ROOT
ATOM      1  C   UNL     1       2.793   7.253  17.776  0.00  0.00    +0.000 A 
ATOM      2  C   UNL     1       2.326   8.594  17.536  0.00  0.00    +0.000 A 
ATOM      3  C   UNL     1       1.720   9.375  18.515  0.00  0.00    +0.000 A 
ATOM      4  C   UNL     1       1.536   8.776  19.734  0.00  0.00    +0.000 A 
ATOM      5  C   UNL     1       1.903   7.451  19.966  0.00  0.00    +0.000 A 
ATOM      6  C   UNL     1       2.593   6.635  19.052  0.00  0.00    +0.000 A 
ATOM      7  O   UNL     1       1.461   7.060  21.203  0.00  0.00    +0.000 OA
ATOM      8  C   UNL     1       1.103   8.311  21.800  0.00  0.00    +0.000 C 
ATOM      9  O   UNL     1       0.975   9.356  20.836  0.00  0.00    +0.000 OA
ENDROOT
BRANCH   6  10
ATOM     10  C   UNL     1       3.122   5.270  19.443  0.00  0.00    +0.000 A 
ATOM     11  C   UNL     1       4.508   4.919  19.554  0.00  0.00    +0.000 A 
ATOM     12  C   UNL     1       4.899   3.550  19.684  0.00  0.00    +0.000 A 
ATOM     13  C   UNL     1       3.990   2.500  19.712  0.00  0.00    +0.000 A 
ATOM     14  C   UNL     1       2.662   2.850  19.692  0.00  0.00    +0.000 A 
ATOM     15  C   UNL     1       2.255   4.180  19.625  0.00  0.00    +0.000 A 
ATOM     16  O   UNL     1       0.886   4.262  19.721  0.00  0.00    +0.000 OA
ATOM     17  C   UNL     1       0.506   2.892  19.528  0.00  0.00    +0.000 C 
ATOM     18  O   UNL     1       1.601   1.990  19.699  0.00  0.00    +0.000 OA
BRANCH  13  19
ATOM     19  O   UNL     1       4.552   1.261  19.775  0.00  0.00    +0.000 OA
ATOM     20  C   UNL     1       5.284   0.937  20.947  0.00  0.00    +0.000 C 
ENDBRANCH  13  19
BRANCH  11  21
ATOM     21  C   UNL     1       5.687   5.876  19.614  0.00  0.00    +0.000 C 
BRANCH  21  22
ATOM     22  O   UNL     1       6.946   5.213  19.698  0.00  0.00    +0.000 OA
BRANCH  22  23
ATOM     23  C   UNL     1       7.760   5.453  18.646  0.00  0.00    +0.000 C 
ATOM     24  O   UNL     1       8.117   4.648  17.801  0.00  0.00    +0.000 OA
BRANCH  23  25
ATOM     25  C   UNL     1       8.187   6.862  18.699  0.00  0.00    +0.000 C 
ATOM     26  C   UNL     1       7.775   7.695  17.732  0.00  0.00    +0.000 C 
ATOM     27  C   UNL     1       8.102   9.146  17.667  0.00  0.00    +0.000 C 
ENDBRANCH  23  25
ENDBRANCH  22  23
ENDBRANCH  21  22
ENDBRANCH  11  21
ENDBRANCH   6  10
BRANCH   3  28
ATOM     28  O   UNL     1       1.373  10.629  18.115  0.00  0.00    +0.000 OA
ATOM     29  C   UNL     1       2.206  11.699  18.543  0.00  0.00    +0.000 C 
ENDBRANCH   3  28
BRANCH   1  30
ATOM     30  C   UNL     1       3.404   6.634  16.517  0.00  0.00    +0.000 C 
BRANCH  30  31
ATOM     31  O   UNL     1       4.793   6.322  16.574  0.00  0.00    +0.000 OA
BRANCH  31  32
ATOM     32  C   UNL     1       5.150   5.146  16.023  0.00  0.00    +0.000 C 
ATOM     33  O   UNL     1       4.647   4.057  16.230  0.00  0.00    +0.000 OA
BRANCH  32  36
ATOM     34  C   UNL     1       7.474   4.784  12.998  0.00  0.00    +0.000 C 
ATOM     35  C   UNL     1       6.436   4.586  14.044  0.00  0.00    +0.000 C 
ATOM     36  C   UNL     1       6.246   5.423  15.075  0.00  0.00    +0.000 C 
ENDBRANCH  32  36
ENDBRANCH  31  32
ENDBRANCH  30  31
ENDBRANCH   1  30
TORSDOF 11
ENDMDL
