MODEL 1
REMARK VINA RESULT:      -6.8      0.000      0.000
REMARK  Name = 
REMARK  10 active torsions:
REMARK  status: ('A' for Active; 'I' for Inactive)
REMARK    1  A    between atoms: C_1  and  C_2
REMARK    2  A    between atoms: C_2  and  C_3
REMARK    3  A    between atoms: C_3  and  C_4
REMARK    4  A    between atoms: C_4  and  C_5
REMARK    5  A    between atoms: C_5  and  C_6
REMARK    6  A    between atoms: C_6  and  O_7
REMARK    7  A    between atoms: O_7  and  C_8
REMARK    8  A    between atoms: C_8  and  C_10
REMARK    9  A    between atoms: N_12  and  C_13
REMARK   10  A    between atoms: C_17  and  C_18
REMARK                            x       y       z     vdW  Elec       q    Type
REMARK                         _______ _______ _______ _____ _____    ______ ____
ROOT
ATOM      1  C   UNL     1       4.522   3.220  18.148  0.00  0.00    +0.000 C 
ATOM      2  O   UNL     1       3.763   3.255  17.179  0.00  0.00    +0.000 OA
ATOM      3  N   UNL     1       5.817   3.727  18.157  0.00  0.00    +0.000 N 
ATOM      4  H   UNL     1       6.394   3.636  18.997  0.00  0.00    +0.000 HD
ENDROOT
BRANCH   3   5
ATOM      5  C   UNL     1       6.355   4.327  17.026  0.00  0.00    +0.000 A 
ATOM      6  N   UNL     1       6.279   3.755  15.781  0.00  0.00    +0.000 N 
ATOM      7  C   UNL     1       6.868   4.589  14.882  0.00  0.00    +0.000 A 
ATOM      8  N   UNL     1       7.359   5.653  15.470  0.00  0.00    +0.000 NA
ATOM      9  C   UNL     1       7.045   5.508  16.824  0.00  0.00    +0.000 A 
ATOM     10  H   UNL     1       5.850   2.856  15.587  0.00  0.00    +0.000 HD
BRANCH   9  11
ATOM     11  C   UNL     1       7.439   6.505  17.815  0.00  0.00    +0.000 C 
ATOM     12  N   UNL     1       7.512   7.769  17.307  0.00  0.00    +0.000 N 
ATOM     13  O   UNL     1       7.696   6.247  18.987  0.00  0.00    +0.000 OA
ATOM     14  H   UNL     1       7.323   7.910  16.319  0.00  0.00    +0.000 HD
ATOM     15  H   UNL     1       7.808   8.537  17.889  0.00  0.00    +0.000 HD
ENDBRANCH   9  11
ENDBRANCH   3   5
BRANCH   1  16
ATOM     16  C   UNL     1       4.081   2.523  19.447  0.00  0.00    +0.000 C 
ATOM     17  O   UNL     1       4.839   2.316  20.377  0.00  0.00    +0.000 OA
BRANCH  16  18
ATOM     18  O   UNL     1       2.817   2.068  19.290  0.00  0.00    +0.000 OA
BRANCH  18  19
ATOM     19  C   UNL     1       1.845   2.625  20.178  0.00  0.00    +0.000 C 
BRANCH  19  20
ATOM     20  C   UNL     1       1.283   3.938  19.652  0.00  0.00    +0.000 C 
BRANCH  20  21
ATOM     21  C   UNL     1       1.664   5.080  20.600  0.00  0.00    +0.000 C 
BRANCH  21  22
ATOM     22  C   UNL     1       2.641   6.068  19.964  0.00  0.00    +0.000 C 
BRANCH  22  24
ATOM     23  C   UNL     1       3.583   6.807  17.741  0.00  0.00    +0.000 C 
ATOM     24  C   UNL     1       2.392   6.193  18.459  0.00  0.00    +0.000 C 
ENDBRANCH  22  24
ENDBRANCH  21  22
ENDBRANCH  20  21
ENDBRANCH  19  20
ENDBRANCH  18  19
ENDBRANCH  16  18
ENDBRANCH   1  16
TORSDOF 9
ENDMDL
MODEL 2
REMARK VINA RESULT:      -6.7      3.237      6.641
REMARK  Name = 
REMARK  10 active torsions:
REMARK  status: ('A' for Active; 'I' for Inactive)
REMARK    1  A    between atoms: C_1  and  C_2
REMARK    2  A    between atoms: C_2  and  C_3
REMARK    3  A    between atoms: C_3  and  C_4
REMARK    4  A    between atoms: C_4  and  C_5
REMARK    5  A    between atoms: C_5  and  C_6
REMARK    6  A    between atoms: C_6  and  O_7
REMARK    7  A    between atoms: O_7  and  C_8
REMARK    8  A    between atoms: C_8  and  C_10
REMARK    9  A    between atoms: N_12  and  C_13
REMARK   10  A    between atoms: C_17  and  C_18
REMARK                            x       y       z     vdW  Elec       q    Type
REMARK                         _______ _______ _______ _____ _____    ______ ____
ROOT
ATOM      1  C   UNL     1       5.385   5.022  17.106  0.00  0.00    +0.000 C 
ATOM      2  O   UNL     1       5.843   5.550  18.120  0.00  0.00    +0.000 OA
ATOM      3  N   UNL     1       4.541   3.917  17.102  0.00  0.00    +0.000 N 
ATOM      4  H   UNL     1       4.224   3.521  16.215  0.00  0.00    +0.000 HD
ENDROOT
BRANCH   3   5
ATOM      5  C   UNL     1       4.147   3.318  18.291  0.00  0.00    +0.000 A 
ATOM      6  N   UNL     1       5.047   2.852  19.216  0.00  0.00    +0.000 N 
ATOM      7  C   UNL     1       4.360   2.348  20.277  0.00  0.00    +0.000 A 
ATOM      8  N   UNL     1       3.066   2.420  20.084  0.00  0.00    +0.000 NA
ATOM      9  C   UNL     1       2.909   3.030  18.837  0.00  0.00    +0.000 A 
ATOM     10  H   UNL     1       6.055   2.888  19.106  0.00  0.00    +0.000 HD
BRANCH   9  11
ATOM     11  C   UNL     1       1.590   3.278  18.264  0.00  0.00    +0.000 C 
ATOM     12  N   UNL     1       0.619   2.466  18.774  0.00  0.00    +0.000 N 
ATOM     13  O   UNL     1       1.363   4.119  17.399  0.00  0.00    +0.000 OA
ATOM     14  H   UNL     1       0.881   1.765  19.461  0.00  0.00    +0.000 HD
ATOM     15  H   UNL     1      -0.326   2.522  18.430  0.00  0.00    +0.000 HD
ENDBRANCH   9  11
ENDBRANCH   3   5
BRANCH   1  16
ATOM     16  C   UNL     1       5.793   5.540  15.717  0.00  0.00    +0.000 C 
ATOM     17  O   UNL     1       5.242   6.479  15.172  0.00  0.00    +0.000 OA
BRANCH  16  18
ATOM     18  O   UNL     1       6.709   4.697  15.188  0.00  0.00    +0.000 OA
BRANCH  18  19
ATOM     19  C   UNL     1       6.193   3.699  14.304  0.00  0.00    +0.000 C 
BRANCH  19  20
ATOM     20  C   UNL     1       6.532   4.000  12.851  0.00  0.00    +0.000 C 
BRANCH  20  21
ATOM     21  C   UNL     1       5.675   3.127  11.928  0.00  0.00    +0.000 C 
BRANCH  21  22
ATOM     22  C   UNL     1       4.242   3.640  11.801  0.00  0.00    +0.000 C 
BRANCH  22  24
ATOM     23  C   UNL     1       3.010   4.114   9.649  0.00  0.00    +0.000 C 
ATOM     24  C   UNL     1       3.551   3.037  10.575  0.00  0.00    +0.000 C 
ENDBRANCH  22  24
ENDBRANCH  21  22
ENDBRANCH  20  21
ENDBRANCH  19  20
ENDBRANCH  18  19
ENDBRANCH  16  18
ENDBRANCH   1  16
TORSDOF 9
ENDMDL
MODEL 3
REMARK VINA RESULT:      -6.6      2.347      6.184
REMARK  Name = 
REMARK  10 active torsions:
REMARK  status: ('A' for Active; 'I' for Inactive)
REMARK    1  A    between atoms: C_1  and  C_2
REMARK    2  A    between atoms: C_2  and  C_3
REMARK    3  A    between atoms: C_3  and  C_4
REMARK    4  A    between atoms: C_4  and  C_5
REMARK    5  A    between atoms: C_5  and  C_6
REMARK    6  A    between atoms: C_6  and  O_7
REMARK    7  A    between atoms: O_7  and  C_8
REMARK    8  A    between atoms: C_8  and  C_10
REMARK    9  A    between atoms: N_12  and  C_13
REMARK   10  A    between atoms: C_17  and  C_18
REMARK                            x       y       z     vdW  Elec       q    Type
REMARK                         _______ _______ _______ _____ _____    ______ ____
ROOT
ATOM      1  C   UNL     1       6.331   5.410  18.783  0.00  0.00    +0.000 C 
ATOM      2  O   UNL     1       6.760   5.200  19.919  0.00  0.00    +0.000 OA
ATOM      3  N   UNL     1       5.001   5.270  18.402  0.00  0.00    +0.000 N 
ATOM      4  H   UNL     1       4.728   5.439  17.432  0.00  0.00    +0.000 HD
ENDROOT
BRANCH   3   5
ATOM      5  C   UNL     1       4.036   4.870  19.318  0.00  0.00    +0.000 A 
ATOM      6  N   UNL     1       3.186   5.757  19.929  0.00  0.00    +0.000 N 
ATOM      7  C   UNL     1       2.346   5.064  20.744  0.00  0.00    +0.000 A 
ATOM      8  N   UNL     1       2.621   3.782  20.733  0.00  0.00    +0.000 NA
ATOM      9  C   UNL     1       3.685   3.638  19.838  0.00  0.00    +0.000 A 
ATOM     10  H   UNL     1       3.200   6.761  19.782  0.00  0.00    +0.000 HD
BRANCH   9  11
ATOM     11  C   UNL     1       4.284   2.336  19.562  0.00  0.00    +0.000 C 
ATOM     12  N   UNL     1       3.860   1.786  18.387  0.00  0.00    +0.000 N 
ATOM     13  O   UNL     1       5.080   1.773  20.307  0.00  0.00    +0.000 OA
ATOM     14  H   UNL     1       3.171   2.288  17.834  0.00  0.00    +0.000 HD
ATOM     15  H   UNL     1       4.179   0.873  18.107  0.00  0.00    +0.000 HD
ENDBRANCH   9  11
ENDBRANCH   3   5
BRANCH   1  16
ATOM     16  C   UNL     1       7.300   5.794  17.653  0.00  0.00    +0.000 C 
ATOM     17  O   UNL     1       7.685   6.934  17.469  0.00  0.00    +0.000 OA
BRANCH  16  18
ATOM     18  O   UNL     1       7.491   4.717  16.857  0.00  0.00    +0.000 OA
BRANCH  18  19
ATOM     19  C   UNL     1       7.446   4.971  15.451  0.00  0.00    +0.000 C 
BRANCH  19  20
ATOM     20  C   UNL     1       6.016   5.075  14.940  0.00  0.00    +0.000 C 
BRANCH  20  21
ATOM     21  C   UNL     1       5.647   3.802  14.171  0.00  0.00    +0.000 C 
BRANCH  21  22
ATOM     22  C   UNL     1       6.218   3.787  12.754  0.00  0.00    +0.000 C 
BRANCH  22  24
ATOM     23  C   UNL     1       4.184   3.259  11.354  0.00  0.00    +0.000 C 
ATOM     24  C   UNL     1       5.509   2.742  11.889  0.00  0.00    +0.000 C 
ENDBRANCH  22  24
ENDBRANCH  21  22
ENDBRANCH  20  21
ENDBRANCH  19  20
ENDBRANCH  18  19
ENDBRANCH  16  18
ENDBRANCH   1  16
TORSDOF 9
ENDMDL
MODEL 4
REMARK VINA RESULT:      -6.5      3.138      6.238
REMARK  Name = 
REMARK  10 active torsions:
REMARK  status: ('A' for Active; 'I' for Inactive)
REMARK    1  A    between atoms: C_1  and  C_2
REMARK    2  A    between atoms: C_2  and  C_3
REMARK    3  A    between atoms: C_3  and  C_4
REMARK    4  A    between atoms: C_4  and  C_5
REMARK    5  A    between atoms: C_5  and  C_6
REMARK    6  A    between atoms: C_6  and  O_7
REMARK    7  A    between atoms: O_7  and  C_8
REMARK    8  A    between atoms: C_8  and  C_10
REMARK    9  A    between atoms: N_12  and  C_13
REMARK   10  A    between atoms: C_17  and  C_18
REMARK                            x       y       z     vdW  Elec       q    Type
REMARK                         _______ _______ _______ _____ _____    ______ ____
ROOT
ATOM      1  C   UNL     1       5.790   4.395  16.850  0.00  0.00    +0.000 C 
ATOM      2  O   UNL     1       4.742   4.120  16.263  0.00  0.00    +0.000 OA
ATOM      3  N   UNL     1       5.985   4.271  18.221  0.00  0.00    +0.000 N 
ATOM      4  H   UNL     1       6.878   4.544  18.636  0.00  0.00    +0.000 HD
ENDROOT
BRANCH   3   5
ATOM      5  C   UNL     1       4.967   3.810  19.046  0.00  0.00    +0.000 A 
ATOM      6  N   UNL     1       4.916   2.517  19.503  0.00  0.00    +0.000 N 
ATOM      7  C   UNL     1       3.825   2.381  20.304  0.00  0.00    +0.000 A 
ATOM      8  N   UNL     1       3.137   3.495  20.366  0.00  0.00    +0.000 NA
ATOM      9  C   UNL     1       3.841   4.411  19.579  0.00  0.00    +0.000 A 
ATOM     10  H   UNL     1       5.593   1.798  19.269  0.00  0.00    +0.000 HD
BRANCH   9  11
ATOM     11  C   UNL     1       3.376   5.782  19.394  0.00  0.00    +0.000 C 
ATOM     12  N   UNL     1       2.554   6.212  20.395  0.00  0.00    +0.000 N 
ATOM     13  O   UNL     1       3.672   6.485  18.433  0.00  0.00    +0.000 OA
ATOM     14  H   UNL     1       2.318   5.567  21.144  0.00  0.00    +0.000 HD
ATOM     15  H   UNL     1       2.142   7.130  20.359  0.00  0.00    +0.000 HD
ENDBRANCH   9  11
ENDBRANCH   3   5
BRANCH   1  16
ATOM     16  C   UNL     1       6.978   4.980  16.069  0.00  0.00    +0.000 C 
ATOM     17  O   UNL     1       7.496   6.045  16.352  0.00  0.00    +0.000 OA
BRANCH  16  18
ATOM     18  O   UNL     1       7.206   4.212  14.979  0.00  0.00    +0.000 OA
BRANCH  18  19
ATOM     19  C   UNL     1       6.858   4.800  13.724  0.00  0.00    +0.000 C 
BRANCH  19  20
ATOM     20  C   UNL     1       6.624   3.747  12.650  0.00  0.00    +0.000 C 
BRANCH  20  21
ATOM     21  C   UNL     1       5.128   3.429  12.554  0.00  0.00    +0.000 C 
BRANCH  21  22
ATOM     22  C   UNL     1       4.713   2.979  11.155  0.00  0.00    +0.000 C 
BRANCH  22  24
ATOM     23  C   UNL     1       3.042   4.080   9.616  0.00  0.00    +0.000 C 
ATOM     24  C   UNL     1       3.236   3.284  10.896  0.00  0.00    +0.000 C 
ENDBRANCH  22  24
ENDBRANCH  21  22
ENDBRANCH  20  21
ENDBRANCH  19  20
ENDBRANCH  18  19
ENDBRANCH  16  18
ENDBRANCH   1  16
TORSDOF 9
ENDMDL
MODEL 5
REMARK VINA RESULT:      -6.5      3.233      6.253
REMARK  Name = 
REMARK  10 active torsions:
REMARK  status: ('A' for Active; 'I' for Inactive)
REMARK    1  A    between atoms: C_1  and  C_2
REMARK    2  A    between atoms: C_2  and  C_3
REMARK    3  A    between atoms: C_3  and  C_4
REMARK    4  A    between atoms: C_4  and  C_5
REMARK    5  A    between atoms: C_5  and  C_6
REMARK    6  A    between atoms: C_6  and  O_7
REMARK    7  A    between atoms: O_7  and  C_8
REMARK    8  A    between atoms: C_8  and  C_10
REMARK    9  A    between atoms: N_12  and  C_13
REMARK   10  A    between atoms: C_17  and  C_18
REMARK                            x       y       z     vdW  Elec       q    Type
REMARK                         _______ _______ _______ _____ _____    ______ ____
ROOT
ATOM      1  C   UNL     1       5.234   4.314  16.413  0.00  0.00    +0.000 C 
ATOM      2  O   UNL     1       4.528   5.300  16.196  0.00  0.00    +0.000 OA
ATOM      3  N   UNL     1       4.894   3.270  17.266  0.00  0.00    +0.000 N 
ATOM      4  H   UNL     1       5.548   2.498  17.412  0.00  0.00    +0.000 HD
ENDROOT
BRANCH   3   5
ATOM      5  C   UNL     1       3.688   3.277  17.954  0.00  0.00    +0.000 A 
ATOM      6  N   UNL     1       2.674   2.395  17.675  0.00  0.00    +0.000 N 
ATOM      7  C   UNL     1       1.642   2.634  18.528  0.00  0.00    +0.000 A 
ATOM      8  N   UNL     1       1.904   3.643  19.322  0.00  0.00    +0.000 NA
ATOM      9  C   UNL     1       3.191   4.064  18.977  0.00  0.00    +0.000 A 
ATOM     10  H   UNL     1       2.711   1.690  16.946  0.00  0.00    +0.000 HD
BRANCH   9  11
ATOM     11  C   UNL     1       3.836   5.189  19.647  0.00  0.00    +0.000 C 
ATOM     12  N   UNL     1       2.951   6.056  20.218  0.00  0.00    +0.000 N 
ATOM     13  O   UNL     1       5.050   5.361  19.688  0.00  0.00    +0.000 OA
ATOM     14  H   UNL     1       1.956   5.876  20.116  0.00  0.00    +0.000 HD
ATOM     15  H   UNL     1       3.278   6.890  20.679  0.00  0.00    +0.000 HD
ENDBRANCH   9  11
ENDBRANCH   3   5
BRANCH   1  16
ATOM     16  C   UNL     1       6.627   4.209  15.770  0.00  0.00    +0.000 C 
ATOM     17  O   UNL     1       7.638   4.618  16.310  0.00  0.00    +0.000 OA
BRANCH  16  18
ATOM     18  O   UNL     1       6.490   3.756  14.503  0.00  0.00    +0.000 OA
BRANCH  18  19
ATOM     19  C   UNL     1       7.038   4.596  13.484  0.00  0.00    +0.000 C 
BRANCH  19  20
ATOM     20  C   UNL     1       6.910   3.968  12.103  0.00  0.00    +0.000 C 
BRANCH  20  21
ATOM     21  C   UNL     1       5.718   3.005  12.081  0.00  0.00    +0.000 C 
BRANCH  21  22
ATOM     22  C   UNL     1       4.395   3.717  11.805  0.00  0.00    +0.000 C 
BRANCH  22  24
ATOM     23  C   UNL     1       2.996   4.092   9.737  0.00  0.00    +0.000 C 
ATOM     24  C   UNL     1       3.651   3.060  10.640  0.00  0.00    +0.000 C 
ENDBRANCH  22  24
ENDBRANCH  21  22
ENDBRANCH  20  21
ENDBRANCH  19  20
ENDBRANCH  18  19
ENDBRANCH  16  18
ENDBRANCH   1  16
TORSDOF 9
ENDMDL
MODEL 6
REMARK VINA RESULT:      -6.4      2.572      6.179
REMARK  Name = 
REMARK  10 active torsions:
REMARK  status: ('A' for Active; 'I' for Inactive)
REMARK    1  A    between atoms: C_1  and  C_2
REMARK    2  A    between atoms: C_2  and  C_3
REMARK    3  A    between atoms: C_3  and  C_4
REMARK    4  A    between atoms: C_4  and  C_5
REMARK    5  A    between atoms: C_5  and  C_6
REMARK    6  A    between atoms: C_6  and  O_7
REMARK    7  A    between atoms: O_7  and  C_8
REMARK    8  A    between atoms: C_8  and  C_10
REMARK    9  A    between atoms: N_12  and  C_13
REMARK   10  A    between atoms: C_17  and  C_18
REMARK                            x       y       z     vdW  Elec       q    Type
REMARK                         _______ _______ _______ _____ _____    ______ ____
ROOT
ATOM      1  C   UNL     1       6.500   4.988  18.349  0.00  0.00    +0.000 C 
ATOM      2  O   UNL     1       6.899   5.130  19.506  0.00  0.00    +0.000 OA
ATOM      3  N   UNL     1       5.387   4.239  17.983  0.00  0.00    +0.000 N 
ATOM      4  H   UNL     1       5.135   4.149  16.997  0.00  0.00    +0.000 HD
ENDROOT
BRANCH   3   5
ATOM      5  C   UNL     1       4.627   3.580  18.940  0.00  0.00    +0.000 A 
ATOM      6  N   UNL     1       5.129   2.558  19.705  0.00  0.00    +0.000 N 
ATOM      7  C   UNL     1       4.159   2.137  20.562  0.00  0.00    +0.000 A 
ATOM      8  N   UNL     1       3.041   2.796  20.375  0.00  0.00    +0.000 NA
ATOM      9  C   UNL     1       3.315   3.712  19.356  0.00  0.00    +0.000 A 
ATOM     10  H   UNL     1       6.073   2.192  19.628  0.00  0.00    +0.000 HD
BRANCH   9  11
ATOM     11  C   UNL     1       2.297   4.632  18.858  0.00  0.00    +0.000 C 
ATOM     12  N   UNL     1       1.367   4.027  18.063  0.00  0.00    +0.000 N 
ATOM     13  O   UNL     1       2.275   5.834  19.106  0.00  0.00    +0.000 OA
ATOM     14  H   UNL     1       1.464   3.036  17.866  0.00  0.00    +0.000 HD
ATOM     15  H   UNL     1       0.635   4.568  17.633  0.00  0.00    +0.000 HD
ENDBRANCH   9  11
ENDBRANCH   3   5
BRANCH   1  16
ATOM     16  C   UNL     1       7.287   5.607  17.182  0.00  0.00    +0.000 C 
ATOM     17  O   UNL     1       7.344   6.807  16.986  0.00  0.00    +0.000 OA
BRANCH  16  18
ATOM     18  O   UNL     1       7.729   4.614  16.377  0.00  0.00    +0.000 OA
BRANCH  18  19
ATOM     19  C   UNL     1       7.247   4.648  15.032  0.00  0.00    +0.000 C 
BRANCH  19  20
ATOM     20  C   UNL     1       6.003   3.790  14.854  0.00  0.00    +0.000 C 
BRANCH  20  21
ATOM     21  C   UNL     1       5.383   4.055  13.478  0.00  0.00    +0.000 C 
BRANCH  21  22
ATOM     22  C   UNL     1       6.200   3.445  12.341  0.00  0.00    +0.000 C 
BRANCH  22  24
ATOM     23  C   UNL     1       4.018   3.113  11.114  0.00  0.00    +0.000 C 
ATOM     24  C   UNL     1       5.347   2.487  11.505  0.00  0.00    +0.000 C 
ENDBRANCH  22  24
ENDBRANCH  21  22
ENDBRANCH  20  21
ENDBRANCH  19  20
ENDBRANCH  18  19
ENDBRANCH  16  18
ENDBRANCH   1  16
TORSDOF 9
ENDMDL
MODEL 7
REMARK VINA RESULT:      -6.3      2.859      6.353
REMARK  Name = 
REMARK  10 active torsions:
REMARK  status: ('A' for Active; 'I' for Inactive)
REMARK    1  A    between atoms: C_1  and  C_2
REMARK    2  A    between atoms: C_2  and  C_3
REMARK    3  A    between atoms: C_3  and  C_4
REMARK    4  A    between atoms: C_4  and  C_5
REMARK    5  A    between atoms: C_5  and  C_6
REMARK    6  A    between atoms: C_6  and  O_7
REMARK    7  A    between atoms: O_7  and  C_8
REMARK    8  A    between atoms: C_8  and  C_10
REMARK    9  A    between atoms: N_12  and  C_13
REMARK   10  A    between atoms: C_17  and  C_18
REMARK                            x       y       z     vdW  Elec       q    Type
REMARK                         _______ _______ _______ _____ _____    ______ ____
ROOT
ATOM      1  C   UNL     1       5.276   4.848  17.208  0.00  0.00    +0.000 C 
ATOM      2  O   UNL     1       4.719   5.919  17.452  0.00  0.00    +0.000 OA
ATOM      3  N   UNL     1       4.733   3.596  17.473  0.00  0.00    +0.000 N 
ATOM      4  H   UNL     1       5.270   2.752  17.264  0.00  0.00    +0.000 HD
ENDROOT
BRANCH   3   5
ATOM      5  C   UNL     1       3.477   3.473  18.054  0.00  0.00    +0.000 A 
ATOM      6  N   UNL     1       2.330   3.889  17.426  0.00  0.00    +0.000 N 
ATOM      7  C   UNL     1       1.268   3.612  18.231  0.00  0.00    +0.000 A 
ATOM      8  N   UNL     1       1.655   3.077  19.364  0.00  0.00    +0.000 NA
ATOM      9  C   UNL     1       3.046   2.980  19.273  0.00  0.00    +0.000 A 
ATOM     10  H   UNL     1       2.302   4.327  16.512  0.00  0.00    +0.000 HD
BRANCH   9  11
ATOM     11  C   UNL     1       3.850   2.433  20.361  0.00  0.00    +0.000 C 
ATOM     12  N   UNL     1       5.050   1.932  19.945  0.00  0.00    +0.000 N 
ATOM     13  O   UNL     1       3.492   2.404  21.534  0.00  0.00    +0.000 OA
ATOM     14  H   UNL     1       5.270   1.953  18.954  0.00  0.00    +0.000 HD
ATOM     15  H   UNL     1       5.676   1.496  20.603  0.00  0.00    +0.000 HD
ENDBRANCH   9  11
ENDBRANCH   3   5
BRANCH   1  16
ATOM     16  C   UNL     1       6.699   4.835  16.626  0.00  0.00    +0.000 C 
ATOM     17  O   UNL     1       7.654   4.372  17.223  0.00  0.00    +0.000 OA
BRANCH  16  18
ATOM     18  O   UNL     1       6.706   5.543  15.474  0.00  0.00    +0.000 OA
BRANCH  18  19
ATOM     19  C   UNL     1       7.201   4.851  14.325  0.00  0.00    +0.000 C 
BRANCH  19  20
ATOM     20  C   UNL     1       6.185   3.856  13.783  0.00  0.00    +0.000 C 
BRANCH  20  21
ATOM     21  C   UNL     1       6.268   3.813  12.254  0.00  0.00    +0.000 C 
BRANCH  21  22
ATOM     22  C   UNL     1       5.309   2.792  11.643  0.00  0.00    +0.000 C 
BRANCH  22  24
ATOM     23  C   UNL     1       3.475   3.579  10.097  0.00  0.00    +0.000 C 
ATOM     24  C   UNL     1       3.892   3.363  11.542  0.00  0.00    +0.000 C 
ENDBRANCH  22  24
ENDBRANCH  21  22
ENDBRANCH  20  21
ENDBRANCH  19  20
ENDBRANCH  18  19
ENDBRANCH  16  18
ENDBRANCH   1  16
TORSDOF 9
ENDMDL
MODEL 8
REMARK VINA RESULT:      -6.2      2.346      6.179
REMARK  Name = 
REMARK  10 active torsions:
REMARK  status: ('A' for Active; 'I' for Inactive)
REMARK    1  A    between atoms: C_1  and  C_2
REMARK    2  A    between atoms: C_2  and  C_3
REMARK    3  A    between atoms: C_3  and  C_4
REMARK    4  A    between atoms: C_4  and  C_5
REMARK    5  A    between atoms: C_5  and  C_6
REMARK    6  A    between atoms: C_6  and  O_7
REMARK    7  A    between atoms: O_7  and  C_8
REMARK    8  A    between atoms: C_8  and  C_10
REMARK    9  A    between atoms: N_12  and  C_13
REMARK   10  A    between atoms: C_17  and  C_18
REMARK                            x       y       z     vdW  Elec       q    Type
REMARK                         _______ _______ _______ _____ _____    ______ ____
ROOT
ATOM      1  C   UNL     1       6.262   5.533  18.841  0.00  0.00    +0.000 C 
ATOM      2  O   UNL     1       6.672   4.964  19.853  0.00  0.00    +0.000 OA
ATOM      3  N   UNL     1       4.920   5.691  18.510  0.00  0.00    +0.000 N 
ATOM      4  H   UNL     1       4.662   6.155  17.637  0.00  0.00    +0.000 HD
ENDROOT
BRANCH   3   5
ATOM      5  C   UNL     1       3.921   5.195  19.337  0.00  0.00    +0.000 A 
ATOM      6  N   UNL     1       3.093   6.012  20.065  0.00  0.00    +0.000 N 
ATOM      7  C   UNL     1       2.208   5.237  20.749  0.00  0.00    +0.000 A 
ATOM      8  N   UNL     1       2.433   3.962  20.544  0.00  0.00    +0.000 NA
ATOM      9  C   UNL     1       3.510   3.913  19.654  0.00  0.00    +0.000 A 
ATOM     10  H   UNL     1       3.149   7.025  20.075  0.00  0.00    +0.000 HD
BRANCH   9  11
ATOM     11  C   UNL     1       4.064   2.646  19.189  0.00  0.00    +0.000 C 
ATOM     12  N   UNL     1       5.079   2.181  19.973  0.00  0.00    +0.000 N 
ATOM     13  O   UNL     1       3.677   2.053  18.186  0.00  0.00    +0.000 OA
ATOM     14  H   UNL     1       5.376   2.739  20.768  0.00  0.00    +0.000 HD
ATOM     15  H   UNL     1       5.563   1.331  19.731  0.00  0.00    +0.000 HD
ENDBRANCH   9  11
ENDBRANCH   3   5
BRANCH   1  16
ATOM     16  C   UNL     1       7.261   6.072  17.802  0.00  0.00    +0.000 C 
ATOM     17  O   UNL     1       7.482   7.259  17.650  0.00  0.00    +0.000 OA
BRANCH  16  18
ATOM     18  O   UNL     1       7.686   5.044  17.032  0.00  0.00    +0.000 OA
BRANCH  18  19
ATOM     19  C   UNL     1       6.663   4.329  16.336  0.00  0.00    +0.000 C 
BRANCH  19  20
ATOM     20  C   UNL     1       6.245   5.040  15.056  0.00  0.00    +0.000 C 
BRANCH  20  21
ATOM     21  C   UNL     1       6.479   4.120  13.854  0.00  0.00    +0.000 C 
BRANCH  21  22
ATOM     22  C   UNL     1       5.176   3.579  13.267  0.00  0.00    +0.000 C 
BRANCH  22  24
ATOM     23  C   UNL     1       5.767   1.918  11.461  0.00  0.00    +0.000 C 
ATOM     24  C   UNL     1       5.311   3.336  11.762  0.00  0.00    +0.000 C 
ENDBRANCH  22  24
ENDBRANCH  21  22
ENDBRANCH  20  21
ENDBRANCH  19  20
ENDBRANCH  18  19
ENDBRANCH  16  18
ENDBRANCH   1  16
TORSDOF 9
ENDMDL
MODEL 9
REMARK VINA RESULT:      -6.2      1.514      1.937
REMARK  Name = 
REMARK  10 active torsions:
REMARK  status: ('A' for Active; 'I' for Inactive)
REMARK    1  A    between atoms: C_1  and  C_2
REMARK    2  A    between atoms: C_2  and  C_3
REMARK    3  A    between atoms: C_3  and  C_4
REMARK    4  A    between atoms: C_4  and  C_5
REMARK    5  A    between atoms: C_5  and  C_6
REMARK    6  A    between atoms: C_6  and  O_7
REMARK    7  A    between atoms: O_7  and  C_8
REMARK    8  A    between atoms: C_8  and  C_10
REMARK    9  A    between atoms: N_12  and  C_13
REMARK   10  A    between atoms: C_17  and  C_18
REMARK                            x       y       z     vdW  Elec       q    Type
REMARK                         _______ _______ _______ _____ _____    ______ ____
ROOT
ATOM      1  C   UNL     1       4.957   4.418  18.944  0.00  0.00    +0.000 C 
ATOM      2  O   UNL     1       4.394   5.470  18.633  0.00  0.00    +0.000 OA
ATOM      3  N   UNL     1       6.010   3.847  18.238  0.00  0.00    +0.000 N 
ATOM      4  H   UNL     1       6.407   2.957  18.547  0.00  0.00    +0.000 HD
ENDROOT
BRANCH   3   5
ATOM      5  C   UNL     1       6.511   4.453  17.093  0.00  0.00    +0.000 A 
ATOM      6  N   UNL     1       6.399   3.885  15.849  0.00  0.00    +0.000 N 
ATOM      7  C   UNL     1       6.959   4.724  14.935  0.00  0.00    +0.000 A 
ATOM      8  N   UNL     1       7.465   5.787  15.512  0.00  0.00    +0.000 NA
ATOM      9  C   UNL     1       7.193   5.636  16.874  0.00  0.00    +0.000 A 
ATOM     10  H   UNL     1       5.966   2.986  15.664  0.00  0.00    +0.000 HD
BRANCH   9  11
ATOM     11  C   UNL     1       7.614   6.630  17.856  0.00  0.00    +0.000 C 
ATOM     12  N   UNL     1       7.645   7.900  17.358  0.00  0.00    +0.000 N 
ATOM     13  O   UNL     1       7.927   6.366  19.013  0.00  0.00    +0.000 OA
ATOM     14  H   UNL     1       7.409   8.047  16.381  0.00  0.00    +0.000 HD
ATOM     15  H   UNL     1       7.953   8.667  17.933  0.00  0.00    +0.000 HD
ENDBRANCH   9  11
ENDBRANCH   3   5
BRANCH   1  16
ATOM     16  C   UNL     1       4.459   3.606  20.151  0.00  0.00    +0.000 C 
ATOM     17  O   UNL     1       4.875   2.493  20.417  0.00  0.00    +0.000 OA
BRANCH  16  18
ATOM     18  O   UNL     1       3.420   4.260  20.719  0.00  0.00    +0.000 OA
BRANCH  18  19
ATOM     19  C   UNL     1       2.342   3.436  21.167  0.00  0.00    +0.000 C 
BRANCH  19  20
ATOM     20  C   UNL     1       1.023   3.823  20.513  0.00  0.00    +0.000 C 
BRANCH  20  21
ATOM     21  C   UNL     1       0.870   3.082  19.181  0.00  0.00    +0.000 C 
BRANCH  21  22
ATOM     22  C   UNL     1       1.294   3.933  17.985  0.00  0.00    +0.000 C 
BRANCH  22  24
ATOM     23  C   UNL     1       2.667   1.833  17.704  0.00  0.00    +0.000 C 
ATOM     24  C   UNL     1       2.337   3.203  17.135  0.00  0.00    +0.000 C 
ENDBRANCH  22  24
ENDBRANCH  21  22
ENDBRANCH  20  21
ENDBRANCH  19  20
ENDBRANCH  18  19
ENDBRANCH  16  18
ENDBRANCH   1  16
TORSDOF 9
ENDMDL
