MODEL 1
REMARK VINA RESULT:      -5.3      0.000      0.000
REMARK  Name = 
REMARK  0 active torsions:
REMARK  status: ('A' for Active; 'I' for Inactive)
REMARK                            x       y       z     vdW  Elec       q    Type
REMARK                         _______ _______ _______ _____ _____    ______ ____
ROOT
ATOM      1  O   UNL     1       1.097   4.191  17.253  0.00  0.00    +0.000 OA
ATOM      2  C   UNL     1       2.083   3.780  17.857  0.00  0.00    +0.000 C 
ATOM      3  N   UNL     1       3.343   3.855  17.288  0.00  0.00    +0.000 N 
ATOM      4  C   UNL     1       4.538   3.857  18.125  0.00  0.00    +0.000 C 
ATOM      5  C   UNL     1       4.410   3.014  19.411  0.00  0.00    +0.000 C 
ATOM      6  N   UNL     1       3.145   3.355  20.058  0.00  0.00    +0.000 NA
ATOM      7  C   UNL     1       2.865   2.671  21.311  0.00  0.00    +0.000 C 
ATOM      8  C   UNL     1       1.345   2.806  21.448  0.00  0.00    +0.000 C 
ATOM      9  C   UNL     1       0.843   3.272  20.078  0.00  0.00    +0.000 C 
ATOM     10  C   UNL     1       2.021   2.994  19.169  0.00  0.00    +0.000 C 
ATOM     11  H   UNL     1       3.358   4.394  16.432  0.00  0.00    +0.000 HD
ENDROOT
TORSDOF 0
ENDMDL
MODEL 2
REMARK VINA RESULT:      -5.3      2.152      2.918
REMARK  Name = 
REMARK  0 active torsions:
REMARK  status: ('A' for Active; 'I' for Inactive)
REMARK                            x       y       z     vdW  Elec       q    Type
REMARK                         _______ _______ _______ _____ _____    ______ ____
ROOT
ATOM      1  O   UNL     1       4.866   1.893  20.433  0.00  0.00    +0.000 OA
ATOM      2  C   UNL     1       4.542   2.803  19.675  0.00  0.00    +0.000 C 
ATOM      3  N   UNL     1       5.503   3.604  19.082  0.00  0.00    +0.000 N 
ATOM      4  C   UNL     1       5.212   4.321  17.845  0.00  0.00    +0.000 C 
ATOM      5  C   UNL     1       3.747   4.787  17.714  0.00  0.00    +0.000 C 
ATOM      6  N   UNL     1       2.877   3.663  18.049  0.00  0.00    +0.000 NA
ATOM      7  C   UNL     1       1.447   3.911  17.954  0.00  0.00    +0.000 C 
ATOM      8  C   UNL     1       0.843   2.812  18.834  0.00  0.00    +0.000 C 
ATOM      9  C   UNL     1       2.013   2.228  19.631  0.00  0.00    +0.000 C 
ATOM     10  C   UNL     1       3.100   3.267  19.456  0.00  0.00    +0.000 C 
ATOM     11  H   UNL     1       6.445   3.265  19.228  0.00  0.00    +0.000 HD
ENDROOT
TORSDOF 0
ENDMDL
MODEL 3
REMARK VINA RESULT:      -5.2      2.068      2.658
REMARK  Name = 
REMARK  0 active torsions:
REMARK  status: ('A' for Active; 'I' for Inactive)
REMARK                            x       y       z     vdW  Elec       q    Type
REMARK                         _______ _______ _______ _____ _____    ______ ____
ROOT
ATOM      1  O   UNL     1       5.224   1.910  20.385  0.00  0.00    +0.000 OA
ATOM      2  C   UNL     1       4.455   2.592  19.714  0.00  0.00    +0.000 C 
ATOM      3  N   UNL     1       4.787   2.968  18.423  0.00  0.00    +0.000 N 
ATOM      4  C   UNL     1       3.748   3.319  17.461  0.00  0.00    +0.000 C 
ATOM      5  C   UNL     1       2.515   4.004  18.085  0.00  0.00    +0.000 C 
ATOM      6  N   UNL     1       2.103   3.231  19.254  0.00  0.00    +0.000 NA
ATOM      7  C   UNL     1       0.928   3.718  19.959  0.00  0.00    +0.000 C 
ATOM      8  C   UNL     1       1.066   3.080  21.346  0.00  0.00    +0.000 C 
ATOM      9  C   UNL     1       2.499   2.546  21.417  0.00  0.00    +0.000 C 
ATOM     10  C   UNL     1       3.184   3.244  20.262  0.00  0.00    +0.000 C 
ATOM     11  H   UNL     1       5.621   2.510  18.081  0.00  0.00    +0.000 HD
ENDROOT
TORSDOF 0
ENDMDL
MODEL 4
REMARK VINA RESULT:      -5.1      1.558      3.271
REMARK  Name = 
REMARK  0 active torsions:
REMARK  status: ('A' for Active; 'I' for Inactive)
REMARK                            x       y       z     vdW  Elec       q    Type
REMARK                         _______ _______ _______ _____ _____    ______ ____
ROOT
ATOM      1  O   UNL     1       0.250   2.048  18.456  0.00  0.00    +0.000 OA
ATOM      2  C   UNL     1       0.918   2.858  19.091  0.00  0.00    +0.000 C 
ATOM      3  N   UNL     1       0.655   3.098  20.429  0.00  0.00    +0.000 N 
ATOM      4  C   UNL     1       1.691   3.635  21.305  0.00  0.00    +0.000 C 
ATOM      5  C   UNL     1       2.667   4.605  20.609  0.00  0.00    +0.000 C 
ATOM      6  N   UNL     1       3.109   3.992  19.359  0.00  0.00    +0.000 NA
ATOM      7  C   UNL     1       4.063   4.759  18.574  0.00  0.00    +0.000 C 
ATOM      8  C   UNL     1       3.918   4.163  17.170  0.00  0.00    +0.000 C 
ATOM      9  C   UNL     1       2.639   3.322  17.205  0.00  0.00    +0.000 C 
ATOM     10  C   UNL     1       1.948   3.802  18.463  0.00  0.00    +0.000 C 
ATOM     11  H   UNL     1      -0.015   2.450  20.821  0.00  0.00    +0.000 HD
ENDROOT
TORSDOF 0
ENDMDL
MODEL 5
REMARK VINA RESULT:      -5.0      3.923      5.014
REMARK  Name = 
REMARK  0 active torsions:
REMARK  status: ('A' for Active; 'I' for Inactive)
REMARK                            x       y       z     vdW  Elec       q    Type
REMARK                         _______ _______ _______ _____ _____    ______ ____
ROOT
ATOM      1  O   UNL     1       8.242   4.336  18.353  0.00  0.00    +0.000 OA
ATOM      2  C   UNL     1       7.430   4.712  17.513  0.00  0.00    +0.000 C 
ATOM      3  N   UNL     1       7.723   4.633  16.162  0.00  0.00    +0.000 N 
ATOM      4  C   UNL     1       6.652   4.587  15.172  0.00  0.00    +0.000 C 
ATOM      5  C   UNL     1       5.396   5.394  15.561  0.00  0.00    +0.000 C 
ATOM      6  N   UNL     1       5.042   5.055  16.937  0.00  0.00    +0.000 NA
ATOM      7  C   UNL     1       3.855   5.706  17.469  0.00  0.00    +0.000 C 
ATOM      8  C   UNL     1       4.047   5.593  18.985  0.00  0.00    +0.000 C 
ATOM      9  C   UNL     1       5.506   5.175  19.190  0.00  0.00    +0.000 C 
ATOM     10  C   UNL     1       6.136   5.460  17.844  0.00  0.00    +0.000 C 
ATOM     11  H   UNL     1       8.573   4.120  15.972  0.00  0.00    +0.000 HD
ENDROOT
TORSDOF 0
ENDMDL
MODEL 6
REMARK VINA RESULT:      -5.0      3.297      4.633
REMARK  Name = 
REMARK  0 active torsions:
REMARK  status: ('A' for Active; 'I' for Inactive)
REMARK                            x       y       z     vdW  Elec       q    Type
REMARK                         _______ _______ _______ _____ _____    ______ ____
ROOT
ATOM      1  O   UNL     1       7.998   4.576  18.509  0.00  0.00    +0.000 OA
ATOM      2  C   UNL     1       7.185   4.616  17.590  0.00  0.00    +0.000 C 
ATOM      3  N   UNL     1       7.604   4.795  16.283  0.00  0.00    +0.000 N 
ATOM      4  C   UNL     1       6.772   4.356  15.168  0.00  0.00    +0.000 C 
ATOM      5  C   UNL     1       5.255   4.469  15.429  0.00  0.00    +0.000 C 
ATOM      6  N   UNL     1       4.971   3.889  16.739  0.00  0.00    +0.000 NA
ATOM      7  C   UNL     1       3.575   3.883  17.145  0.00  0.00    +0.000 C 
ATOM      8  C   UNL     1       3.656   3.738  18.669  0.00  0.00    +0.000 C 
ATOM      9  C   UNL     1       5.118   4.010  19.035  0.00  0.00    +0.000 C 
ATOM     10  C   UNL     1       5.668   4.665  17.787  0.00  0.00    +0.000 C 
ATOM     11  H   UNL     1       8.609   4.741  16.179  0.00  0.00    +0.000 HD
ENDROOT
TORSDOF 0
ENDMDL
MODEL 7
REMARK VINA RESULT:      -4.9      3.332      4.518
REMARK  Name = 
REMARK  0 active torsions:
REMARK  status: ('A' for Active; 'I' for Inactive)
REMARK                            x       y       z     vdW  Elec       q    Type
REMARK                         _______ _______ _______ _____ _____    ______ ____
ROOT
ATOM      1  O   UNL     1       6.196   5.618  14.841  0.00  0.00    +0.000 OA
ATOM      2  C   UNL     1       6.472   5.562  16.036  0.00  0.00    +0.000 C 
ATOM      3  N   UNL     1       7.474   6.356  16.568  0.00  0.00    +0.000 N 
ATOM      4  C   UNL     1       7.487   6.684  17.989  0.00  0.00    +0.000 C 
ATOM      5  C   UNL     1       6.934   5.568  18.900  0.00  0.00    +0.000 C 
ATOM      6  N   UNL     1       5.668   5.102  18.337  0.00  0.00    +0.000 NA
ATOM      7  C   UNL     1       4.983   4.060  19.085  0.00  0.00    +0.000 C 
ATOM      8  C   UNL     1       4.050   3.439  18.040  0.00  0.00    +0.000 C 
ATOM      9  C   UNL     1       4.531   3.969  16.686  0.00  0.00    +0.000 C 
ATOM     10  C   UNL     1       5.906   4.517  17.001  0.00  0.00    +0.000 C 
ATOM     11  H   UNL     1       7.817   7.048  15.914  0.00  0.00    +0.000 HD
ENDROOT
TORSDOF 0
ENDMDL
MODEL 8
REMARK VINA RESULT:      -4.9      2.167      2.613
REMARK  Name = 
REMARK  0 active torsions:
REMARK  status: ('A' for Active; 'I' for Inactive)
REMARK                            x       y       z     vdW  Elec       q    Type
REMARK                         _______ _______ _______ _____ _____    ______ ____
ROOT
ATOM      1  O   UNL     1       4.514   1.334  19.617  0.00  0.00    +0.000 OA
ATOM      2  C   UNL     1       4.410   2.556  19.651  0.00  0.00    +0.000 C 
ATOM      3  N   UNL     1       5.459   3.366  19.249  0.00  0.00    +0.000 N 
ATOM      4  C   UNL     1       5.214   4.734  18.807  0.00  0.00    +0.000 C 
ATOM      5  C   UNL     1       4.040   5.431  19.526  0.00  0.00    +0.000 C 
ATOM      6  N   UNL     1       2.899   4.520  19.528  0.00  0.00    +0.000 NA
ATOM      7  C   UNL     1       1.682   5.022  20.145  0.00  0.00    +0.000 C 
ATOM      8  C   UNL     1       0.901   3.744  20.467  0.00  0.00    +0.000 C 
ATOM      9  C   UNL     1       1.900   2.594  20.304  0.00  0.00    +0.000 C 
ATOM     10  C   UNL     1       3.238   3.302  20.293  0.00  0.00    +0.000 C 
ATOM     11  H   UNL     1       6.212   2.850  18.813  0.00  0.00    +0.000 HD
ENDROOT
TORSDOF 0
ENDMDL
MODEL 9
REMARK VINA RESULT:      -4.9      2.087      3.843
REMARK  Name = 
REMARK  0 active torsions:
REMARK  status: ('A' for Active; 'I' for Inactive)
REMARK                            x       y       z     vdW  Elec       q    Type
REMARK                         _______ _______ _______ _____ _____    ______ ____
ROOT
ATOM      1  O   UNL     1       4.925   1.999  20.449  0.00  0.00    +0.000 OA
ATOM      2  C   UNL     1       3.763   2.392  20.389  0.00  0.00    +0.000 C 
ATOM      3  N   UNL     1       2.979   2.457  21.528  0.00  0.00    +0.000 N 
ATOM      4  C   UNL     1       1.829   3.352  21.589  0.00  0.00    +0.000 C 
ATOM      5  C   UNL     1       1.105   3.542  20.240  0.00  0.00    +0.000 C 
ATOM      6  N   UNL     1       2.109   3.820  19.216  0.00  0.00    +0.000 NA
ATOM      7  C   UNL     1       1.603   4.056  17.873  0.00  0.00    +0.000 C 
ATOM      8  C   UNL     1       2.824   3.784  16.988  0.00  0.00    +0.000 C 
ATOM      9  C   UNL     1       3.844   3.086  17.890  0.00  0.00    +0.000 C 
ATOM     10  C   UNL     1       3.013   2.659  19.081  0.00  0.00    +0.000 C 
ATOM     11  H   UNL     1       3.503   2.293  22.378  0.00  0.00    +0.000 HD
ENDROOT
TORSDOF 0
ENDMDL
