MODEL 1
REMARK VINA RESULT:      -8.0      0.000      0.000
REMARK  Name = 
REMARK  12 active torsions:
REMARK  status: ('A' for Active; 'I' for Inactive)
REMARK    1  A    between atoms: C_1  and  C_2
REMARK    2  A    between atoms: C_2  and  C_3
REMARK    3  A    between atoms: C_3  and  C_4
REMARK    4  A    between atoms: C_4  and  C_5
REMARK    5  A    between atoms: C_5  and  C_6
REMARK    6  A    between atoms: N_8  and  C_9
REMARK    7  A    between atoms: C_17  and  C_18
REMARK    8  A    between atoms: C_18  and  C_19
REMARK    9  A    between atoms: N_21  and  C_22
REMARK   10  A    between atoms: C_22  and  C_23
REMARK   11  A    between atoms: C_26  and  O_27
REMARK   12  A    between atoms: O_27  and  C_28
REMARK                            x       y       z     vdW  Elec       q    Type
REMARK                         _______ _______ _______ _____ _____    ______ ____
ROOT
ATOM      1  C   UNL     1       2.363   5.562  18.932  0.00  0.00    +0.000 C 
ATOM      2  C   UNL     1       3.867   5.645  18.700  0.00  0.00    +0.000 C 
ATOM      3  N   UNL     1       4.048   6.815  17.869  0.00  0.00    +0.000 N 
ATOM      4  C   UNL     1       2.921   7.629  17.906  0.00  0.00    +0.000 C 
ATOM      5  O   UNL     1       2.703   8.672  17.313  0.00  0.00    +0.000 OA
ATOM      6  C   UNL     1       1.952   7.042  18.908  0.00  0.00    +0.000 C 
ENDROOT
BRANCH   3   7
ATOM      7  C   UNL     1       5.256   7.008  17.041  0.00  0.00    +0.000 C 
ATOM      8  C   UNL     1       6.558   6.503  17.673  0.00  0.00    +0.000 C 
ATOM      9  C   UNL     1       6.665   4.985  17.737  0.00  0.00    +0.000 C 
ATOM     10  C   UNL     1       6.352   4.305  16.404  0.00  0.00    +0.000 C 
ATOM     11  C   UNL     1       5.169   4.874  15.619  0.00  0.00    +0.000 C 
ATOM     12  C   UNL     1       5.106   6.399  15.634  0.00  0.00    +0.000 C 
ENDBRANCH   3   7
BRANCH   1  13
ATOM     13  C   UNL     1       1.605   4.772  17.834  0.00  0.00    +0.000 C 
BRANCH  13  14
ATOM     14  C   UNL     1       1.968   3.287  17.737  0.00  0.00    +0.000 C 
BRANCH  14  15
ATOM     15  C   UNL     1       1.170   2.387  18.672  0.00  0.00    +0.000 C 
BRANCH  15  17
ATOM     16  C   UNL     1       1.282   2.827  21.146  0.00  0.00    +0.000 C 
ATOM     17  C   UNL     1       1.962   2.169  19.961  0.00  0.00    +0.000 C 
ENDBRANCH  15  17
ENDBRANCH  14  15
ENDBRANCH  13  14
ENDBRANCH   1  13
BRANCH   6  18
ATOM     18  C   UNL     1       2.154   7.766  20.242  0.00  0.00    +0.000 C 
BRANCH  18  19
ATOM     19  C   UNL     1       0.981   8.673  20.522  0.00  0.00    +0.000 C 
ATOM     20  O   UNL     1       0.105   8.354  21.344  0.00  0.00    +0.000 OA
ATOM     21  N   UNL     1       0.948   9.830  19.794  0.00  0.00    +0.000 N 
ATOM     22  H   UNL     1       1.712  10.065  19.158  0.00  0.00    +0.000 HD
BRANCH  21  23
ATOM     23  C   UNL     1      -0.096  10.792  20.022  0.00  0.00    +0.000 C 
BRANCH  23  24
ATOM     24  C   UNL     1      -1.132  10.741  18.932  0.00  0.00    +0.000 A 
ATOM     25  C   UNL     1      -0.959   9.880  17.840  0.00  0.00    +0.000 A 
ATOM     26  C   UNL     1      -1.900   9.858  16.807  0.00  0.00    +0.000 A 
ATOM     27  C   UNL     1      -3.030  10.669  16.857  0.00  0.00    +0.000 A 
ATOM     28  C   UNL     1      -3.204  11.543  17.936  0.00  0.00    +0.000 A 
ATOM     29  C   UNL     1      -2.251  11.575  18.966  0.00  0.00    +0.000 A 
BRANCH  27  30
ATOM     30  O   UNL     1      -3.875  10.558  15.788  0.00  0.00    +0.000 OA
ATOM     31  C   UNL     1      -3.270  10.178  14.558  0.00  0.00    +0.000 C 
ENDBRANCH  27  30
ENDBRANCH  23  24
ENDBRANCH  21  23
ENDBRANCH  18  19
ENDBRANCH   6  18
TORSDOF 10
ENDMDL
MODEL 2
REMARK VINA RESULT:      -7.9      5.158      8.651
REMARK  Name = 
REMARK  12 active torsions:
REMARK  status: ('A' for Active; 'I' for Inactive)
REMARK    1  A    between atoms: C_1  and  C_2
REMARK    2  A    between atoms: C_2  and  C_3
REMARK    3  A    between atoms: C_3  and  C_4
REMARK    4  A    between atoms: C_4  and  C_5
REMARK    5  A    between atoms: C_5  and  C_6
REMARK    6  A    between atoms: N_8  and  C_9
REMARK    7  A    between atoms: C_17  and  C_18
REMARK    8  A    between atoms: C_18  and  C_19
REMARK    9  A    between atoms: N_21  and  C_22
REMARK   10  A    between atoms: C_22  and  C_23
REMARK   11  A    between atoms: C_26  and  O_27
REMARK   12  A    between atoms: O_27  and  C_28
REMARK                            x       y       z     vdW  Elec       q    Type
REMARK                         _______ _______ _______ _____ _____    ______ ____
ROOT
ATOM      1  C   UNL     1       6.020   5.726  16.051  0.00  0.00    +0.000 C 
ATOM      2  C   UNL     1       4.572   5.797  16.520  0.00  0.00    +0.000 C 
ATOM      3  N   UNL     1       4.631   5.551  17.944  0.00  0.00    +0.000 N 
ATOM      4  C   UNL     1       5.925   5.726  18.424  0.00  0.00    +0.000 C 
ATOM      5  O   UNL     1       6.355   5.576  19.555  0.00  0.00    +0.000 OA
ATOM      6  C   UNL     1       6.782   6.232  17.285  0.00  0.00    +0.000 C 
ENDROOT
BRANCH   3   7
ATOM      7  C   UNL     1       3.457   5.082  18.707  0.00  0.00    +0.000 C 
ATOM      8  C   UNL     1       2.256   4.663  17.851  0.00  0.00    +0.000 C 
ATOM      9  C   UNL     1       2.466   3.361  17.089  0.00  0.00    +0.000 C 
ATOM     10  C   UNL     1       2.987   2.227  17.973  0.00  0.00    +0.000 C 
ATOM     11  C   UNL     1       4.065   2.606  18.988  0.00  0.00    +0.000 C 
ATOM     12  C   UNL     1       3.807   3.941  19.681  0.00  0.00    +0.000 C 
ENDBRANCH   3   7
BRANCH   1  13
ATOM     13  C   UNL     1       6.484   4.293  15.678  0.00  0.00    +0.000 C 
BRANCH  13  14
ATOM     14  C   UNL     1       6.605   4.022  14.176  0.00  0.00    +0.000 C 
BRANCH  14  15
ATOM     15  C   UNL     1       5.273   3.794  13.474  0.00  0.00    +0.000 C 
BRANCH  15  17
ATOM     16  C   UNL     1       4.250   3.187  11.257  0.00  0.00    +0.000 C 
ATOM     17  C   UNL     1       5.529   3.244  12.070  0.00  0.00    +0.000 C 
ENDBRANCH  15  17
ENDBRANCH  14  15
ENDBRANCH  13  14
ENDBRANCH   1  13
BRANCH   6  18
ATOM     18  C   UNL     1       6.855   7.758  17.389  0.00  0.00    +0.000 C 
BRANCH  18  19
ATOM     19  C   UNL     1       8.035   8.164  18.236  0.00  0.00    +0.000 C 
ATOM     20  O   UNL     1       8.676   7.324  18.891  0.00  0.00    +0.000 OA
ATOM     21  N   UNL     1       8.316   9.503  18.247  0.00  0.00    +0.000 N 
ATOM     22  H   UNL     1       7.784  10.148  17.661  0.00  0.00    +0.000 HD
BRANCH  21  23
ATOM     23  C   UNL     1       9.453   9.992  18.976  0.00  0.00    +0.000 C 
BRANCH  23  24
ATOM     24  C   UNL     1       9.757  11.421  18.619  0.00  0.00    +0.000 A 
ATOM     25  C   UNL     1       9.153  12.466  19.330  0.00  0.00    +0.000 A 
ATOM     26  C   UNL     1       9.403  13.794  18.975  0.00  0.00    +0.000 A 
ATOM     27  C   UNL     1      10.270  14.100  17.931  0.00  0.00    +0.000 A 
ATOM     28  C   UNL     1      10.867  13.064  17.204  0.00  0.00    +0.000 A 
ATOM     29  C   UNL     1      10.604  11.729  17.551  0.00  0.00    +0.000 A 
BRANCH  27  30
ATOM     30  O   UNL     1      10.432  15.434  17.679  0.00  0.00    +0.000 OA
ATOM     31  C   UNL     1      11.655  15.803  17.054  0.00  0.00    +0.000 C 
ENDBRANCH  27  30
ENDBRANCH  23  24
ENDBRANCH  21  23
ENDBRANCH  18  19
ENDBRANCH   6  18
TORSDOF 10
ENDMDL
MODEL 3
REMARK VINA RESULT:      -7.9      0.635      1.105
REMARK  Name = 
REMARK  12 active torsions:
REMARK  status: ('A' for Active; 'I' for Inactive)
REMARK    1  A    between atoms: C_1  and  C_2
REMARK    2  A    between atoms: C_2  and  C_3
REMARK    3  A    between atoms: C_3  and  C_4
REMARK    4  A    between atoms: C_4  and  C_5
REMARK    5  A    between atoms: C_5  and  C_6
REMARK    6  A    between atoms: N_8  and  C_9
REMARK    7  A    between atoms: C_17  and  C_18
REMARK    8  A    between atoms: C_18  and  C_19
REMARK    9  A    between atoms: N_21  and  C_22
REMARK   10  A    between atoms: C_22  and  C_23
REMARK   11  A    between atoms: C_26  and  O_27
REMARK   12  A    between atoms: O_27  and  C_28
REMARK                            x       y       z     vdW  Elec       q    Type
REMARK                         _______ _______ _______ _____ _____    ______ ____
ROOT
ATOM      1  C   UNL     1       2.462   5.454  18.942  0.00  0.00    +0.000 C 
ATOM      2  C   UNL     1       3.967   5.573  18.728  0.00  0.00    +0.000 C 
ATOM      3  N   UNL     1       4.131   6.748  17.900  0.00  0.00    +0.000 N 
ATOM      4  C   UNL     1       2.984   7.535  17.923  0.00  0.00    +0.000 C 
ATOM      5  O   UNL     1       2.749   8.573  17.329  0.00  0.00    +0.000 OA
ATOM      6  C   UNL     1       2.017   6.924  18.913  0.00  0.00    +0.000 C 
ENDROOT
BRANCH   3   7
ATOM      7  C   UNL     1       5.344   6.970  17.088  0.00  0.00    +0.000 C 
ATOM      8  C   UNL     1       6.636   6.411  17.692  0.00  0.00    +0.000 C 
ATOM      9  C   UNL     1       6.720   4.890  17.669  0.00  0.00    +0.000 C 
ATOM     10  C   UNL     1       6.401   4.293  16.298  0.00  0.00    +0.000 C 
ATOM     11  C   UNL     1       5.230   4.924  15.545  0.00  0.00    +0.000 C 
ATOM     12  C   UNL     1       5.189   6.447  15.647  0.00  0.00    +0.000 C 
ENDBRANCH   3   7
BRANCH   1  13
ATOM     13  C   UNL     1       1.737   4.647  17.833  0.00  0.00    +0.000 C 
BRANCH  13  14
ATOM     14  C   UNL     1       2.504   3.428  17.312  0.00  0.00    +0.000 C 
BRANCH  14  15
ATOM     15  C   UNL     1       2.394   2.195  18.200  0.00  0.00    +0.000 C 
BRANCH  15  17
ATOM     16  C   UNL     1       3.625   2.280  20.392  0.00  0.00    +0.000 C 
ATOM     17  C   UNL     1       3.727   1.964  18.912  0.00  0.00    +0.000 C 
ENDBRANCH  15  17
ENDBRANCH  14  15
ENDBRANCH  13  14
ENDBRANCH   1  13
BRANCH   6  18
ATOM     18  C   UNL     1       2.185   7.652  20.250  0.00  0.00    +0.000 C 
BRANCH  18  19
ATOM     19  C   UNL     1       1.005   8.559  20.498  0.00  0.00    +0.000 C 
ATOM     20  O   UNL     1       0.097   8.232  21.281  0.00  0.00    +0.000 OA
ATOM     21  N   UNL     1       1.003   9.727  19.786  0.00  0.00    +0.000 N 
ATOM     22  H   UNL     1       1.793   9.967  19.184  0.00  0.00    +0.000 HD
BRANCH  21  23
ATOM     23  C   UNL     1      -0.045  10.689  19.987  0.00  0.00    +0.000 C 
BRANCH  23  24
ATOM     24  C   UNL     1      -1.026  10.673  18.848  0.00  0.00    +0.000 A 
ATOM     25  C   UNL     1      -2.148  11.512  18.876  0.00  0.00    +0.000 A 
ATOM     26  C   UNL     1      -3.082  11.472  17.838  0.00  0.00    +0.000 A 
ATOM     27  C   UNL     1      -2.903  10.619  16.752  0.00  0.00    +0.000 A 
ATOM     28  C   UNL     1      -1.794   9.766  16.722  0.00  0.00    +0.000 A 
ATOM     29  C   UNL     1      -0.864   9.796  17.773  0.00  0.00    +0.000 A 
BRANCH  27  30
ATOM     30  O   UNL     1      -3.885  10.670  15.802  0.00  0.00    +0.000 OA
ATOM     31  C   UNL     1      -3.494  10.297  14.486  0.00  0.00    +0.000 C 
ENDBRANCH  27  30
ENDBRANCH  23  24
ENDBRANCH  21  23
ENDBRANCH  18  19
ENDBRANCH   6  18
TORSDOF 10
ENDMDL
MODEL 4
REMARK VINA RESULT:      -7.6      4.200      8.280
REMARK  Name = 
REMARK  12 active torsions:
REMARK  status: ('A' for Active; 'I' for Inactive)
REMARK    1  A    between atoms: C_1  and  C_2
REMARK    2  A    between atoms: C_2  and  C_3
REMARK    3  A    between atoms: C_3  and  C_4
REMARK    4  A    between atoms: C_4  and  C_5
REMARK    5  A    between atoms: C_5  and  C_6
REMARK    6  A    between atoms: N_8  and  C_9
REMARK    7  A    between atoms: C_17  and  C_18
REMARK    8  A    between atoms: C_18  and  C_19
REMARK    9  A    between atoms: N_21  and  C_22
REMARK   10  A    between atoms: C_22  and  C_23
REMARK   11  A    between atoms: C_26  and  O_27
REMARK   12  A    between atoms: O_27  and  C_28
REMARK                            x       y       z     vdW  Elec       q    Type
REMARK                         _______ _______ _______ _____ _____    ______ ____
ROOT
ATOM      1  C   UNL     1       4.186   6.358  18.687  0.00  0.00    +0.000 C 
ATOM      2  C   UNL     1       3.997   5.271  19.739  0.00  0.00    +0.000 C 
ATOM      3  N   UNL     1       4.348   4.039  19.064  0.00  0.00    +0.000 N 
ATOM      4  C   UNL     1       5.071   4.298  17.904  0.00  0.00    +0.000 C 
ATOM      5  O   UNL     1       5.503   3.516  17.075  0.00  0.00    +0.000 OA
ATOM      6  C   UNL     1       5.330   5.786  17.836  0.00  0.00    +0.000 C 
ENDROOT
BRANCH   3   7
ATOM      7  C   UNL     1       3.882   2.723  19.546  0.00  0.00    +0.000 C 
ATOM      8  C   UNL     1       2.903   2.777  20.724  0.00  0.00    +0.000 C 
ATOM      9  C   UNL     1       1.520   3.296  20.354  0.00  0.00    +0.000 C 
ATOM     10  C   UNL     1       0.929   2.604  19.126  0.00  0.00    +0.000 C 
ATOM     11  C   UNL     1       1.895   2.347  17.968  0.00  0.00    +0.000 C 
ATOM     12  C   UNL     1       3.272   1.869  18.419  0.00  0.00    +0.000 C 
ENDBRANCH   3   7
BRANCH   1  13
ATOM     13  C   UNL     1       2.929   6.602  17.811  0.00  0.00    +0.000 C 
BRANCH  13  14
ATOM     14  C   UNL     1       1.960   7.659  18.349  0.00  0.00    +0.000 C 
BRANCH  14  15
ATOM     15  C   UNL     1       2.226   9.068  17.837  0.00  0.00    +0.000 C 
BRANCH  15  17
ATOM     16  C   UNL     1       0.886   9.638  19.888  0.00  0.00    +0.000 C 
ATOM     17  C   UNL     1       1.217  10.032  18.462  0.00  0.00    +0.000 C 
ENDBRANCH  15  17
ENDBRANCH  14  15
ENDBRANCH  13  14
ENDBRANCH   1  13
BRANCH   6  18
ATOM     18  C   UNL     1       6.725   6.051  18.410  0.00  0.00    +0.000 C 
BRANCH  18  19
ATOM     19  C   UNL     1       7.453   7.059  17.557  0.00  0.00    +0.000 C 
ATOM     20  O   UNL     1       7.767   6.801  16.382  0.00  0.00    +0.000 OA
ATOM     21  N   UNL     1       7.758   8.240  18.176  0.00  0.00    +0.000 N 
ATOM     22  H   UNL     1       7.444   8.420  19.132  0.00  0.00    +0.000 HD
BRANCH  21  23
ATOM     23  C   UNL     1       8.402   9.293  17.439  0.00  0.00    +0.000 C 
BRANCH  23  24
ATOM     24  C   UNL     1       8.907  10.371  18.358  0.00  0.00    +0.000 A 
ATOM     25  C   UNL     1       9.245  10.063  19.682  0.00  0.00    +0.000 A 
ATOM     26  C   UNL     1       9.677  11.070  20.550  0.00  0.00    +0.000 A 
ATOM     27  C   UNL     1       9.803  12.384  20.108  0.00  0.00    +0.000 A 
ATOM     28  C   UNL     1       9.454  12.705  18.792  0.00  0.00    +0.000 A 
ATOM     29  C   UNL     1       9.004  11.696  17.925  0.00  0.00    +0.000 A 
BRANCH  27  30
ATOM     30  O   UNL     1      10.233  13.277  21.049  0.00  0.00    +0.000 OA
ATOM     31  C   UNL     1      10.328  14.630  20.622  0.00  0.00    +0.000 C 
ENDBRANCH  27  30
ENDBRANCH  23  24
ENDBRANCH  21  23
ENDBRANCH  18  19
ENDBRANCH   6  18
TORSDOF 10
ENDMDL
MODEL 5
REMARK VINA RESULT:      -7.5      1.616      4.357
REMARK  Name = 
REMARK  12 active torsions:
REMARK  status: ('A' for Active; 'I' for Inactive)
REMARK    1  A    between atoms: C_1  and  C_2
REMARK    2  A    between atoms: C_2  and  C_3
REMARK    3  A    between atoms: C_3  and  C_4
REMARK    4  A    between atoms: C_4  and  C_5
REMARK    5  A    between atoms: C_5  and  C_6
REMARK    6  A    between atoms: N_8  and  C_9
REMARK    7  A    between atoms: C_17  and  C_18
REMARK    8  A    between atoms: C_18  and  C_19
REMARK    9  A    between atoms: N_21  and  C_22
REMARK   10  A    between atoms: C_22  and  C_23
REMARK   11  A    between atoms: C_26  and  O_27
REMARK   12  A    between atoms: O_27  and  C_28
REMARK                            x       y       z     vdW  Elec       q    Type
REMARK                         _______ _______ _______ _____ _____    ______ ____
ROOT
ATOM      1  C   UNL     1       4.133   6.226  17.910  0.00  0.00    +0.000 C 
ATOM      2  C   UNL     1       3.193   5.047  17.688  0.00  0.00    +0.000 C 
ATOM      3  N   UNL     1       2.180   5.184  18.712  0.00  0.00    +0.000 N 
ATOM      4  C   UNL     1       2.184   6.468  19.245  0.00  0.00    +0.000 C 
ATOM      5  O   UNL     1       1.498   6.934  20.139  0.00  0.00    +0.000 OA
ATOM      6  C   UNL     1       3.181   7.296  18.465  0.00  0.00    +0.000 C 
ENDROOT
BRANCH   3   7
ATOM      7  C   UNL     1       1.353   4.041  19.152  0.00  0.00    +0.000 C 
ATOM      8  C   UNL     1       1.913   2.662  18.788  0.00  0.00    +0.000 C 
ATOM      9  C   UNL     1       3.147   2.267  19.589  0.00  0.00    +0.000 C 
ATOM     10  C   UNL     1       2.970   2.455  21.095  0.00  0.00    +0.000 C 
ATOM     11  C   UNL     1       2.250   3.731  21.535  0.00  0.00    +0.000 C 
ATOM     12  C   UNL     1       1.050   4.084  20.661  0.00  0.00    +0.000 C 
ENDBRANCH   3   7
BRANCH   1  13
ATOM     13  C   UNL     1       5.269   5.933  18.926  0.00  0.00    +0.000 C 
BRANCH  13  14
ATOM     14  C   UNL     1       6.277   4.869  18.482  0.00  0.00    +0.000 C 
BRANCH  14  15
ATOM     15  C   UNL     1       7.513   5.429  17.791  0.00  0.00    +0.000 C 
BRANCH  15  17
ATOM     16  C   UNL     1       7.785   7.920  17.572  0.00  0.00    +0.000 C 
ATOM     17  C   UNL     1       7.940   6.721  18.488  0.00  0.00    +0.000 C 
ENDBRANCH  15  17
ENDBRANCH  14  15
ENDBRANCH  13  14
ENDBRANCH   1  13
BRANCH   6  18
ATOM     18  C   UNL     1       2.415   8.067  17.386  0.00  0.00    +0.000 C 
BRANCH  18  19
ATOM     19  C   UNL     1       1.922   9.380  17.939  0.00  0.00    +0.000 C 
ATOM     20  O   UNL     1       2.673  10.369  18.014  0.00  0.00    +0.000 OA
ATOM     21  N   UNL     1       0.623   9.386  18.367  0.00  0.00    +0.000 N 
ATOM     22  H   UNL     1       0.035   8.560  18.249  0.00  0.00    +0.000 HD
BRANCH  21  23
ATOM     23  C   UNL     1       0.035  10.601  18.861  0.00  0.00    +0.000 C 
BRANCH  23  24
ATOM     24  C   UNL     1      -1.393  10.738  18.408  0.00  0.00    +0.000 A 
ATOM     25  C   UNL     1      -2.253  11.633  19.060  0.00  0.00    +0.000 A 
ATOM     26  C   UNL     1      -3.590  11.735  18.668  0.00  0.00    +0.000 A 
ATOM     27  C   UNL     1      -4.082  10.971  17.613  0.00  0.00    +0.000 A 
ATOM     28  C   UNL     1      -3.236  10.064  16.966  0.00  0.00    +0.000 A 
ATOM     29  C   UNL     1      -1.897   9.951  17.370  0.00  0.00    +0.000 A 
BRANCH  27  30
ATOM     30  O   UNL     1      -5.406  11.159  17.326  0.00  0.00    +0.000 OA
ATOM     31  C   UNL     1      -5.836  12.512  17.243  0.00  0.00    +0.000 C 
ENDBRANCH  27  30
ENDBRANCH  23  24
ENDBRANCH  21  23
ENDBRANCH  18  19
ENDBRANCH   6  18
TORSDOF 10
ENDMDL
MODEL 6
REMARK VINA RESULT:      -7.5      4.806      8.492
REMARK  Name = 
REMARK  12 active torsions:
REMARK  status: ('A' for Active; 'I' for Inactive)
REMARK    1  A    between atoms: C_1  and  C_2
REMARK    2  A    between atoms: C_2  and  C_3
REMARK    3  A    between atoms: C_3  and  C_4
REMARK    4  A    between atoms: C_4  and  C_5
REMARK    5  A    between atoms: C_5  and  C_6
REMARK    6  A    between atoms: N_8  and  C_9
REMARK    7  A    between atoms: C_17  and  C_18
REMARK    8  A    between atoms: C_18  and  C_19
REMARK    9  A    between atoms: N_21  and  C_22
REMARK   10  A    between atoms: C_22  and  C_23
REMARK   11  A    between atoms: C_26  and  O_27
REMARK   12  A    between atoms: O_27  and  C_28
REMARK                            x       y       z     vdW  Elec       q    Type
REMARK                         _______ _______ _______ _____ _____    ______ ____
ROOT
ATOM      1  C   UNL     1       5.596   5.445  16.820  0.00  0.00    +0.000 C 
ATOM      2  C   UNL     1       4.461   6.038  17.645  0.00  0.00    +0.000 C 
ATOM      3  N   UNL     1       4.326   5.150  18.780  0.00  0.00    +0.000 N 
ATOM      4  C   UNL     1       5.458   4.356  18.926  0.00  0.00    +0.000 C 
ATOM      5  O   UNL     1       5.686   3.480  19.742  0.00  0.00    +0.000 OA
ATOM      6  C   UNL     1       6.478   4.802  17.901  0.00  0.00    +0.000 C 
ENDROOT
BRANCH   3   7
ATOM      7  C   UNL     1       3.082   5.079  19.574  0.00  0.00    +0.000 C 
ATOM      8  C   UNL     1       1.808   5.460  18.812  0.00  0.00    +0.000 C 
ATOM      9  C   UNL     1       1.378   4.431  17.776  0.00  0.00    +0.000 C 
ATOM     10  C   UNL     1       1.334   3.006  18.327  0.00  0.00    +0.000 C 
ATOM     11  C   UNL     1       2.485   2.606  19.251  0.00  0.00    +0.000 C 
ATOM     12  C   UNL     1       2.886   3.702  20.234  0.00  0.00    +0.000 C 
ENDBRANCH   3   7
BRANCH   1  13
ATOM     13  C   UNL     1       5.131   4.378  15.796  0.00  0.00    +0.000 C 
BRANCH  13  14
ATOM     14  C   UNL     1       5.464   4.693  14.334  0.00  0.00    +0.000 C 
BRANCH  14  15
ATOM     15  C   UNL     1       6.699   3.975  13.807  0.00  0.00    +0.000 C 
BRANCH  15  17
ATOM     16  C   UNL     1       5.255   3.119  11.934  0.00  0.00    +0.000 C 
ATOM     17  C   UNL     1       6.568   3.787  12.296  0.00  0.00    +0.000 C 
ENDBRANCH  15  17
ENDBRANCH  14  15
ENDBRANCH  13  14
ENDBRANCH   1  13
BRANCH   6  18
ATOM     18  C   UNL     1       7.438   5.780  18.584  0.00  0.00    +0.000 C 
BRANCH  18  19
ATOM     19  C   UNL     1       7.734   6.941  17.668  0.00  0.00    +0.000 C 
ATOM     20  O   UNL     1       7.775   6.792  16.434  0.00  0.00    +0.000 OA
ATOM     21  N   UNL     1       7.978   8.133  18.292  0.00  0.00    +0.000 N 
ATOM     22  H   UNL     1       7.895   8.213  19.307  0.00  0.00    +0.000 HD
BRANCH  21  23
ATOM     23  C   UNL     1       8.216   9.317  17.512  0.00  0.00    +0.000 C 
BRANCH  23  24
ATOM     24  C   UNL     1       8.816  10.411  18.351  0.00  0.00    +0.000 A 
ATOM     25  C   UNL     1       8.912  11.713  17.842  0.00  0.00    +0.000 A 
ATOM     26  C   UNL     1       9.504  12.724  18.604  0.00  0.00    +0.000 A 
ATOM     27  C   UNL     1       9.983  12.461  19.884  0.00  0.00    +0.000 A 
ATOM     28  C   UNL     1       9.906  11.162  20.396  0.00  0.00    +0.000 A 
ATOM     29  C   UNL     1       9.325  10.143  19.624  0.00  0.00    +0.000 A 
BRANCH  27  30
ATOM     30  O   UNL     1      10.541  13.531  20.528  0.00  0.00    +0.000 OA
ATOM     31  C   UNL     1      10.071  14.811  20.124  0.00  0.00    +0.000 C 
ENDBRANCH  27  30
ENDBRANCH  23  24
ENDBRANCH  21  23
ENDBRANCH  18  19
ENDBRANCH   6  18
TORSDOF 10
ENDMDL
MODEL 7
REMARK VINA RESULT:      -7.4      5.271      8.566
REMARK  Name = 
REMARK  12 active torsions:
REMARK  status: ('A' for Active; 'I' for Inactive)
REMARK    1  A    between atoms: C_1  and  C_2
REMARK    2  A    between atoms: C_2  and  C_3
REMARK    3  A    between atoms: C_3  and  C_4
REMARK    4  A    between atoms: C_4  and  C_5
REMARK    5  A    between atoms: C_5  and  C_6
REMARK    6  A    between atoms: N_8  and  C_9
REMARK    7  A    between atoms: C_17  and  C_18
REMARK    8  A    between atoms: C_18  and  C_19
REMARK    9  A    between atoms: N_21  and  C_22
REMARK   10  A    between atoms: C_22  and  C_23
REMARK   11  A    between atoms: C_26  and  O_27
REMARK   12  A    between atoms: O_27  and  C_28
REMARK                            x       y       z     vdW  Elec       q    Type
REMARK                         _______ _______ _______ _____ _____    ______ ____
ROOT
ATOM      1  C   UNL     1       4.701   5.739  16.561  0.00  0.00    +0.000 C 
ATOM      2  C   UNL     1       3.599   5.545  17.595  0.00  0.00    +0.000 C 
ATOM      3  N   UNL     1       4.256   4.922  18.724  0.00  0.00    +0.000 N 
ATOM      4  C   UNL     1       5.636   5.077  18.642  0.00  0.00    +0.000 C 
ATOM      5  O   UNL     1       6.504   4.661  19.389  0.00  0.00    +0.000 OA
ATOM      6  C   UNL     1       5.938   5.954  17.447  0.00  0.00    +0.000 C 
ENDROOT
BRANCH   3   7
ATOM      7  C   UNL     1       3.507   4.155  19.740  0.00  0.00    +0.000 C 
ATOM      8  C   UNL     1       1.991   4.379  19.729  0.00  0.00    +0.000 C 
ATOM      9  C   UNL     1       1.284   3.763  18.530  0.00  0.00    +0.000 C 
ATOM     10  C   UNL     1       1.667   2.302  18.293  0.00  0.00    +0.000 C 
ATOM     11  C   UNL     1       3.147   1.957  18.465  0.00  0.00    +0.000 C 
ATOM     12  C   UNL     1       3.796   2.644  19.664  0.00  0.00    +0.000 C 
ENDBRANCH   3   7
BRANCH   1  13
ATOM     13  C   UNL     1       4.907   4.515  15.632  0.00  0.00    +0.000 C 
BRANCH  13  14
ATOM     14  C   UNL     1       6.360   4.239  15.235  0.00  0.00    +0.000 C 
BRANCH  14  15
ATOM     15  C   UNL     1       6.570   4.031  13.741  0.00  0.00    +0.000 C 
BRANCH  15  17
ATOM     16  C   UNL     1       5.515   2.978  11.715  0.00  0.00    +0.000 C 
ATOM     17  C   UNL     1       5.278   3.504  13.118  0.00  0.00    +0.000 C 
ENDBRANCH  15  17
ENDBRANCH  14  15
ENDBRANCH  13  14
ENDBRANCH   1  13
BRANCH   6  18
ATOM     18  C   UNL     1       6.104   7.392  17.946  0.00  0.00    +0.000 C 
BRANCH  18  19
ATOM     19  C   UNL     1       7.410   7.963  17.453  0.00  0.00    +0.000 C 
ATOM     20  O   UNL     1       8.108   7.352  16.625  0.00  0.00    +0.000 OA
ATOM     21  N   UNL     1       7.769   9.164  18.001  0.00  0.00    +0.000 N 
ATOM     22  H   UNL     1       7.143   9.645  18.649  0.00  0.00    +0.000 HD
BRANCH  21  23
ATOM     23  C   UNL     1       8.967   9.825  17.561  0.00  0.00    +0.000 C 
BRANCH  23  24
ATOM     24  C   UNL     1       9.396  10.885  18.539  0.00  0.00    +0.000 A 
ATOM     25  C   UNL     1       9.347  10.629  19.915  0.00  0.00    +0.000 A 
ATOM     26  C   UNL     1       9.707  11.624  20.828  0.00  0.00    +0.000 A 
ATOM     27  C   UNL     1      10.142  12.871  20.386  0.00  0.00    +0.000 A 
ATOM     28  C   UNL     1      10.179  13.141  19.014  0.00  0.00    +0.000 A 
ATOM     29  C   UNL     1       9.803  12.146  18.098  0.00  0.00    +0.000 A 
BRANCH  27  30
ATOM     30  O   UNL     1      10.464  13.759  21.374  0.00  0.00    +0.000 OA
ATOM     31  C   UNL     1      10.145  15.120  21.112  0.00  0.00    +0.000 C 
ENDBRANCH  27  30
ENDBRANCH  23  24
ENDBRANCH  21  23
ENDBRANCH  18  19
ENDBRANCH   6  18
TORSDOF 10
ENDMDL
MODEL 8
REMARK VINA RESULT:      -7.4      5.098      8.104
REMARK  Name = 
REMARK  12 active torsions:
REMARK  status: ('A' for Active; 'I' for Inactive)
REMARK    1  A    between atoms: C_1  and  C_2
REMARK    2  A    between atoms: C_2  and  C_3
REMARK    3  A    between atoms: C_3  and  C_4
REMARK    4  A    between atoms: C_4  and  C_5
REMARK    5  A    between atoms: C_5  and  C_6
REMARK    6  A    between atoms: N_8  and  C_9
REMARK    7  A    between atoms: C_17  and  C_18
REMARK    8  A    between atoms: C_18  and  C_19
REMARK    9  A    between atoms: N_21  and  C_22
REMARK   10  A    between atoms: C_22  and  C_23
REMARK   11  A    between atoms: C_26  and  O_27
REMARK   12  A    between atoms: O_27  and  C_28
REMARK                            x       y       z     vdW  Elec       q    Type
REMARK                         _______ _______ _______ _____ _____    ______ ____
ROOT
ATOM      1  C   UNL     1       6.282   5.871  16.105  0.00  0.00    +0.000 C 
ATOM      2  C   UNL     1       4.972   5.450  16.761  0.00  0.00    +0.000 C 
ATOM      3  N   UNL     1       5.338   5.073  18.109  0.00  0.00    +0.000 N 
ATOM      4  C   UNL     1       6.592   5.573  18.440  0.00  0.00    +0.000 C 
ATOM      5  O   UNL     1       7.232   5.432  19.468  0.00  0.00    +0.000 OA
ATOM      6  C   UNL     1       7.069   6.439  17.295  0.00  0.00    +0.000 C 
ENDROOT
BRANCH   3   7
ATOM      7  C   UNL     1       4.487   4.190  18.932  0.00  0.00    +0.000 C 
ATOM      8  C   UNL     1       3.382   4.906  19.717  0.00  0.00    +0.000 C 
ATOM      9  C   UNL     1       2.249   5.431  18.846  0.00  0.00    +0.000 C 
ATOM     10  C   UNL     1       1.701   4.382  17.878  0.00  0.00    +0.000 C 
ATOM     11  C   UNL     1       2.740   3.497  17.187  0.00  0.00    +0.000 C 
ATOM     12  C   UNL     1       3.866   3.043  18.112  0.00  0.00    +0.000 C 
ENDBRANCH   3   7
BRANCH   1  13
ATOM     13  C   UNL     1       7.058   4.696  15.454  0.00  0.00    +0.000 C 
BRANCH  13  14
ATOM     14  C   UNL     1       6.194   3.708  14.664  0.00  0.00    +0.000 C 
BRANCH  14  15
ATOM     15  C   UNL     1       5.645   4.265  13.357  0.00  0.00    +0.000 C 
BRANCH  15  17
ATOM     16  C   UNL     1       4.417   3.160  11.460  0.00  0.00    +0.000 C 
ATOM     17  C   UNL     1       5.690   3.176  12.285  0.00  0.00    +0.000 C 
ENDBRANCH  15  17
ENDBRANCH  14  15
ENDBRANCH  13  14
ENDBRANCH   1  13
BRANCH   6  18
ATOM     18  C   UNL     1       6.729   7.894  17.629  0.00  0.00    +0.000 C 
BRANCH  18  19
ATOM     19  C   UNL     1       7.970   8.628  18.072  0.00  0.00    +0.000 C 
ATOM     20  O   UNL     1       8.804   8.087  18.819  0.00  0.00    +0.000 OA
ATOM     21  N   UNL     1       8.084   9.914  17.621  0.00  0.00    +0.000 N 
ATOM     22  H   UNL     1       7.391  10.300  16.977  0.00  0.00    +0.000 HD
BRANCH  21  23
ATOM     23  C   UNL     1       9.254  10.685  17.937  0.00  0.00    +0.000 C 
BRANCH  23  24
ATOM     24  C   UNL     1       8.933  12.152  18.024  0.00  0.00    +0.000 A 
ATOM     25  C   UNL     1       7.748  12.645  17.462  0.00  0.00    +0.000 A 
ATOM     26  C   UNL     1       7.466  14.013  17.506  0.00  0.00    +0.000 A 
ATOM     27  C   UNL     1       8.340  14.900  18.127  0.00  0.00    +0.000 A 
ATOM     28  C   UNL     1       9.533  14.420  18.678  0.00  0.00    +0.000 A 
ATOM     29  C   UNL     1       9.824  13.048  18.619  0.00  0.00    +0.000 A 
BRANCH  27  30
ATOM     30  O   UNL     1       7.954  16.212  18.103  0.00  0.00    +0.000 OA
ATOM     31  C   UNL     1       8.617  17.069  19.024  0.00  0.00    +0.000 C 
ENDBRANCH  27  30
ENDBRANCH  23  24
ENDBRANCH  21  23
ENDBRANCH  18  19
ENDBRANCH   6  18
TORSDOF 10
ENDMDL
MODEL 9
REMARK VINA RESULT:      -7.4      2.547      4.817
REMARK  Name = 
REMARK  12 active torsions:
REMARK  status: ('A' for Active; 'I' for Inactive)
REMARK    1  A    between atoms: C_1  and  C_2
REMARK    2  A    between atoms: C_2  and  C_3
REMARK    3  A    between atoms: C_3  and  C_4
REMARK    4  A    between atoms: C_4  and  C_5
REMARK    5  A    between atoms: C_5  and  C_6
REMARK    6  A    between atoms: N_8  and  C_9
REMARK    7  A    between atoms: C_17  and  C_18
REMARK    8  A    between atoms: C_18  and  C_19
REMARK    9  A    between atoms: N_21  and  C_22
REMARK   10  A    between atoms: C_22  and  C_23
REMARK   11  A    between atoms: C_26  and  O_27
REMARK   12  A    between atoms: O_27  and  C_28
REMARK                            x       y       z     vdW  Elec       q    Type
REMARK                         _______ _______ _______ _____ _____    ______ ____
ROOT
ATOM      1  C   UNL     1       3.653   6.443  17.517  0.00  0.00    +0.000 C 
ATOM      2  C   UNL     1       2.790   5.188  17.542  0.00  0.00    +0.000 C 
ATOM      3  N   UNL     1       2.229   5.152  18.876  0.00  0.00    +0.000 N 
ATOM      4  C   UNL     1       2.337   6.394  19.493  0.00  0.00    +0.000 C 
ATOM      5  O   UNL     1       2.005   6.727  20.617  0.00  0.00    +0.000 OA
ATOM      6  C   UNL     1       2.902   7.369  18.485  0.00  0.00    +0.000 C 
ENDROOT
BRANCH   3   7
ATOM      7  C   UNL     1       1.717   3.903  19.475  0.00  0.00    +0.000 C 
ATOM      8  C   UNL     1       1.300   2.827  18.467  0.00  0.00    +0.000 C 
ATOM      9  C   UNL     1       2.469   2.173  17.744  0.00  0.00    +0.000 C 
ATOM     10  C   UNL     1       3.572   1.700  18.691  0.00  0.00    +0.000 C 
ATOM     11  C   UNL     1       3.923   2.645  19.841  0.00  0.00    +0.000 C 
ATOM     12  C   UNL     1       2.703   3.293  20.490  0.00  0.00    +0.000 C 
ENDBRANCH   3   7
BRANCH   1  13
ATOM     13  C   UNL     1       5.106   6.211  18.008  0.00  0.00    +0.000 C 
BRANCH  13  14
ATOM     14  C   UNL     1       5.773   4.938  17.479  0.00  0.00    +0.000 C 
BRANCH  14  15
ATOM     15  C   UNL     1       7.123   5.172  16.812  0.00  0.00    +0.000 C 
BRANCH  15  17
ATOM     16  C   UNL     1       5.742   4.021  15.053  0.00  0.00    +0.000 C 
ATOM     17  C   UNL     1       7.047   4.734  15.349  0.00  0.00    +0.000 C 
ENDBRANCH  15  17
ENDBRANCH  14  15
ENDBRANCH  13  14
ENDBRANCH   1  13
BRANCH   6  18
ATOM     18  C   UNL     1       1.730   8.120  17.845  0.00  0.00    +0.000 C 
BRANCH  18  19
ATOM     19  C   UNL     1       1.779   9.579  18.226  0.00  0.00    +0.000 C 
ATOM     20  O   UNL     1       2.329  10.417  17.491  0.00  0.00    +0.000 OA
ATOM     21  N   UNL     1       1.209   9.890  19.430  0.00  0.00    +0.000 N 
ATOM     22  H   UNL     1       0.736   9.171  19.980  0.00  0.00    +0.000 HD
BRANCH  21  23
ATOM     23  C   UNL     1       1.151  11.258  19.865  0.00  0.00    +0.000 C 
BRANCH  23  24
ATOM     24  C   UNL     1      -0.021  11.491  20.779  0.00  0.00    +0.000 A 
ATOM     25  C   UNL     1      -0.049  10.897  22.048  0.00  0.00    +0.000 A 
ATOM     26  C   UNL     1      -1.153  11.079  22.885  0.00  0.00    +0.000 A 
ATOM     27  C   UNL     1      -2.227  11.868  22.483  0.00  0.00    +0.000 A 
ATOM     28  C   UNL     1      -2.216  12.452  21.212  0.00  0.00    +0.000 A 
ATOM     29  C   UNL     1      -1.113  12.257  20.366  0.00  0.00    +0.000 A 
BRANCH  27  30
ATOM     30  O   UNL     1      -3.247  11.968  23.388  0.00  0.00    +0.000 OA
ATOM     31  C   UNL     1      -4.335  12.802  23.006  0.00  0.00    +0.000 C 
ENDBRANCH  27  30
ENDBRANCH  23  24
ENDBRANCH  21  23
ENDBRANCH  18  19
ENDBRANCH   6  18
TORSDOF 10
ENDMDL
