MODEL 1
REMARK VINA RESULT:      -7.7      0.000      0.000
REMARK  Name = 
REMARK  6 active torsions:
REMARK  status: ('A' for Active; 'I' for Inactive)
REMARK    1  A    between atoms: C_1  and  C_2
REMARK    2  A    between atoms: C_2  and  C_3
REMARK    3  A    between atoms: C_5  and  N_6
REMARK    4  A    between atoms: N_6  and  C_7
REMARK    5  A    between atoms: C_7  and  N_9
REMARK    6  A    between atoms: N_9  and  C_10
REMARK                            x       y       z     vdW  Elec       q    Type
REMARK                         _______ _______ _______ _____ _____    ______ ____
ROOT
ATOM      1  C   UNL     1       7.976   6.539  18.529  0.00  0.00    +0.000 C 
ATOM      2  C   UNL     1       6.945   6.153  17.455  0.00  0.00    +0.000 C 
ATOM      3  C   UNL     1       6.021   7.360  17.230  0.00  0.00    +0.000 C 
ATOM      4  C   UNL     1       6.232   4.882  17.927  0.00  0.00    +0.000 C 
ATOM      5  C   UNL     1       5.213   4.369  16.904  0.00  0.00    +0.000 C 
ATOM      6  C   UNL     1       5.807   4.475  15.516  0.00  0.00    +0.000 A 
ATOM      7  C   UNL     1       5.207   3.810  14.434  0.00  0.00    +0.000 A 
ATOM      8  C   UNL     1       5.817   3.820  13.175  0.00  0.00    +0.000 A 
ATOM      9 BR   UNL     1       5.006   2.900  11.733  0.00  0.00    +0.000 Br
ATOM     10  C   UNL     1       7.021   4.486  12.971  0.00  0.00    +0.000 A 
ATOM     11  C   UNL     1       7.613   5.168  14.029  0.00  0.00    +0.000 A 
ATOM     12  C   UNL     1       7.004   5.177  15.288  0.00  0.00    +0.000 A 
ATOM     13  O   UNL     1       7.677   5.887  16.249  0.00  0.00    +0.000 OA
ENDROOT
BRANCH   5  14
ATOM     14  N   UNL     1       3.907   5.037  17.008  0.00  0.00    +0.000 N 
ATOM     15  H   UNL     1       3.787   5.868  16.443  0.00  0.00    +0.000 HD
BRANCH  14  16
ATOM     16  C   UNL     1       2.992   4.889  18.040  0.00  0.00    +0.000 C 
ATOM     17  S   UNL     1       1.768   3.747  18.104  0.00  0.00    +0.000 S 
BRANCH  16  18
ATOM     18  N   UNL     1       3.160   5.883  18.991  0.00  0.00    +0.000 N 
ATOM     19  H   UNL     1       4.071   5.880  19.435  0.00  0.00    +0.000 HD
BRANCH  18  20
ATOM     20  C   UNL     1       2.424   7.090  19.066  0.00  0.00    +0.000 A 
ATOM     21  C   UNL     1       2.283   7.882  17.927  0.00  0.00    +0.000 A 
ATOM     22  C   UNL     1       1.609   9.101  18.015  0.00  0.00    +0.000 A 
ATOM     23  C   UNL     1       1.126   9.502  19.250  0.00  0.00    +0.000 A 
ATOM     24  N   UNL     1       1.260   8.775  20.377  0.00  0.00    +0.000 NA
ATOM     25  C   UNL     1       1.896   7.583  20.259  0.00  0.00    +0.000 A 
ENDBRANCH  18  20
ENDBRANCH  16  18
ENDBRANCH  14  16
ENDBRANCH   5  14
TORSDOF 4
ENDMDL
MODEL 2
REMARK VINA RESULT:      -7.7      2.524      3.233
REMARK  Name = 
REMARK  6 active torsions:
REMARK  status: ('A' for Active; 'I' for Inactive)
REMARK    1  A    between atoms: C_1  and  C_2
REMARK    2  A    between atoms: C_2  and  C_3
REMARK    3  A    between atoms: C_5  and  N_6
REMARK    4  A    between atoms: N_6  and  C_7
REMARK    5  A    between atoms: C_7  and  N_9
REMARK    6  A    between atoms: N_9  and  C_10
REMARK                            x       y       z     vdW  Elec       q    Type
REMARK                         _______ _______ _______ _____ _____    ______ ____
ROOT
ATOM      1  C   UNL     1       7.803   6.605  18.085  0.00  0.00    +0.000 C 
ATOM      2  C   UNL     1       6.853   6.076  16.998  0.00  0.00    +0.000 C 
ATOM      3  C   UNL     1       5.787   7.151  16.734  0.00  0.00    +0.000 C 
ATOM      4  C   UNL     1       6.298   4.731  17.478  0.00  0.00    +0.000 C 
ATOM      5  C   UNL     1       5.375   4.077  16.445  0.00  0.00    +0.000 C 
ATOM      6  C   UNL     1       5.980   4.237  15.066  0.00  0.00    +0.000 A 
ATOM      7  C   UNL     1       5.493   3.485  13.985  0.00  0.00    +0.000 A 
ATOM      8  C   UNL     1       6.123   3.556  12.738  0.00  0.00    +0.000 A 
ATOM      9 BR   UNL     1       5.468   2.518  11.296  0.00  0.00    +0.000 Br
ATOM     10  C   UNL     1       7.237   4.366  12.545  0.00  0.00    +0.000 A 
ATOM     11  C   UNL     1       7.714   5.134  13.603  0.00  0.00    +0.000 A 
ATOM     12  C   UNL     1       7.082   5.084  14.850  0.00  0.00    +0.000 A 
ATOM     13  O   UNL     1       7.638   5.888  15.811  0.00  0.00    +0.000 OA
ENDROOT
BRANCH   5  14
ATOM     14  N   UNL     1       3.992   4.574  16.512  0.00  0.00    +0.000 N 
ATOM     15  H   UNL     1       3.703   5.185  15.759  0.00  0.00    +0.000 HD
BRANCH  14  16
ATOM     16  C   UNL     1       3.191   4.613  17.643  0.00  0.00    +0.000 C 
ATOM     17  S   UNL     1       2.649   6.001  18.409  0.00  0.00    +0.000 S 
BRANCH  16  18
ATOM     18  N   UNL     1       2.964   3.335  18.128  0.00  0.00    +0.000 N 
ATOM     19  H   UNL     1       3.435   2.605  17.606  0.00  0.00    +0.000 HD
BRANCH  18  20
ATOM     20  C   UNL     1       2.558   3.008  19.444  0.00  0.00    +0.000 A 
ATOM     21  C   UNL     1       1.215   3.124  19.798  0.00  0.00    +0.000 A 
ATOM     22  C   UNL     1       0.823   2.859  21.111  0.00  0.00    +0.000 A 
ATOM     23  C   UNL     1       1.797   2.519  22.037  0.00  0.00    +0.000 A 
ATOM     24  N   UNL     1       3.108   2.417  21.738  0.00  0.00    +0.000 NA
ATOM     25  C   UNL     1       3.458   2.653  20.449  0.00  0.00    +0.000 A 
ENDBRANCH  18  20
ENDBRANCH  16  18
ENDBRANCH  14  16
ENDBRANCH   5  14
TORSDOF 4
ENDMDL
MODEL 3
REMARK VINA RESULT:      -7.6      1.188      1.364
REMARK  Name = 
REMARK  6 active torsions:
REMARK  status: ('A' for Active; 'I' for Inactive)
REMARK    1  A    between atoms: C_1  and  C_2
REMARK    2  A    between atoms: C_2  and  C_3
REMARK    3  A    between atoms: C_5  and  N_6
REMARK    4  A    between atoms: N_6  and  C_7
REMARK    5  A    between atoms: C_7  and  N_9
REMARK    6  A    between atoms: N_9  and  C_10
REMARK                            x       y       z     vdW  Elec       q    Type
REMARK                         _______ _______ _______ _____ _____    ______ ____
ROOT
ATOM      1  C   UNL     1       7.800   6.641  18.171  0.00  0.00    +0.000 C 
ATOM      2  C   UNL     1       6.858   6.022  17.125  0.00  0.00    +0.000 C 
ATOM      3  C   UNL     1       5.656   6.965  16.952  0.00  0.00    +0.000 C 
ATOM      4  C   UNL     1       6.500   4.610  17.596  0.00  0.00    +0.000 C 
ATOM      5  C   UNL     1       5.603   3.870  16.599  0.00  0.00    +0.000 C 
ATOM      6  C   UNL     1       6.100   4.133  15.193  0.00  0.00    +0.000 A 
ATOM      7  C   UNL     1       5.645   3.351  14.120  0.00  0.00    +0.000 A 
ATOM      8  C   UNL     1       6.185   3.524  12.841  0.00  0.00    +0.000 A 
ATOM      9 BR   UNL     1       5.575   2.445  11.411  0.00  0.00    +0.000 Br
ATOM     10  C   UNL     1       7.179   4.469  12.610  0.00  0.00    +0.000 A 
ATOM     11  C   UNL     1       7.622   5.266  13.660  0.00  0.00    +0.000 A 
ATOM     12  C   UNL     1       7.077   5.113  14.939  0.00  0.00    +0.000 A 
ATOM     13  O   UNL     1       7.588   5.958  15.890  0.00  0.00    +0.000 OA
ENDROOT
BRANCH   5  14
ATOM     14  N   UNL     1       4.176   4.192  16.759  0.00  0.00    +0.000 N 
ATOM     15  H   UNL     1       3.901   5.130  16.495  0.00  0.00    +0.000 HD
BRANCH  14  16
ATOM     16  C   UNL     1       3.270   3.515  17.559  0.00  0.00    +0.000 C 
ATOM     17  S   UNL     1       3.448   1.949  18.129  0.00  0.00    +0.000 S 
BRANCH  16  18
ATOM     18  N   UNL     1       2.129   4.275  17.760  0.00  0.00    +0.000 N 
ATOM     19  H   UNL     1       1.266   3.790  17.544  0.00  0.00    +0.000 HD
BRANCH  18  20
ATOM     20  C   UNL     1       2.024   5.403  18.609  0.00  0.00    +0.000 A 
ATOM     21  C   UNL     1       2.255   6.677  18.091  0.00  0.00    +0.000 A 
ATOM     22  C   UNL     1       2.210   7.784  18.940  0.00  0.00    +0.000 A 
ATOM     23  C   UNL     1       1.968   7.575  20.288  0.00  0.00    +0.000 A 
ATOM     24  N   UNL     1       1.761   6.358  20.830  0.00  0.00    +0.000 NA
ATOM     25  C   UNL     1       1.783   5.302  19.979  0.00  0.00    +0.000 A 
ENDBRANCH  18  20
ENDBRANCH  16  18
ENDBRANCH  14  16
ENDBRANCH   5  14
TORSDOF 4
ENDMDL
MODEL 4
REMARK VINA RESULT:      -7.4      1.112      1.510
REMARK  Name = 
REMARK  6 active torsions:
REMARK  status: ('A' for Active; 'I' for Inactive)
REMARK    1  A    between atoms: C_1  and  C_2
REMARK    2  A    between atoms: C_2  and  C_3
REMARK    3  A    between atoms: C_5  and  N_6
REMARK    4  A    between atoms: N_6  and  C_7
REMARK    5  A    between atoms: C_7  and  N_9
REMARK    6  A    between atoms: N_9  and  C_10
REMARK                            x       y       z     vdW  Elec       q    Type
REMARK                         _______ _______ _______ _____ _____    ______ ____
ROOT
ATOM      1  C   UNL     1       7.799   6.707  18.122  0.00  0.00    +0.000 C 
ATOM      2  C   UNL     1       6.850   6.066  17.096  0.00  0.00    +0.000 C 
ATOM      3  C   UNL     1       5.632   6.988  16.935  0.00  0.00    +0.000 C 
ATOM      4  C   UNL     1       6.522   4.652  17.583  0.00  0.00    +0.000 C 
ATOM      5  C   UNL     1       5.621   3.890  16.606  0.00  0.00    +0.000 C 
ATOM      6  C   UNL     1       6.092   4.149  15.191  0.00  0.00    +0.000 A 
ATOM      7  C   UNL     1       5.633   3.351  14.131  0.00  0.00    +0.000 A 
ATOM      8  C   UNL     1       6.151   3.523  12.843  0.00  0.00    +0.000 A 
ATOM      9 BR   UNL     1       5.536   2.423  11.431  0.00  0.00    +0.000 Br
ATOM     10  C   UNL     1       7.126   4.482  12.589  0.00  0.00    +0.000 A 
ATOM     11  C   UNL     1       7.573   5.294  13.626  0.00  0.00    +0.000 A 
ATOM     12  C   UNL     1       7.050   5.142  14.914  0.00  0.00    +0.000 A 
ATOM     13  O   UNL     1       7.563   6.003  15.850  0.00  0.00    +0.000 OA
ENDROOT
BRANCH   5  14
ATOM     14  N   UNL     1       4.193   4.191  16.786  0.00  0.00    +0.000 N 
ATOM     15  H   UNL     1       3.831   4.966  16.245  0.00  0.00    +0.000 HD
BRANCH  14  16
ATOM     16  C   UNL     1       3.403   3.800  17.856  0.00  0.00    +0.000 C 
ATOM     17  S   UNL     1       3.678   2.471  18.840  0.00  0.00    +0.000 S 
BRANCH  16  18
ATOM     18  N   UNL     1       2.280   4.606  17.958  0.00  0.00    +0.000 N 
ATOM     19  H   UNL     1       1.417   4.148  17.689  0.00  0.00    +0.000 HD
BRANCH  18  20
ATOM     20  C   UNL     1       2.158   5.756  18.774  0.00  0.00    +0.000 A 
ATOM     21  C   UNL     1       1.813   5.612  20.117  0.00  0.00    +0.000 A 
ATOM     22  C   UNL     1       1.634   6.748  20.908  0.00  0.00    +0.000 A 
ATOM     23  C   UNL     1       1.775   7.994  20.318  0.00  0.00    +0.000 A 
ATOM     24  N   UNL     1       2.087   8.174  19.019  0.00  0.00    +0.000 NA
ATOM     25  C   UNL     1       2.282   7.054  18.279  0.00  0.00    +0.000 A 
ENDBRANCH  18  20
ENDBRANCH  16  18
ENDBRANCH  14  16
ENDBRANCH   5  14
TORSDOF 4
ENDMDL
MODEL 5
REMARK VINA RESULT:      -7.4      2.018      3.097
REMARK  Name = 
REMARK  6 active torsions:
REMARK  status: ('A' for Active; 'I' for Inactive)
REMARK    1  A    between atoms: C_1  and  C_2
REMARK    2  A    between atoms: C_2  and  C_3
REMARK    3  A    between atoms: C_5  and  N_6
REMARK    4  A    between atoms: N_6  and  C_7
REMARK    5  A    between atoms: C_7  and  N_9
REMARK    6  A    between atoms: N_9  and  C_10
REMARK                            x       y       z     vdW  Elec       q    Type
REMARK                         _______ _______ _______ _____ _____    ______ ____
ROOT
ATOM      1  C   UNL     1       8.002   6.059  18.788  0.00  0.00    +0.000 C 
ATOM      2  C   UNL     1       6.982   5.946  17.643  0.00  0.00    +0.000 C 
ATOM      3  C   UNL     1       6.423   7.351  17.366  0.00  0.00    +0.000 C 
ATOM      4  C   UNL     1       5.932   4.910  18.053  0.00  0.00    +0.000 C 
ATOM      5  C   UNL     1       4.887   4.671  16.959  0.00  0.00    +0.000 C 
ATOM      6  C   UNL     1       5.580   4.606  15.615  0.00  0.00    +0.000 A 
ATOM      7  C   UNL     1       4.903   4.111  14.489  0.00  0.00    +0.000 A 
ATOM      8  C   UNL     1       5.578   3.951  13.274  0.00  0.00    +0.000 A 
ATOM      9 BR   UNL     1       4.655   3.261  11.772  0.00  0.00    +0.000 Br
ATOM     10  C   UNL     1       6.925   4.277  13.159  0.00  0.00    +0.000 A 
ATOM     11  C   UNL     1       7.601   4.790  14.261  0.00  0.00    +0.000 A 
ATOM     12  C   UNL     1       6.932   4.970  15.476  0.00  0.00    +0.000 A 
ATOM     13  O   UNL     1       7.699   5.487  16.486  0.00  0.00    +0.000 OA
ENDROOT
BRANCH   5  14
ATOM     14  N   UNL     1       3.796   5.658  16.980  0.00  0.00    +0.000 N 
ATOM     15  H   UNL     1       3.925   6.474  16.396  0.00  0.00    +0.000 HD
BRANCH  14  16
ATOM     16  C   UNL     1       2.825   5.783  17.962  0.00  0.00    +0.000 C 
ATOM     17  S   UNL     1       2.506   7.168  18.851  0.00  0.00    +0.000 S 
BRANCH  16  18
ATOM     18  N   UNL     1       2.197   4.569  18.189  0.00  0.00    +0.000 N 
ATOM     19  H   UNL     1       2.046   4.019  17.351  0.00  0.00    +0.000 HD
BRANCH  18  20
ATOM     20  C   UNL     1       2.169   3.867  19.418  0.00  0.00    +0.000 A 
ATOM     21  C   UNL     1       3.332   3.258  19.888  0.00  0.00    +0.000 A 
ATOM     22  C   UNL     1       3.291   2.516  21.070  0.00  0.00    +0.000 A 
ATOM     23  C   UNL     1       2.078   2.382  21.725  0.00  0.00    +0.000 A 
ATOM     24  N   UNL     1       0.929   2.938  21.292  0.00  0.00    +0.000 NA
ATOM     25  C   UNL     1       1.002   3.676  20.156  0.00  0.00    +0.000 A 
ENDBRANCH  18  20
ENDBRANCH  16  18
ENDBRANCH  14  16
ENDBRANCH   5  14
TORSDOF 4
ENDMDL
MODEL 6
REMARK VINA RESULT:      -7.3      0.711      1.096
REMARK  Name = 
REMARK  6 active torsions:
REMARK  status: ('A' for Active; 'I' for Inactive)
REMARK    1  A    between atoms: C_1  and  C_2
REMARK    2  A    between atoms: C_2  and  C_3
REMARK    3  A    between atoms: C_5  and  N_6
REMARK    4  A    between atoms: N_6  and  C_7
REMARK    5  A    between atoms: C_7  and  N_9
REMARK    6  A    between atoms: N_9  and  C_10
REMARK                            x       y       z     vdW  Elec       q    Type
REMARK                         _______ _______ _______ _____ _____    ______ ____
ROOT
ATOM      1  C   UNL     1       7.990   5.773  18.907  0.00  0.00    +0.000 C 
ATOM      2  C   UNL     1       6.949   5.663  17.780  0.00  0.00    +0.000 C 
ATOM      3  C   UNL     1       6.266   7.031  17.629  0.00  0.00    +0.000 C 
ATOM      4  C   UNL     1       6.003   4.511  18.130  0.00  0.00    +0.000 C 
ATOM      5  C   UNL     1       4.949   4.269  17.045  0.00  0.00    +0.000 C 
ATOM      6  C   UNL     1       5.605   4.368  15.684  0.00  0.00    +0.000 A 
ATOM      7  C   UNL     1       4.939   3.905  14.539  0.00  0.00    +0.000 A 
ATOM      8  C   UNL     1       5.589   3.899  13.299  0.00  0.00    +0.000 A 
ATOM      9 BR   UNL     1       4.683   3.251  11.769  0.00  0.00    +0.000 Br
ATOM     10  C   UNL     1       6.900   4.348  13.179  0.00  0.00    +0.000 A 
ATOM     11  C   UNL     1       7.562   4.830  14.303  0.00  0.00    +0.000 A 
ATOM     12  C   UNL     1       6.917   4.857  15.544  0.00  0.00    +0.000 A 
ATOM     13  O   UNL     1       7.668   5.358  16.575  0.00  0.00    +0.000 OA
ENDROOT
BRANCH   5  14
ATOM     14  N   UNL     1       3.780   5.153  17.170  0.00  0.00    +0.000 N 
ATOM     15  H   UNL     1       3.774   5.968  16.570  0.00  0.00    +0.000 HD
BRANCH  14  16
ATOM     16  C   UNL     1       2.906   5.206  18.245  0.00  0.00    +0.000 C 
ATOM     17  S   UNL     1       1.591   4.195  18.486  0.00  0.00    +0.000 S 
BRANCH  16  18
ATOM     18  N   UNL     1       3.204   6.281  19.067  0.00  0.00    +0.000 N 
ATOM     19  H   UNL     1       4.189   6.375  19.283  0.00  0.00    +0.000 HD
BRANCH  18  20
ATOM     20  C   UNL     1       2.405   7.437  19.242  0.00  0.00    +0.000 A 
ATOM     21  C   UNL     1       1.733   7.633  20.447  0.00  0.00    +0.000 A 
ATOM     22  C   UNL     1       0.899   8.742  20.598  0.00  0.00    +0.000 A 
ATOM     23  C   UNL     1       0.740   9.601  19.523  0.00  0.00    +0.000 A 
ATOM     24  N   UNL     1       1.356   9.435  18.336  0.00  0.00    +0.000 NA
ATOM     25  C   UNL     1       2.182   8.364  18.225  0.00  0.00    +0.000 A 
ENDBRANCH  18  20
ENDBRANCH  16  18
ENDBRANCH  14  16
ENDBRANCH   5  14
TORSDOF 4
ENDMDL
MODEL 7
REMARK VINA RESULT:      -7.0      1.896      2.968
REMARK  Name = 
REMARK  6 active torsions:
REMARK  status: ('A' for Active; 'I' for Inactive)
REMARK    1  A    between atoms: C_1  and  C_2
REMARK    2  A    between atoms: C_2  and  C_3
REMARK    3  A    between atoms: C_5  and  N_6
REMARK    4  A    between atoms: N_6  and  C_7
REMARK    5  A    between atoms: C_7  and  N_9
REMARK    6  A    between atoms: N_9  and  C_10
REMARK                            x       y       z     vdW  Elec       q    Type
REMARK                         _______ _______ _______ _____ _____    ______ ____
ROOT
ATOM      1  C   UNL     1       8.079   6.062  19.081  0.00  0.00    +0.000 C 
ATOM      2  C   UNL     1       7.116   6.090  17.882  0.00  0.00    +0.000 C 
ATOM      3  C   UNL     1       6.890   7.559  17.490  0.00  0.00    +0.000 C 
ATOM      4  C   UNL     1       5.848   5.333  18.284  0.00  0.00    +0.000 C 
ATOM      5  C   UNL     1       4.831   5.247  17.141  0.00  0.00    +0.000 C 
ATOM      6  C   UNL     1       5.559   4.941  15.850  0.00  0.00    +0.000 A 
ATOM      7  C   UNL     1       4.847   4.525  14.714  0.00  0.00    +0.000 A 
ATOM      8  C   UNL     1       5.530   4.139  13.556  0.00  0.00    +0.000 A 
ATOM      9 BR   UNL     1       4.555   3.559  12.041  0.00  0.00    +0.000 Br
ATOM     10  C   UNL     1       6.920   4.161  13.507  0.00  0.00    +0.000 A 
ATOM     11  C   UNL     1       7.636   4.594  14.619  0.00  0.00    +0.000 A 
ATOM     12  C   UNL     1       6.962   4.997  15.776  0.00  0.00    +0.000 A 
ATOM     13  O   UNL     1       7.773   5.409  16.802  0.00  0.00    +0.000 OA
ENDROOT
BRANCH   5  14
ATOM     14  N   UNL     1       3.980   6.443  17.037  0.00  0.00    +0.000 N 
ATOM     15  H   UNL     1       4.303   7.163  16.402  0.00  0.00    +0.000 HD
BRANCH  14  16
ATOM     16  C   UNL     1       3.028   6.853  17.957  0.00  0.00    +0.000 C 
ATOM     17  S   UNL     1       2.131   8.266  17.872  0.00  0.00    +0.000 S 
BRANCH  16  18
ATOM     18  N   UNL     1       2.971   5.976  19.028  0.00  0.00    +0.000 N 
ATOM     19  H   UNL     1       3.316   6.365  19.898  0.00  0.00    +0.000 HD
BRANCH  18  20
ATOM     20  C   UNL     1       2.122   4.848  19.132  0.00  0.00    +0.000 A 
ATOM     21  C   UNL     1       1.747   4.384  20.392  0.00  0.00    +0.000 A 
ATOM     22  C   UNL     1       0.958   3.237  20.497  0.00  0.00    +0.000 A 
ATOM     23  C   UNL     1       0.598   2.574  19.335  0.00  0.00    +0.000 A 
ATOM     24  N   UNL     1       0.957   2.980  18.100  0.00  0.00    +0.000 NA
ATOM     25  C   UNL     1       1.700   4.112  18.026  0.00  0.00    +0.000 A 
ENDBRANCH  18  20
ENDBRANCH  16  18
ENDBRANCH  14  16
ENDBRANCH   5  14
TORSDOF 4
ENDMDL
MODEL 8
REMARK VINA RESULT:      -6.9      3.110      4.526
REMARK  Name = 
REMARK  6 active torsions:
REMARK  status: ('A' for Active; 'I' for Inactive)
REMARK    1  A    between atoms: C_1  and  C_2
REMARK    2  A    between atoms: C_2  and  C_3
REMARK    3  A    between atoms: C_5  and  N_6
REMARK    4  A    between atoms: N_6  and  C_7
REMARK    5  A    between atoms: C_7  and  N_9
REMARK    6  A    between atoms: N_9  and  C_10
REMARK                            x       y       z     vdW  Elec       q    Type
REMARK                         _______ _______ _______ _____ _____    ______ ____
ROOT
ATOM      1  C   UNL     1       2.203   2.094  18.138  0.00  0.00    +0.000 C 
ATOM      2  C   UNL     1       2.963   3.378  18.514  0.00  0.00    +0.000 C 
ATOM      3  C   UNL     1       3.030   3.458  20.047  0.00  0.00    +0.000 C 
ATOM      4  C   UNL     1       2.250   4.555  17.843  0.00  0.00    +0.000 C 
ATOM      5  C   UNL     1       2.954   5.891  18.103  0.00  0.00    +0.000 C 
ATOM      6  C   UNL     1       4.450   5.697  17.978  0.00  0.00    +0.000 A 
ATOM      7  C   UNL     1       5.305   6.806  17.879  0.00  0.00    +0.000 A 
ATOM      8  C   UNL     1       6.674   6.623  17.655  0.00  0.00    +0.000 A 
ATOM      9 BR   UNL     1       7.809   8.130  17.503  0.00  0.00    +0.000 Br
ATOM     10  C   UNL     1       7.211   5.346  17.526  0.00  0.00    +0.000 A 
ATOM     11  C   UNL     1       6.377   4.239  17.645  0.00  0.00    +0.000 A 
ATOM     12  C   UNL     1       5.010   4.410  17.885  0.00  0.00    +0.000 A 
ATOM     13  O   UNL     1       4.293   3.246  17.989  0.00  0.00    +0.000 OA
ENDROOT
BRANCH   5  14
ATOM     14  N   UNL     1       2.573   6.502  19.386  0.00  0.00    +0.000 N 
ATOM     15  H   UNL     1       2.478   5.868  20.169  0.00  0.00    +0.000 HD
BRANCH  14  16
ATOM     16  C   UNL     1       1.976   7.742  19.556  0.00  0.00    +0.000 C 
ATOM     17  S   UNL     1       1.892   8.953  18.401  0.00  0.00    +0.000 S 
BRANCH  16  18
ATOM     18  N   UNL     1       1.529   7.897  20.859  0.00  0.00    +0.000 N 
ATOM     19  H   UNL     1       2.086   7.405  21.548  0.00  0.00    +0.000 HD
BRANCH  18  20
ATOM     20  C   UNL     1       0.724   8.958  21.337  0.00  0.00    +0.000 A 
ATOM     21  C   UNL     1      -0.036   9.704  20.437  0.00  0.00    +0.000 A 
ATOM     22  C   UNL     1      -0.784  10.788  20.901  0.00  0.00    +0.000 A 
ATOM     23  C   UNL     1      -0.719  11.109  22.247  0.00  0.00    +0.000 A 
ATOM     24  N   UNL     1       0.019  10.425  23.144  0.00  0.00    +0.000 NA
ATOM     25  C   UNL     1       0.715   9.360  22.672  0.00  0.00    +0.000 A 
ENDBRANCH  18  20
ENDBRANCH  16  18
ENDBRANCH  14  16
ENDBRANCH   5  14
TORSDOF 4
ENDMDL
MODEL 9
REMARK VINA RESULT:      -6.9      3.231      4.906
REMARK  Name = 
REMARK  6 active torsions:
REMARK  status: ('A' for Active; 'I' for Inactive)
REMARK    1  A    between atoms: C_1  and  C_2
REMARK    2  A    between atoms: C_2  and  C_3
REMARK    3  A    between atoms: C_5  and  N_6
REMARK    4  A    between atoms: N_6  and  C_7
REMARK    5  A    between atoms: C_7  and  N_9
REMARK    6  A    between atoms: N_9  and  C_10
REMARK                            x       y       z     vdW  Elec       q    Type
REMARK                         _______ _______ _______ _____ _____    ______ ____
ROOT
ATOM      1  C   UNL     1       1.312   2.247  18.737  0.00  0.00    +0.000 C 
ATOM      2  C   UNL     1       2.203   3.479  18.969  0.00  0.00    +0.000 C 
ATOM      3  C   UNL     1       2.297   3.718  20.483  0.00  0.00    +0.000 C 
ATOM      4  C   UNL     1       1.606   4.643  18.173  0.00  0.00    +0.000 C 
ATOM      5  C   UNL     1       2.446   5.919  18.284  0.00  0.00    +0.000 C 
ATOM      6  C   UNL     1       3.913   5.559  18.179  0.00  0.00    +0.000 A 
ATOM      7  C   UNL     1       4.876   6.557  17.958  0.00  0.00    +0.000 A 
ATOM      8  C   UNL     1       6.216   6.210  17.755  0.00  0.00    +0.000 A 
ATOM      9 BR   UNL     1       7.497   7.567  17.437  0.00  0.00    +0.000 Br
ATOM     10  C   UNL     1       6.618   4.879  17.767  0.00  0.00    +0.000 A 
ATOM     11  C   UNL     1       5.677   3.883  18.007  0.00  0.00    +0.000 A 
ATOM     12  C   UNL     1       4.338   4.219  18.228  0.00  0.00    +0.000 A 
ATOM     13  O   UNL     1       3.507   3.154  18.460  0.00  0.00    +0.000 OA
ENDROOT
BRANCH   5  14
ATOM     14  N   UNL     1       2.146   6.703  19.492  0.00  0.00    +0.000 N 
ATOM     15  H   UNL     1       1.832   6.175  20.296  0.00  0.00    +0.000 HD
BRANCH  14  16
ATOM     16  C   UNL     1       1.882   8.063  19.540  0.00  0.00    +0.000 C 
ATOM     17  S   UNL     1       1.669   9.065  18.213  0.00  0.00    +0.000 S 
BRANCH  16  18
ATOM     18  N   UNL     1       1.908   8.522  20.847  0.00  0.00    +0.000 N 
ATOM     19  H   UNL     1       2.817   8.457  21.290  0.00  0.00    +0.000 HD
BRANCH  18  20
ATOM     20  C   UNL     1       0.987   9.430  21.425  0.00  0.00    +0.000 A 
ATOM     21  C   UNL     1       0.377   9.111  22.637  0.00  0.00    +0.000 A 
ATOM     22  C   UNL     1      -0.575   9.978  23.177  0.00  0.00    +0.000 A 
ATOM     23  C   UNL     1      -0.908  11.120  22.468  0.00  0.00    +0.000 A 
ATOM     24  N   UNL     1      -0.356  11.452  21.283  0.00  0.00    +0.000 NA
ATOM     25  C   UNL     1       0.585  10.607  20.794  0.00  0.00    +0.000 A 
ENDBRANCH  18  20
ENDBRANCH  16  18
ENDBRANCH  14  16
ENDBRANCH   5  14
TORSDOF 4
ENDMDL
