MODEL 1
REMARK VINA RESULT:      -6.3      0.000      0.000
REMARK  Name = 
REMARK  12 active torsions:
REMARK  status: ('A' for Active; 'I' for Inactive)
REMARK    1  A    between atoms: C_1  and  C_2
REMARK    2  A    between atoms: C_2  and  N_3
REMARK    3  A    between atoms: N_3  and  C_4
REMARK    4  A    between atoms: N_3  and  C_5
REMARK    5  A    between atoms: N_3  and  C_7
REMARK    6  A    between atoms: C_5  and  C_6
REMARK    7  A    between atoms: C_7  and  C_8
REMARK    8  A    between atoms: C_8  and  O_9
REMARK    9  A    between atoms: C_8  and  C_10
REMARK   10  A    between atoms: C_10  and  O_11
REMARK   11  A    between atoms: O_11  and  C_12
REMARK   12  A    between atoms: C_12  and  C_13
REMARK                            x       y       z     vdW  Elec       q    Type
REMARK                         _______ _______ _______ _____ _____    ______ ____
ROOT
ATOM      1  O   UNL     1       3.974   6.857  17.099  0.00  0.00    +0.000 OA
ENDROOT
BRANCH   1   2
ATOM      2  C   UNL     1       4.260   6.271  18.377  0.00  0.00    +0.000 C 
BRANCH   2   3
ATOM      3  C   UNL     1       2.925   5.864  19.007  0.00  0.00    +0.000 C 
BRANCH   3   4
ATOM      4  O   UNL     1       2.271   7.042  19.494  0.00  0.00    +0.000 OA
ATOM      5  H   UNL     1       2.202   7.667  18.743  0.00  0.00    +0.000 HD
ENDBRANCH   3   4
BRANCH   3   6
ATOM      6  C   UNL     1       3.183   4.849  20.146  0.00  0.00    +0.000 C 
BRANCH   6   7
ATOM      7  N   UNL     1       2.666   3.390  19.899  0.00  0.00    +0.000 N 
ATOM      8  C   UNL     1       2.042   2.862  21.193  0.00  0.00    +0.000 C 
BRANCH   7  10
ATOM      9  C   UNL     1       0.436   2.514  18.922  0.00  0.00    +0.000 C 
ATOM     10  C   UNL     1       1.578   3.513  18.805  0.00  0.00    +0.000 C 
ENDBRANCH   7  10
BRANCH   7  11
ATOM     11  C   UNL     1       3.804   2.426  19.487  0.00  0.00    +0.000 C 
ATOM     12  C   UNL     1       3.708   1.924  18.055  0.00  0.00    +0.000 C 
ENDBRANCH   7  11
ENDBRANCH   6   7
ENDBRANCH   3   6
ENDBRANCH   2   3
ENDBRANCH   1   2
BRANCH   1  13
ATOM     13  C   UNL     1       4.873   6.351  16.112  0.00  0.00    +0.000 C 
BRANCH  13  14
ATOM     14  C   UNL     1       5.668   5.136  16.626  0.00  0.00    +0.000 C 
ATOM     15  C   UNL     1       7.179   5.343  16.685  0.00  0.00    +0.000 C 
ATOM     16  O   UNL     1       7.731   5.648  15.400  0.00  0.00    +0.000 OA
ATOM     17  C   UNL     1       7.154   4.907  14.398  0.00  0.00    +0.000 A 
ATOM     18  C   UNL     1       7.697   5.051  13.127  0.00  0.00    +0.000 A 
ATOM     19  C   UNL     1       7.104   4.402  12.042  0.00  0.00    +0.000 A 
ATOM     20  C   UNL     1       5.978   3.600  12.235  0.00  0.00    +0.000 A 
ATOM     21  C   UNL     1       5.444   3.435  13.511  0.00  0.00    +0.000 A 
ATOM     22  C   UNL     1       6.021   4.106  14.587  0.00  0.00    +0.000 A 
ATOM     23  O   UNL     1       5.372   4.002  15.795  0.00  0.00    +0.000 OA
ENDBRANCH  13  14
ENDBRANCH   1  13
TORSDOF 9
ENDMDL
MODEL 2
REMARK VINA RESULT:      -6.2      0.890      1.701
REMARK  Name = 
REMARK  12 active torsions:
REMARK  status: ('A' for Active; 'I' for Inactive)
REMARK    1  A    between atoms: C_1  and  C_2
REMARK    2  A    between atoms: C_2  and  N_3
REMARK    3  A    between atoms: N_3  and  C_4
REMARK    4  A    between atoms: N_3  and  C_5
REMARK    5  A    between atoms: N_3  and  C_7
REMARK    6  A    between atoms: C_5  and  C_6
REMARK    7  A    between atoms: C_7  and  C_8
REMARK    8  A    between atoms: C_8  and  O_9
REMARK    9  A    between atoms: C_8  and  C_10
REMARK   10  A    between atoms: C_10  and  O_11
REMARK   11  A    between atoms: O_11  and  C_12
REMARK   12  A    between atoms: C_12  and  C_13
REMARK                            x       y       z     vdW  Elec       q    Type
REMARK                         _______ _______ _______ _____ _____    ______ ____
ROOT
ATOM      1  O   UNL     1       4.869   6.553  17.424  0.00  0.00    +0.000 OA
ENDROOT
BRANCH   1   2
ATOM      2  C   UNL     1       3.662   7.329  17.464  0.00  0.00    +0.000 C 
BRANCH   2   3
ATOM      3  C   UNL     1       2.735   6.689  18.500  0.00  0.00    +0.000 C 
BRANCH   3   4
ATOM      4  O   UNL     1       2.085   7.731  19.237  0.00  0.00    +0.000 OA
ATOM      5  H   UNL     1       1.405   7.308  19.801  0.00  0.00    +0.000 HD
ENDBRANCH   3   4
BRANCH   3   6
ATOM      6  C   UNL     1       3.561   5.770  19.430  0.00  0.00    +0.000 C 
BRANCH   6   7
ATOM      7  N   UNL     1       2.990   4.328  19.660  0.00  0.00    +0.000 N 
ATOM      8  C   UNL     1       2.018   3.996  18.526  0.00  0.00    +0.000 C 
BRANCH   7  10
ATOM      9  C   UNL     1       3.918   1.990  19.053  0.00  0.00    +0.000 C 
ATOM     10  C   UNL     1       4.213   3.380  19.596  0.00  0.00    +0.000 C 
ENDBRANCH   7  10
BRANCH   7  11
ATOM     11  C   UNL     1       2.225   4.206  20.999  0.00  0.00    +0.000 C 
ATOM     12  C   UNL     1       1.124   3.157  20.995  0.00  0.00    +0.000 C 
ENDBRANCH   7  11
ENDBRANCH   6   7
ENDBRANCH   3   6
ENDBRANCH   2   3
ENDBRANCH   1   2
BRANCH   1  13
ATOM     13  C   UNL     1       4.790   5.568  16.394  0.00  0.00    +0.000 C 
BRANCH  13  14
ATOM     14  C   UNL     1       5.724   4.374  16.667  0.00  0.00    +0.000 C 
ATOM     15  C   UNL     1       7.196   4.743  16.831  0.00  0.00    +0.000 C 
ATOM     16  O   UNL     1       7.722   5.385  15.666  0.00  0.00    +0.000 OA
ATOM     17  C   UNL     1       7.258   4.817  14.505  0.00  0.00    +0.000 A 
ATOM     18  C   UNL     1       7.795   5.299  13.317  0.00  0.00    +0.000 A 
ATOM     19  C   UNL     1       7.305   4.837  12.095  0.00  0.00    +0.000 A 
ATOM     20  C   UNL     1       6.285   3.883  12.065  0.00  0.00    +0.000 A 
ATOM     21  C   UNL     1       5.759   3.381  13.252  0.00  0.00    +0.000 A 
ATOM     22  C   UNL     1       6.232   3.864  14.470  0.00  0.00    +0.000 A 
ATOM     23  O   UNL     1       5.585   3.421  15.600  0.00  0.00    +0.000 OA
ENDBRANCH  13  14
ENDBRANCH   1  13
TORSDOF 9
ENDMDL
MODEL 3
REMARK VINA RESULT:      -6.2      3.780      6.446
REMARK  Name = 
REMARK  12 active torsions:
REMARK  status: ('A' for Active; 'I' for Inactive)
REMARK    1  A    between atoms: C_1  and  C_2
REMARK    2  A    between atoms: C_2  and  N_3
REMARK    3  A    between atoms: N_3  and  C_4
REMARK    4  A    between atoms: N_3  and  C_5
REMARK    5  A    between atoms: N_3  and  C_7
REMARK    6  A    between atoms: C_5  and  C_6
REMARK    7  A    between atoms: C_7  and  C_8
REMARK    8  A    between atoms: C_8  and  O_9
REMARK    9  A    between atoms: C_8  and  C_10
REMARK   10  A    between atoms: C_10  and  O_11
REMARK   11  A    between atoms: O_11  and  C_12
REMARK   12  A    between atoms: C_12  and  C_13
REMARK                            x       y       z     vdW  Elec       q    Type
REMARK                         _______ _______ _______ _____ _____    ______ ____
ROOT
ATOM      1  O   UNL     1       3.149   7.655  18.211  0.00  0.00    +0.000 OA
ENDROOT
BRANCH   1   2
ATOM      2  C   UNL     1       1.891   7.904  17.568  0.00  0.00    +0.000 C 
BRANCH   2   3
ATOM      3  C   UNL     1       1.350   9.230  18.107  0.00  0.00    +0.000 C 
BRANCH   3   4
ATOM      4  O   UNL     1       2.092  10.302  17.512  0.00  0.00    +0.000 OA
ATOM      5  H   UNL     1       2.999   9.971  17.348  0.00  0.00    +0.000 HD
ENDBRANCH   3   4
BRANCH   3   6
ATOM      6  C   UNL     1       1.473   9.246  19.649  0.00  0.00    +0.000 C 
BRANCH   6   7
ATOM      7  N   UNL     1       0.286   9.912  20.428  0.00  0.00    +0.000 N 
ATOM      8  C   UNL     1       0.770  11.231  21.031  0.00  0.00    +0.000 C 
BRANCH   7  10
ATOM      9  C   UNL     1      -1.550  11.506  19.541  0.00  0.00    +0.000 C 
ATOM     10  C   UNL     1      -0.806  10.191  19.365  0.00  0.00    +0.000 C 
ENDBRANCH   7  10
BRANCH   7  11
ATOM     11  C   UNL     1      -0.234   9.019  21.580  0.00  0.00    +0.000 C 
ATOM     12  C   UNL     1      -0.415   9.749  22.901  0.00  0.00    +0.000 C 
ENDBRANCH   7  11
ENDBRANCH   6   7
ENDBRANCH   3   6
ENDBRANCH   2   3
ENDBRANCH   1   2
BRANCH   1  13
ATOM     13  C   UNL     1       3.852   6.613  17.536  0.00  0.00    +0.000 C 
BRANCH  13  14
ATOM     14  C   UNL     1       4.736   5.797  18.498  0.00  0.00    +0.000 C 
ATOM     15  C   UNL     1       5.219   4.461  17.940  0.00  0.00    +0.000 C 
ATOM     16  O   UNL     1       4.132   3.599  17.592  0.00  0.00    +0.000 OA
ATOM     17  C   UNL     1       3.108   3.657  18.506  0.00  0.00    +0.000 A 
ATOM     18  C   UNL     1       2.052   2.775  18.315  0.00  0.00    +0.000 A 
ATOM     19  C   UNL     1       0.934   2.841  19.148  0.00  0.00    +0.000 A 
ATOM     20  C   UNL     1       0.883   3.781  20.179  0.00  0.00    +0.000 A 
ATOM     21  C   UNL     1       1.948   4.653  20.388  0.00  0.00    +0.000 A 
ATOM     22  C   UNL     1       3.050   4.603  19.537  0.00  0.00    +0.000 A 
ATOM     23  O   UNL     1       4.010   5.572  19.718  0.00  0.00    +0.000 OA
ENDBRANCH  13  14
ENDBRANCH   1  13
TORSDOF 9
ENDMDL
MODEL 4
REMARK VINA RESULT:      -6.1      1.183      1.887
REMARK  Name = 
REMARK  12 active torsions:
REMARK  status: ('A' for Active; 'I' for Inactive)
REMARK    1  A    between atoms: C_1  and  C_2
REMARK    2  A    between atoms: C_2  and  N_3
REMARK    3  A    between atoms: N_3  and  C_4
REMARK    4  A    between atoms: N_3  and  C_5
REMARK    5  A    between atoms: N_3  and  C_7
REMARK    6  A    between atoms: C_5  and  C_6
REMARK    7  A    between atoms: C_7  and  C_8
REMARK    8  A    between atoms: C_8  and  O_9
REMARK    9  A    between atoms: C_8  and  C_10
REMARK   10  A    between atoms: C_10  and  O_11
REMARK   11  A    between atoms: O_11  and  C_12
REMARK   12  A    between atoms: C_12  and  C_13
REMARK                            x       y       z     vdW  Elec       q    Type
REMARK                         _______ _______ _______ _____ _____    ______ ____
ROOT
ATOM      1  O   UNL     1       3.706   6.096  17.382  0.00  0.00    +0.000 OA
ENDROOT
BRANCH   1   2
ATOM      2  C   UNL     1       2.692   6.733  18.171  0.00  0.00    +0.000 C 
BRANCH   2   3
ATOM      3  C   UNL     1       2.282   5.755  19.275  0.00  0.00    +0.000 C 
BRANCH   3   4
ATOM      4  O   UNL     1       2.750   6.261  20.530  0.00  0.00    +0.000 OA
ATOM      5  H   UNL     1       2.129   6.965  20.810  0.00  0.00    +0.000 HD
ENDBRANCH   3   4
BRANCH   3   6
ATOM      6  C   UNL     1       2.877   4.360  18.971  0.00  0.00    +0.000 C 
BRANCH   6   7
ATOM      7  N   UNL     1       2.096   3.134  19.561  0.00  0.00    +0.000 N 
ATOM      8  C   UNL     1       0.633   3.533  19.763  0.00  0.00    +0.000 C 
BRANCH   7  10
ATOM      9  C   UNL     1       3.608   1.676  18.049  0.00  0.00    +0.000 C 
ATOM     10  C   UNL     1       2.193   2.023  18.486  0.00  0.00    +0.000 C 
ENDBRANCH   7  10
BRANCH   7  11
ATOM     11  C   UNL     1       2.663   2.678  20.926  0.00  0.00    +0.000 C 
ATOM     12  C   UNL     1       1.620   2.557  22.025  0.00  0.00    +0.000 C 
ENDBRANCH   7  11
ENDBRANCH   6   7
ENDBRANCH   3   6
ENDBRANCH   2   3
ENDBRANCH   1   2
BRANCH   1  13
ATOM     13  C   UNL     1       4.929   6.828  17.463  0.00  0.00    +0.000 C 
BRANCH  13  14
ATOM     14  C   UNL     1       6.083   5.962  18.002  0.00  0.00    +0.000 C 
ATOM     15  C   UNL     1       7.478   6.459  17.631  0.00  0.00    +0.000 C 
ATOM     16  O   UNL     1       7.669   6.517  16.214  0.00  0.00    +0.000 OA
ATOM     17  C   UNL     1       7.103   5.445  15.569  0.00  0.00    +0.000 A 
ATOM     18  C   UNL     1       7.328   5.352  14.201  0.00  0.00    +0.000 A 
ATOM     19  C   UNL     1       6.708   4.342  13.463  0.00  0.00    +0.000 A 
ATOM     20  C   UNL     1       5.874   3.420  14.100  0.00  0.00    +0.000 A 
ATOM     21  C   UNL     1       5.663   3.496  15.474  0.00  0.00    +0.000 A 
ATOM     22  C   UNL     1       6.262   4.521  16.203  0.00  0.00    +0.000 A 
ATOM     23  O   UNL     1       5.914   4.615  17.530  0.00  0.00    +0.000 OA
ENDBRANCH  13  14
ENDBRANCH   1  13
TORSDOF 9
ENDMDL
MODEL 5
REMARK VINA RESULT:      -6.1      5.776      8.402
REMARK  Name = 
REMARK  12 active torsions:
REMARK  status: ('A' for Active; 'I' for Inactive)
REMARK    1  A    between atoms: C_1  and  C_2
REMARK    2  A    between atoms: C_2  and  N_3
REMARK    3  A    between atoms: N_3  and  C_4
REMARK    4  A    between atoms: N_3  and  C_5
REMARK    5  A    between atoms: N_3  and  C_7
REMARK    6  A    between atoms: C_5  and  C_6
REMARK    7  A    between atoms: C_7  and  C_8
REMARK    8  A    between atoms: C_8  and  O_9
REMARK    9  A    between atoms: C_8  and  C_10
REMARK   10  A    between atoms: C_10  and  O_11
REMARK   11  A    between atoms: O_11  and  C_12
REMARK   12  A    between atoms: C_12  and  C_13
REMARK                            x       y       z     vdW  Elec       q    Type
REMARK                         _______ _______ _______ _____ _____    ______ ____
ROOT
ATOM      1  O   UNL     1       8.348   7.953  18.533  0.00  0.00    +0.000 OA
ENDROOT
BRANCH   1   2
ATOM      2  C   UNL     1       8.199   9.230  17.896  0.00  0.00    +0.000 C 
BRANCH   2   3
ATOM      3  C   UNL     1       9.228  10.179  18.515  0.00  0.00    +0.000 C 
BRANCH   3   4
ATOM      4  O   UNL     1       9.350   9.874  19.909  0.00  0.00    +0.000 OA
ATOM      5  H   UNL     1       9.200   8.911  20.011  0.00  0.00    +0.000 HD
ENDBRANCH   3   4
BRANCH   3   6
ATOM      6  C   UNL     1       8.777  11.642  18.295  0.00  0.00    +0.000 C 
BRANCH   6   7
ATOM      7  N   UNL     1       9.900  12.732  18.389  0.00  0.00    +0.000 N 
ATOM      8  C   UNL     1      11.009  12.384  17.395  0.00  0.00    +0.000 C 
BRANCH   7  10
ATOM      9  C   UNL     1       8.936  15.018  19.124  0.00  0.00    +0.000 C 
ATOM     10  C   UNL     1       9.224  14.063  17.975  0.00  0.00    +0.000 C 
ENDBRANCH   7  10
BRANCH   7  11
ATOM     11  C   UNL     1      10.527  12.808  19.801  0.00  0.00    +0.000 C 
ATOM     12  C   UNL     1      11.944  12.263  19.884  0.00  0.00    +0.000 C 
ENDBRANCH   7  11
ENDBRANCH   6   7
ENDBRANCH   3   6
ENDBRANCH   2   3
ENDBRANCH   1   2
BRANCH   1  13
ATOM     13  C   UNL     1       7.457   7.003  17.950  0.00  0.00    +0.000 C 
BRANCH  13  14
ATOM     14  C   UNL     1       7.651   5.594  18.541  0.00  0.00    +0.000 C 
ATOM     15  C   UNL     1       7.666   4.468  17.510  0.00  0.00    +0.000 C 
ATOM     16  O   UNL     1       6.446   4.407  16.764  0.00  0.00    +0.000 OA
ATOM     17  C   UNL     1       5.344   4.636  17.549  0.00  0.00    +0.000 A 
ATOM     18  C   UNL     1       4.104   4.491  16.940  0.00  0.00    +0.000 A 
ATOM     19  C   UNL     1       2.942   4.798  17.649  0.00  0.00    +0.000 A 
ATOM     20  C   UNL     1       3.024   5.237  18.973  0.00  0.00    +0.000 A 
ATOM     21  C   UNL     1       4.263   5.364  19.595  0.00  0.00    +0.000 A 
ATOM     22  C   UNL     1       5.422   5.082  18.875  0.00  0.00    +0.000 A 
ATOM     23  O   UNL     1       6.616   5.347  19.505  0.00  0.00    +0.000 OA
ENDBRANCH  13  14
ENDBRANCH   1  13
TORSDOF 9
ENDMDL
MODEL 6
REMARK VINA RESULT:      -6.0      3.811      6.554
REMARK  Name = 
REMARK  12 active torsions:
REMARK  status: ('A' for Active; 'I' for Inactive)
REMARK    1  A    between atoms: C_1  and  C_2
REMARK    2  A    between atoms: C_2  and  N_3
REMARK    3  A    between atoms: N_3  and  C_4
REMARK    4  A    between atoms: N_3  and  C_5
REMARK    5  A    between atoms: N_3  and  C_7
REMARK    6  A    between atoms: C_5  and  C_6
REMARK    7  A    between atoms: C_7  and  C_8
REMARK    8  A    between atoms: C_8  and  O_9
REMARK    9  A    between atoms: C_8  and  C_10
REMARK   10  A    between atoms: C_10  and  O_11
REMARK   11  A    between atoms: O_11  and  C_12
REMARK   12  A    between atoms: C_12  and  C_13
REMARK                            x       y       z     vdW  Elec       q    Type
REMARK                         _______ _______ _______ _____ _____    ______ ____
ROOT
ATOM      1  O   UNL     1       3.230   7.712  18.169  0.00  0.00    +0.000 OA
ENDROOT
BRANCH   1   2
ATOM      2  C   UNL     1       1.833   7.786  17.850  0.00  0.00    +0.000 C 
BRANCH   2   3
ATOM      3  C   UNL     1       1.368   9.216  18.138  0.00  0.00    +0.000 C 
BRANCH   3   4
ATOM      4  O   UNL     1       2.162  10.120  17.361  0.00  0.00    +0.000 OA
ATOM      5  H   UNL     1       2.216   9.753  16.454  0.00  0.00    +0.000 HD
ENDBRANCH   3   4
BRANCH   3   6
ATOM      6  C   UNL     1       1.503   9.504  19.652  0.00  0.00    +0.000 C 
BRANCH   6   7
ATOM      7  N   UNL     1       0.219  10.053  20.366  0.00  0.00    +0.000 N 
ATOM      8  C   UNL     1      -0.884  10.238  19.324  0.00  0.00    +0.000 C 
BRANCH   7  10
ATOM      9  C   UNL     1      -0.195   9.397  22.835  0.00  0.00    +0.000 C 
ATOM     10  C   UNL     1      -0.195   8.957  21.379  0.00  0.00    +0.000 C 
ENDBRANCH   7  10
BRANCH   7  11
ATOM     11  C   UNL     1       0.467  11.419  21.051  0.00  0.00    +0.000 C 
ATOM     12  C   UNL     1      -0.209  12.593  20.362  0.00  0.00    +0.000 C 
ENDBRANCH   7  11
ENDBRANCH   6   7
ENDBRANCH   3   6
ENDBRANCH   2   3
ENDBRANCH   1   2
BRANCH   1  13
ATOM     13  C   UNL     1       3.831   6.601  17.506  0.00  0.00    +0.000 C 
BRANCH  13  14
ATOM     14  C   UNL     1       4.742   5.792  18.448  0.00  0.00    +0.000 C 
ATOM     15  C   UNL     1       5.202   4.448  17.889  0.00  0.00    +0.000 C 
ATOM     16  O   UNL     1       4.101   3.586  17.586  0.00  0.00    +0.000 OA
ATOM     17  C   UNL     1       3.109   3.659  18.532  0.00  0.00    +0.000 A 
ATOM     18  C   UNL     1       2.043   2.779  18.387  0.00  0.00    +0.000 A 
ATOM     19  C   UNL     1       0.954   2.858  19.255  0.00  0.00    +0.000 A 
ATOM     20  C   UNL     1       0.939   3.811  20.276  0.00  0.00    +0.000 A 
ATOM     21  C   UNL     1       2.014   4.681  20.440  0.00  0.00    +0.000 A 
ATOM     22  C   UNL     1       3.088   4.617  19.555  0.00  0.00    +0.000 A 
ATOM     23  O   UNL     1       4.057   5.583  19.693  0.00  0.00    +0.000 OA
ENDBRANCH  13  14
ENDBRANCH   1  13
TORSDOF 9
ENDMDL
MODEL 7
REMARK VINA RESULT:      -6.0      5.777      8.522
REMARK  Name = 
REMARK  12 active torsions:
REMARK  status: ('A' for Active; 'I' for Inactive)
REMARK    1  A    between atoms: C_1  and  C_2
REMARK    2  A    between atoms: C_2  and  N_3
REMARK    3  A    between atoms: N_3  and  C_4
REMARK    4  A    between atoms: N_3  and  C_5
REMARK    5  A    between atoms: N_3  and  C_7
REMARK    6  A    between atoms: C_5  and  C_6
REMARK    7  A    between atoms: C_7  and  C_8
REMARK    8  A    between atoms: C_8  and  O_9
REMARK    9  A    between atoms: C_8  and  C_10
REMARK   10  A    between atoms: C_10  and  O_11
REMARK   11  A    between atoms: O_11  and  C_12
REMARK   12  A    between atoms: C_12  and  C_13
REMARK                            x       y       z     vdW  Elec       q    Type
REMARK                         _______ _______ _______ _____ _____    ______ ____
ROOT
ATOM      1  O   UNL     1       8.278   7.975  17.668  0.00  0.00    +0.000 OA
ENDROOT
BRANCH   1   2
ATOM      2  C   UNL     1       7.947   9.361  17.839  0.00  0.00    +0.000 C 
BRANCH   2   3
ATOM      3  C   UNL     1       9.153  10.047  18.485  0.00  0.00    +0.000 C 
BRANCH   3   4
ATOM      4  O   UNL     1       9.183   9.704  19.876  0.00  0.00    +0.000 OA
ATOM      5  H   UNL     1      10.076   9.926  20.211  0.00  0.00    +0.000 HD
ENDBRANCH   3   4
BRANCH   3   6
ATOM      6  C   UNL     1       9.042  11.577  18.283  0.00  0.00    +0.000 C 
BRANCH   6   7
ATOM      7  N   UNL     1      10.342  12.406  18.567  0.00  0.00    +0.000 N 
ATOM      8  C   UNL     1      11.560  11.523  18.292  0.00  0.00    +0.000 C 
BRANCH   7  10
ATOM      9  C   UNL     1      11.463  13.609  16.569  0.00  0.00    +0.000 C 
ATOM     10  C   UNL     1      10.312  13.585  17.564  0.00  0.00    +0.000 C 
ENDBRANCH   7  10
BRANCH   7  11
ATOM     11  C   UNL     1      10.422  12.889  20.035  0.00  0.00    +0.000 C 
ATOM     12  C   UNL     1      10.774  14.359  20.189  0.00  0.00    +0.000 C 
ENDBRANCH   7  11
ENDBRANCH   6   7
ENDBRANCH   3   6
ENDBRANCH   2   3
ENDBRANCH   1   2
BRANCH   1  13
ATOM     13  C   UNL     1       7.118   7.163  17.850  0.00  0.00    +0.000 C 
BRANCH  13  14
ATOM     14  C   UNL     1       7.437   5.868  18.619  0.00  0.00    +0.000 C 
ATOM     15  C   UNL     1       7.641   4.639  17.738  0.00  0.00    +0.000 C 
ATOM     16  O   UNL     1       6.483   4.343  16.952  0.00  0.00    +0.000 OA
ATOM     17  C   UNL     1       5.317   4.528  17.653  0.00  0.00    +0.000 A 
ATOM     18  C   UNL     1       4.139   4.163  17.012  0.00  0.00    +0.000 A 
ATOM     19  C   UNL     1       2.910   4.409  17.625  0.00  0.00    +0.000 A 
ATOM     20  C   UNL     1       2.863   5.008  18.885  0.00  0.00    +0.000 A 
ATOM     21  C   UNL     1       4.041   5.356  19.542  0.00  0.00    +0.000 A 
ATOM     22  C   UNL     1       5.265   5.134  18.915  0.00  0.00    +0.000 A 
ATOM     23  O   UNL     1       6.381   5.613  19.560  0.00  0.00    +0.000 OA
ENDBRANCH  13  14
ENDBRANCH   1  13
TORSDOF 9
ENDMDL
MODEL 8
REMARK VINA RESULT:      -5.9      4.636      6.592
REMARK  Name = 
REMARK  12 active torsions:
REMARK  status: ('A' for Active; 'I' for Inactive)
REMARK    1  A    between atoms: C_1  and  C_2
REMARK    2  A    between atoms: C_2  and  N_3
REMARK    3  A    between atoms: N_3  and  C_4
REMARK    4  A    between atoms: N_3  and  C_5
REMARK    5  A    between atoms: N_3  and  C_7
REMARK    6  A    between atoms: C_5  and  C_6
REMARK    7  A    between atoms: C_7  and  C_8
REMARK    8  A    between atoms: C_8  and  O_9
REMARK    9  A    between atoms: C_8  and  C_10
REMARK   10  A    between atoms: C_10  and  O_11
REMARK   11  A    between atoms: O_11  and  C_12
REMARK   12  A    between atoms: C_12  and  C_13
REMARK                            x       y       z     vdW  Elec       q    Type
REMARK                         _______ _______ _______ _____ _____    ______ ____
ROOT
ATOM      1  O   UNL     1       2.563   7.868  18.457  0.00  0.00    +0.000 OA
ENDROOT
BRANCH   1   2
ATOM      2  C   UNL     1       1.690   8.648  19.287  0.00  0.00    +0.000 C 
BRANCH   2   3
ATOM      3  C   UNL     1       1.103   9.764  18.419  0.00  0.00    +0.000 C 
BRANCH   3   4
ATOM      4  O   UNL     1       1.995  10.009  17.325  0.00  0.00    +0.000 OA
ATOM      5  H   UNL     1       1.492  10.502  16.644  0.00  0.00    +0.000 HD
ENDBRANCH   3   4
BRANCH   3   6
ATOM      6  C   UNL     1       0.901  11.033  19.279  0.00  0.00    +0.000 C 
BRANCH   6   7
ATOM      7  N   UNL     1      -0.581  11.505  19.475  0.00  0.00    +0.000 N 
ATOM      8  C   UNL     1      -0.954  11.359  20.952  0.00  0.00    +0.000 C 
BRANCH   7  10
ATOM      9  C   UNL     1       0.728  13.541  18.560  0.00  0.00    +0.000 C 
ATOM     10  C   UNL     1      -0.598  13.001  19.076  0.00  0.00    +0.000 C 
ENDBRANCH   7  10
BRANCH   7  11
ATOM     11  C   UNL     1      -1.580  10.666  18.643  0.00  0.00    +0.000 C 
ATOM     12  C   UNL     1      -2.147  11.392  17.434  0.00  0.00    +0.000 C 
ENDBRANCH   7  11
ENDBRANCH   6   7
ENDBRANCH   3   6
ENDBRANCH   2   3
ENDBRANCH   1   2
BRANCH   1  13
ATOM     13  C   UNL     1       2.888   6.637  19.103  0.00  0.00    +0.000 C 
BRANCH  13  14
ATOM     14  C   UNL     1       3.185   5.516  18.089  0.00  0.00    +0.000 C 
ATOM     15  C   UNL     1       3.725   4.228  18.705  0.00  0.00    +0.000 C 
ATOM     16  O   UNL     1       4.951   4.442  19.411  0.00  0.00    +0.000 OA
ATOM     17  C   UNL     1       5.781   5.318  18.756  0.00  0.00    +0.000 A 
ATOM     18  C   UNL     1       7.043   5.509  19.306  0.00  0.00    +0.000 A 
ATOM     19  C   UNL     1       7.907   6.453  18.750  0.00  0.00    +0.000 A 
ATOM     20  C   UNL     1       7.510   7.196  17.636  0.00  0.00    +0.000 A 
ATOM     21  C   UNL     1       6.255   6.994  17.068  0.00  0.00    +0.000 A 
ATOM     22  C   UNL     1       5.385   6.069  17.642  0.00  0.00    +0.000 A 
ATOM     23  O   UNL     1       4.117   6.007  17.112  0.00  0.00    +0.000 OA
ENDBRANCH  13  14
ENDBRANCH   1  13
TORSDOF 9
ENDMDL
MODEL 9
REMARK VINA RESULT:      -5.9      3.883      5.981
REMARK  Name = 
REMARK  12 active torsions:
REMARK  status: ('A' for Active; 'I' for Inactive)
REMARK    1  A    between atoms: C_1  and  C_2
REMARK    2  A    between atoms: C_2  and  N_3
REMARK    3  A    between atoms: N_3  and  C_4
REMARK    4  A    between atoms: N_3  and  C_5
REMARK    5  A    between atoms: N_3  and  C_7
REMARK    6  A    between atoms: C_5  and  C_6
REMARK    7  A    between atoms: C_7  and  C_8
REMARK    8  A    between atoms: C_8  and  O_9
REMARK    9  A    between atoms: C_8  and  C_10
REMARK   10  A    between atoms: C_10  and  O_11
REMARK   11  A    between atoms: O_11  and  C_12
REMARK   12  A    between atoms: C_12  and  C_13
REMARK                            x       y       z     vdW  Elec       q    Type
REMARK                         _______ _______ _______ _____ _____    ______ ____
ROOT
ATOM      1  O   UNL     1       1.989   6.601  19.439  0.00  0.00    +0.000 OA
ENDROOT
BRANCH   1   2
ATOM      2  C   UNL     1       1.373   6.900  20.700  0.00  0.00    +0.000 C 
BRANCH   2   3
ATOM      3  C   UNL     1       1.472   8.413  20.915  0.00  0.00    +0.000 C 
BRANCH   3   4
ATOM      4  O   UNL     1       1.865   8.657  22.270  0.00  0.00    +0.000 OA
ATOM      5  H   UNL     1       1.046   8.756  22.797  0.00  0.00    +0.000 HD
ENDBRANCH   3   4
BRANCH   3   6
ATOM      6  C   UNL     1       0.107   9.067  20.596  0.00  0.00    +0.000 C 
BRANCH   6   7
ATOM      7  N   UNL     1       0.160  10.437  19.834  0.00  0.00    +0.000 N 
ATOM      8  C   UNL     1       0.525  11.540  20.829  0.00  0.00    +0.000 C 
BRANCH   7  10
ATOM      9  C   UNL     1       1.947  11.589  18.360  0.00  0.00    +0.000 C 
ATOM     10  C   UNL     1       1.286  10.285  18.782  0.00  0.00    +0.000 C 
ENDBRANCH   7  10
BRANCH   7  11
ATOM     11  C   UNL     1      -1.198  10.802  19.189  0.00  0.00    +0.000 C 
ATOM     12  C   UNL     1      -1.421  10.189  17.816  0.00  0.00    +0.000 C 
ENDBRANCH   7  11
ENDBRANCH   6   7
ENDBRANCH   3   6
ENDBRANCH   2   3
ENDBRANCH   1   2
BRANCH   1  13
ATOM     13  C   UNL     1       3.260   5.983  19.644  0.00  0.00    +0.000 C 
BRANCH  13  14
ATOM     14  C   UNL     1       3.594   4.971  18.532  0.00  0.00    +0.000 C 
ATOM     15  C   UNL     1       4.458   3.796  18.980  0.00  0.00    +0.000 C 
ATOM     16  O   UNL     1       5.720   4.225  19.501  0.00  0.00    +0.000 OA
ATOM     17  C   UNL     1       6.254   5.265  18.780  0.00  0.00    +0.000 A 
ATOM     18  C   UNL     1       7.530   5.682  19.140  0.00  0.00    +0.000 A 
ATOM     19  C   UNL     1       8.098   6.793  18.515  0.00  0.00    +0.000 A 
ATOM     20  C   UNL     1       7.394   7.475  17.522  0.00  0.00    +0.000 A 
ATOM     21  C   UNL     1       6.124   7.048  17.142  0.00  0.00    +0.000 A 
ATOM     22  C   UNL     1       5.548   5.956  17.786  0.00  0.00    +0.000 A 
ATOM     23  O   UNL     1       4.246   5.662  17.454  0.00  0.00    +0.000 OA
ENDBRANCH  13  14
ENDBRANCH   1  13
TORSDOF 9
ENDMDL
