MODEL 1
REMARK VINA RESULT:      -6.0      0.000      0.000
REMARK  Name = 
REMARK  3 active torsions:
REMARK  status: ('A' for Active; 'I' for Inactive)
REMARK    1  A    between atoms: C_1  and  N_2
REMARK    2  A    between atoms: N_11  and  C_12
REMARK    3  A    between atoms: N_25  and  C_26
REMARK                            x       y       z     vdW  Elec       q    Type
REMARK                         _______ _______ _______ _____ _____    ______ ____
ROOT
ATOM      1  C   UNL     1       6.095  13.704  24.932  0.00  0.00    +0.000 C 
ATOM      2  N   UNL     1       6.754  14.565  23.968  0.00  0.00    +0.000 N 
ATOM      3  C   UNL     1       5.989  15.511  23.124  0.00  0.00    +0.000 C 
ATOM      4  C   UNL     1       5.896  15.367  21.567  0.00  0.00    +0.000 C 
ATOM      5  C   UNL     1       7.223  15.413  20.731  0.00  0.00    +0.000 C 
ATOM      6  C   UNL     1       7.998  14.148  21.147  0.00  0.00    +0.000 C 
ATOM      7  C   UNL     1       7.765  13.252  22.311  0.00  0.00    +0.000 C 
ATOM      8  C   UNL     1       7.953  14.012  23.565  0.00  0.00    +0.000 C 
ATOM      9  O   UNL     1       8.948  13.935  24.263  0.00  0.00    +0.000 OA
ATOM     10  C   UNL     1       7.037  15.124  19.184  0.00  0.00    +0.000 C 
ATOM     11  N   UNL     1       8.258  15.550  18.376  0.00  0.00    +0.000 N 
ATOM     12  C   UNL     1       8.004  16.973  18.206  0.00  0.00    +0.000 C 
ATOM     13  C   UNL     1       8.171  17.610  19.618  0.00  0.00    +0.000 C 
ATOM     14  N   UNL     1       7.830  16.803  20.875  0.00  0.00    +0.000 NA
ATOM     15  C   UNL     1       8.963  16.850  21.800  0.00  0.00    +0.000 C 
ENDROOT
BRANCH  11  16
ATOM     16  C   UNL     1       9.623  15.136  18.538  0.00  0.00    +0.000 A 
ATOM     17  C   UNL     1      10.639  16.028  18.931  0.00  0.00    +0.000 A 
ATOM     18  C   UNL     1      11.953  15.646  19.166  0.00  0.00    +0.000 A 
ATOM     19  N   UNL     1      12.333  14.381  19.256  0.00  0.00    +0.000 NA
ATOM     20  C   UNL     1      11.398  13.473  19.010  0.00  0.00    +0.000 A 
ATOM     21  C   UNL     1      11.759  12.181  19.347  0.00  0.00    +0.000 A 
ATOM     22  C   UNL     1      10.886  11.122  19.157  0.00  0.00    +0.000 A 
ATOM     23  C   UNL     1       9.724  11.315  18.485  0.00  0.00    +0.000 A 
ATOM     24 CL   UNL     1       8.583  10.064  18.220  0.00  0.00    +0.000 Cl
ATOM     25  C   UNL     1       9.384  12.609  18.069  0.00  0.00    +0.000 A 
ATOM     26  C   UNL     1      10.092  13.756  18.508  0.00  0.00    +0.000 A 
ENDBRANCH  11  16
TORSDOF 1
ENDMDL
MODEL 2
REMARK VINA RESULT:      -6.0     10.931     13.701
REMARK  Name = 
REMARK  3 active torsions:
REMARK  status: ('A' for Active; 'I' for Inactive)
REMARK    1  A    between atoms: C_1  and  N_2
REMARK    2  A    between atoms: N_11  and  C_12
REMARK    3  A    between atoms: N_25  and  C_26
REMARK                            x       y       z     vdW  Elec       q    Type
REMARK                         _______ _______ _______ _____ _____    ______ ____
ROOT
ATOM      1  C   UNL     1       1.004  11.138  19.061  0.00  0.00    +0.000 C 
ATOM      2  N   UNL     1       0.179  12.169  19.661  0.00  0.00    +0.000 N 
ATOM      3  C   UNL     1       0.146  12.379  21.126  0.00  0.00    +0.000 C 
ATOM      4  C   UNL     1      -1.139  12.126  21.986  0.00  0.00    +0.000 C 
ATOM      5  C   UNL     1      -2.434  12.949  21.657  0.00  0.00    +0.000 C 
ATOM      6  C   UNL     1      -2.860  12.474  20.255  0.00  0.00    +0.000 C 
ATOM      7  C   UNL     1      -2.080  11.693  19.257  0.00  0.00    +0.000 C 
ATOM      8  C   UNL     1      -0.892  12.469  18.843  0.00  0.00    +0.000 C 
ATOM      9  O   UNL     1      -0.808  13.070  17.786  0.00  0.00    +0.000 OA
ATOM     10  C   UNL     1      -3.713  12.525  22.491  0.00  0.00    +0.000 C 
ATOM     11  N   UNL     1      -4.813  13.578  22.418  0.00  0.00    +0.000 N 
ATOM     12  C   UNL     1      -4.378  14.516  23.442  0.00  0.00    +0.000 C 
ATOM     13  C   UNL     1      -3.089  15.191  22.884  0.00  0.00    +0.000 C 
ATOM     14  N   UNL     1      -2.153  14.417  21.950  0.00  0.00    +0.000 NA
ATOM     15  C   UNL     1      -1.907  15.214  20.747  0.00  0.00    +0.000 C 
ENDROOT
BRANCH  11  16
ATOM     16  C   UNL     1      -5.452  14.121  21.252  0.00  0.00    +0.000 A 
ATOM     17  C   UNL     1      -5.309  15.469  20.874  0.00  0.00    +0.000 A 
ATOM     18  C   UNL     1      -5.853  16.008  19.715  0.00  0.00    +0.000 A 
ATOM     19  N   UNL     1      -6.372  15.268  18.748  0.00  0.00    +0.000 NA
ATOM     20  C   UNL     1      -6.437  13.964  18.984  0.00  0.00    +0.000 A 
ATOM     21  C   UNL     1      -6.753  13.202  17.874  0.00  0.00    +0.000 A 
ATOM     22  C   UNL     1      -6.852  11.822  17.958  0.00  0.00    +0.000 A 
ATOM     23  C   UNL     1      -6.799  11.213  19.168  0.00  0.00    +0.000 A 
ATOM     24 CL   UNL     1      -6.896   9.513  19.359  0.00  0.00    +0.000 Cl
ATOM     25  C   UNL     1      -6.556  11.986  20.311  0.00  0.00    +0.000 A 
ATOM     26  C   UNL     1      -6.149  13.341  20.236  0.00  0.00    +0.000 A 
ENDBRANCH  11  16
TORSDOF 1
ENDMDL
MODEL 3
REMARK VINA RESULT:      -5.9      2.662      4.156
REMARK  Name = 
REMARK  3 active torsions:
REMARK  status: ('A' for Active; 'I' for Inactive)
REMARK    1  A    between atoms: C_1  and  N_2
REMARK    2  A    between atoms: N_11  and  C_12
REMARK    3  A    between atoms: N_25  and  C_26
REMARK                            x       y       z     vdW  Elec       q    Type
REMARK                         _______ _______ _______ _____ _____    ______ ____
ROOT
ATOM      1  C   UNL     1       3.477  16.440  17.604  0.00  0.00    +0.000 C 
ATOM      2  N   UNL     1       4.259  16.136  18.787  0.00  0.00    +0.000 N 
ATOM      3  C   UNL     1       4.897  17.204  19.589  0.00  0.00    +0.000 C 
ATOM      4  C   UNL     1       6.452  17.351  19.711  0.00  0.00    +0.000 C 
ATOM      5  C   UNL     1       7.272  16.158  20.317  0.00  0.00    +0.000 C 
ATOM      6  C   UNL     1       7.115  15.013  19.299  0.00  0.00    +0.000 C 
ATOM      7  C   UNL     1       6.146  14.887  18.177  0.00  0.00    +0.000 C 
ATOM      8  C   UNL     1       4.769  14.855  18.715  0.00  0.00    +0.000 C 
ATOM      9  O   UNL     1       4.106  13.839  18.822  0.00  0.00    +0.000 OA
ATOM     10  C   UNL     1       8.844  16.350  20.273  0.00  0.00    +0.000 C 
ATOM     11  N   UNL     1       9.562  15.371  21.196  0.00  0.00    +0.000 N 
ATOM     12  C   UNL     1       9.450  16.052  22.476  0.00  0.00    +0.000 C 
ATOM     13  C   UNL     1       7.941  15.992  22.863  0.00  0.00    +0.000 C 
ATOM     14  N   UNL     1       6.864  15.991  21.775  0.00  0.00    +0.000 NA
ATOM     15  C   UNL     1       5.954  14.866  21.999  0.00  0.00    +0.000 C 
ENDROOT
BRANCH  11  16
ATOM     16  C   UNL     1       9.492  13.936  21.201  0.00  0.00    +0.000 A 
ATOM     17  C   UNL     1       8.772  13.221  22.176  0.00  0.00    +0.000 A 
ATOM     18  C   UNL     1       8.624  11.840  22.169  0.00  0.00    +0.000 A 
ATOM     19  N   UNL     1       8.959  11.084  21.135  0.00  0.00    +0.000 NA
ATOM     20  C   UNL     1       9.543  11.707  20.121  0.00  0.00    +0.000 A 
ATOM     21  C   UNL     1       9.656  10.943  18.973  0.00  0.00    +0.000 A 
ATOM     22  C   UNL     1      10.239  11.457  17.826  0.00  0.00    +0.000 A 
ATOM     23  C   UNL     1      10.853  12.665  17.863  0.00  0.00    +0.000 A 
ATOM     24 CL   UNL     1      11.583  13.380  16.486  0.00  0.00    +0.000 Cl
ATOM     25  C   UNL     1      10.812  13.416  19.044  0.00  0.00    +0.000 A 
ATOM     26  C   UNL     1       9.975  13.068  20.134  0.00  0.00    +0.000 A 
ENDBRANCH  11  16
TORSDOF 1
ENDMDL
MODEL 4
REMARK VINA RESULT:      -5.7     11.986     14.775
REMARK  Name = 
REMARK  3 active torsions:
REMARK  status: ('A' for Active; 'I' for Inactive)
REMARK    1  A    between atoms: C_1  and  N_2
REMARK    2  A    between atoms: N_11  and  C_12
REMARK    3  A    between atoms: N_25  and  C_26
REMARK                            x       y       z     vdW  Elec       q    Type
REMARK                         _______ _______ _______ _____ _____    ______ ____
ROOT
ATOM      1  C   UNL     1       0.165  12.716  21.671  0.00  0.00    +0.000 C 
ATOM      2  N   UNL     1      -1.023  13.517  21.893  0.00  0.00    +0.000 N 
ATOM      3  C   UNL     1      -1.560  13.744  23.254  0.00  0.00    +0.000 C 
ATOM      4  C   UNL     1      -2.953  13.192  23.713  0.00  0.00    +0.000 C 
ATOM      5  C   UNL     1      -4.235  13.654  22.935  0.00  0.00    +0.000 C 
ATOM      6  C   UNL     1      -4.078  13.056  21.524  0.00  0.00    +0.000 C 
ATOM      7  C   UNL     1      -2.866  12.477  20.885  0.00  0.00    +0.000 C 
ATOM      8  C   UNL     1      -1.823  13.519  20.768  0.00  0.00    +0.000 C 
ATOM      9  O   UNL     1      -1.556  14.099  19.730  0.00  0.00    +0.000 OA
ATOM     10  C   UNL     1      -5.574  12.937  23.388  0.00  0.00    +0.000 C 
ATOM     11  N   UNL     1      -6.811  13.676  22.888  0.00  0.00    +0.000 N 
ATOM     12  C   UNL     1      -6.949  14.715  23.896  0.00  0.00    +0.000 C 
ATOM     13  C   UNL     1      -5.746  15.683  23.683  0.00  0.00    +0.000 C 
ATOM     14  N   UNL     1      -4.411  15.151  23.151  0.00  0.00    +0.000 NA
ATOM     15  C   UNL     1      -3.995  15.958  22.003  0.00  0.00    +0.000 C 
ENDROOT
BRANCH  11  16
ATOM     16  C   UNL     1      -7.161  14.015  21.537  0.00  0.00    +0.000 A 
ATOM     17  C   UNL     1      -7.197  15.345  21.079  0.00  0.00    +0.000 A 
ATOM     18  C   UNL     1      -7.461  15.702  19.763  0.00  0.00    +0.000 A 
ATOM     19  N   UNL     1      -7.490  14.828  18.769  0.00  0.00    +0.000 NA
ATOM     20  C   UNL     1      -7.348  13.554  19.110  0.00  0.00    +0.000 A 
ATOM     21  C   UNL     1      -7.140  12.700  18.041  0.00  0.00    +0.000 A 
ATOM     22  C   UNL     1      -6.967  11.340  18.235  0.00  0.00    +0.000 A 
ATOM     23  C   UNL     1      -7.160  10.802  19.465  0.00  0.00    +0.000 A 
ATOM     24 CL   UNL     1      -6.950   9.133  19.795  0.00  0.00    +0.000 Cl
ATOM     25  C   UNL     1      -7.448  11.650  20.543  0.00  0.00    +0.000 A 
ATOM     26  C   UNL     1      -7.332  13.059  20.449  0.00  0.00    +0.000 A 
ENDBRANCH  11  16
TORSDOF 1
ENDMDL
MODEL 5
REMARK VINA RESULT:      -5.7     10.524     13.500
REMARK  Name = 
REMARK  3 active torsions:
REMARK  status: ('A' for Active; 'I' for Inactive)
REMARK    1  A    between atoms: C_1  and  N_2
REMARK    2  A    between atoms: N_11  and  C_12
REMARK    3  A    between atoms: N_25  and  C_26
REMARK                            x       y       z     vdW  Elec       q    Type
REMARK                         _______ _______ _______ _____ _____    ______ ____
ROOT
ATOM      1  C   UNL     1       0.913  11.013  18.865  0.00  0.00    +0.000 C 
ATOM      2  N   UNL     1       0.290  12.003  19.723  0.00  0.00    +0.000 N 
ATOM      3  C   UNL     1       0.455  11.966  21.194  0.00  0.00    +0.000 C 
ATOM      4  C   UNL     1      -0.742  11.698  22.170  0.00  0.00    +0.000 C 
ATOM      5  C   UNL     1      -1.960  12.687  22.149  0.00  0.00    +0.000 C 
ATOM      6  C   UNL     1      -2.601  12.498  20.761  0.00  0.00    +0.000 C 
ATOM      7  C   UNL     1      -2.041  11.825  19.558  0.00  0.00    +0.000 C 
ATOM      8  C   UNL     1      -0.825  12.540  19.113  0.00  0.00    +0.000 C 
ATOM      9  O   UNL     1      -0.795  13.299  18.161  0.00  0.00    +0.000 OA
ATOM     10  C   UNL     1      -3.174  12.255  23.072  0.00  0.00    +0.000 C 
ATOM     11  N   UNL     1      -4.143  13.407  23.312  0.00  0.00    +0.000 N 
ATOM     12  C   UNL     1      -3.483  14.112  24.400  0.00  0.00    +0.000 C 
ATOM     13  C   UNL     1      -2.197  14.743  23.785  0.00  0.00    +0.000 C 
ATOM     14  N   UNL     1      -1.475  14.050  22.626  0.00  0.00    +0.000 NA
ATOM     15  C   UNL     1      -1.280  15.010  21.539  0.00  0.00    +0.000 C 
ENDROOT
BRANCH  11  16
ATOM     16  C   UNL     1      -4.845  14.199  22.340  0.00  0.00    +0.000 A 
ATOM     17  C   UNL     1      -4.562  15.561  22.133  0.00  0.00    +0.000 A 
ATOM     18  C   UNL     1      -5.171  16.337  21.154  0.00  0.00    +0.000 A 
ATOM     19  N   UNL     1      -5.912  15.824  20.185  0.00  0.00    +0.000 NA
ATOM     20  C   UNL     1      -6.132  14.517  20.247  0.00  0.00    +0.000 A 
ATOM     21  C   UNL     1      -6.696  13.981  19.104  0.00  0.00    +0.000 A 
ATOM     22  C   UNL     1      -6.979  12.628  19.013  0.00  0.00    +0.000 A 
ATOM     23  C   UNL     1      -6.855  11.836  20.107  0.00  0.00    +0.000 A 
ATOM     24 CL   UNL     1      -7.169  10.151  20.076  0.00  0.00    +0.000 Cl
ATOM     25  C   UNL     1      -6.357  12.386  21.295  0.00  0.00    +0.000 A 
ATOM     26  C   UNL     1      -5.773  13.677  21.345  0.00  0.00    +0.000 A 
ENDBRANCH  11  16
TORSDOF 1
ENDMDL
MODEL 6
REMARK VINA RESULT:      -5.5      9.532     10.939
REMARK  Name = 
REMARK  3 active torsions:
REMARK  status: ('A' for Active; 'I' for Inactive)
REMARK    1  A    between atoms: C_1  and  N_2
REMARK    2  A    between atoms: N_11  and  C_12
REMARK    3  A    between atoms: N_25  and  C_26
REMARK                            x       y       z     vdW  Elec       q    Type
REMARK                         _______ _______ _______ _____ _____    ______ ____
ROOT
ATOM      1  C   UNL     1      -5.645  15.730  24.080  0.00  0.00    +0.000 C 
ATOM      2  N   UNL     1      -4.411  15.391  23.395  0.00  0.00    +0.000 N 
ATOM      3  C   UNL     1      -4.190  15.749  21.976  0.00  0.00    +0.000 C 
ATOM      4  C   UNL     1      -4.045  14.672  20.848  0.00  0.00    +0.000 C 
ATOM      5  C   UNL     1      -2.878  13.629  20.954  0.00  0.00    +0.000 C 
ATOM      6  C   UNL     1      -3.215  12.781  22.196  0.00  0.00    +0.000 C 
ATOM      7  C   UNL     1      -4.199  13.060  23.277  0.00  0.00    +0.000 C 
ATOM      8  C   UNL     1      -3.813  14.297  23.988  0.00  0.00    +0.000 C 
ATOM      9  O   UNL     1      -3.271  14.312  25.079  0.00  0.00    +0.000 OA
ATOM     10  C   UNL     1      -2.898  12.502  19.840  0.00  0.00    +0.000 C 
ATOM     11  N   UNL     1      -1.566  11.764  19.755  0.00  0.00    +0.000 N 
ATOM     12  C   UNL     1      -0.792  12.667  18.918  0.00  0.00    +0.000 C 
ATOM     13  C   UNL     1      -0.534  13.938  19.783  0.00  0.00    +0.000 C 
ATOM     14  N   UNL     1      -1.556  14.378  20.835  0.00  0.00    +0.000 NA
ATOM     15  C   UNL     1      -0.877  14.567  22.117  0.00  0.00    +0.000 C 
ENDROOT
BRANCH  11  16
ATOM     16  C   UNL     1      -0.866  11.064  20.796  0.00  0.00    +0.000 A 
ATOM     17  C   UNL     1      -1.302  11.074  22.134  0.00  0.00    +0.000 A 
ATOM     18  C   UNL     1      -0.691  10.352  23.151  0.00  0.00    +0.000 A 
ATOM     19  N   UNL     1       0.221   9.418  22.926  0.00  0.00    +0.000 NA
ATOM     20  C   UNL     1       0.603   9.269  21.665  0.00  0.00    +0.000 A 
ATOM     21  C   UNL     1       1.364   8.137  21.433  0.00  0.00    +0.000 A 
ATOM     22  C   UNL     1       1.833   7.838  20.164  0.00  0.00    +0.000 A 
ATOM     23  C   UNL     1       1.689   8.739  19.160  0.00  0.00    +0.000 A 
ATOM     24 CL   UNL     1       2.225   8.441  17.559  0.00  0.00    +0.000 Cl
ATOM     25  C   UNL     1       0.985   9.925  19.404  0.00  0.00    +0.000 A 
ATOM     26  C   UNL     1       0.233  10.130  20.588  0.00  0.00    +0.000 A 
ENDBRANCH  11  16
TORSDOF 1
ENDMDL
MODEL 7
REMARK VINA RESULT:      -5.4      1.411      1.632
REMARK  Name = 
REMARK  3 active torsions:
REMARK  status: ('A' for Active; 'I' for Inactive)
REMARK    1  A    between atoms: C_1  and  N_2
REMARK    2  A    between atoms: N_11  and  C_12
REMARK    3  A    between atoms: N_25  and  C_26
REMARK                            x       y       z     vdW  Elec       q    Type
REMARK                         _______ _______ _______ _____ _____    ______ ____
ROOT
ATOM      1  C   UNL     1       4.684  15.871  22.969  0.00  0.00    +0.000 C 
ATOM      2  N   UNL     1       5.840  16.316  22.216  0.00  0.00    +0.000 N 
ATOM      3  C   UNL     1       5.702  17.200  21.035  0.00  0.00    +0.000 C 
ATOM      4  C   UNL     1       6.076  16.735  19.587  0.00  0.00    +0.000 C 
ATOM      5  C   UNL     1       7.552  16.284  19.302  0.00  0.00    +0.000 C 
ATOM      6  C   UNL     1       7.742  15.001  20.134  0.00  0.00    +0.000 C 
ATOM      7  C   UNL     1       6.894  14.468  21.234  0.00  0.00    +0.000 C 
ATOM      8  C   UNL     1       6.886  15.426  22.360  0.00  0.00    +0.000 C 
ATOM      9  O   UNL     1       7.534  15.279  23.380  0.00  0.00    +0.000 OA
ATOM     10  C   UNL     1       7.795  15.706  17.847  0.00  0.00    +0.000 C 
ATOM     11  N   UNL     1       9.279  15.646  17.500  0.00  0.00    +0.000 N 
ATOM     12  C   UNL     1       9.526  17.013  17.068  0.00  0.00    +0.000 C 
ATOM     13  C   UNL     1       9.412  17.895  18.348  0.00  0.00    +0.000 C 
ATOM     14  N   UNL     1       8.463  17.492  19.481  0.00  0.00    +0.000 NA
ATOM     15  C   UNL     1       9.200  17.483  20.746  0.00  0.00    +0.000 C 
ENDROOT
BRANCH  11  16
ATOM     16  C   UNL     1      10.334  14.975  18.208  0.00  0.00    +0.000 A 
ATOM     17  C   UNL     1      11.342  15.674  18.896  0.00  0.00    +0.000 A 
ATOM     18  C   UNL     1      12.333  15.058  19.649  0.00  0.00    +0.000 A 
ATOM     19  N   UNL     1      12.302  13.774  19.972  0.00  0.00    +0.000 NA
ATOM     20  C   UNL     1      11.309  13.066  19.451  0.00  0.00    +0.000 A 
ATOM     21  C   UNL     1      11.166  11.803  19.995  0.00  0.00    +0.000 A 
ATOM     22  C   UNL     1      10.169  10.945  19.560  0.00  0.00    +0.000 A 
ATOM     23  C   UNL     1       9.419  11.273  18.479  0.00  0.00    +0.000 A 
ATOM     24 CL   UNL     1       8.156  10.278  17.886  0.00  0.00    +0.000 Cl
ATOM     25  C   UNL     1       9.608  12.520  17.870  0.00  0.00    +0.000 A 
ATOM     26  C   UNL     1      10.394  13.541  18.463  0.00  0.00    +0.000 A 
ENDBRANCH  11  16
TORSDOF 1
ENDMDL
MODEL 8
REMARK VINA RESULT:      -5.4      8.790     10.208
REMARK  Name = 
REMARK  3 active torsions:
REMARK  status: ('A' for Active; 'I' for Inactive)
REMARK    1  A    between atoms: C_1  and  N_2
REMARK    2  A    between atoms: N_11  and  C_12
REMARK    3  A    between atoms: N_25  and  C_26
REMARK                            x       y       z     vdW  Elec       q    Type
REMARK                         _______ _______ _______ _____ _____    ______ ____
ROOT
ATOM      1  C   UNL     1      -2.792  17.363  24.927  0.00  0.00    +0.000 C 
ATOM      2  N   UNL     1      -1.967  16.607  24.005  0.00  0.00    +0.000 N 
ATOM      3  C   UNL     1      -2.041  16.825  22.542  0.00  0.00    +0.000 C 
ATOM      4  C   UNL     1      -2.560  15.728  21.551  0.00  0.00    +0.000 C 
ATOM      5  C   UNL     1      -1.802  14.356  21.490  0.00  0.00    +0.000 C 
ATOM      6  C   UNL     1      -2.037  13.711  22.869  0.00  0.00    +0.000 C 
ATOM      7  C   UNL     1      -2.546  14.339  24.118  0.00  0.00    +0.000 C 
ATOM      8  C   UNL     1      -1.608  15.394  24.558  0.00  0.00    +0.000 C 
ATOM      9  O   UNL     1      -0.813  15.258  25.471  0.00  0.00    +0.000 OA
ATOM     10  C   UNL     1      -2.483  13.269  20.560  0.00  0.00    +0.000 C 
ATOM     11  N   UNL     1      -1.532  12.121  20.236  0.00  0.00    +0.000 N 
ATOM     12  C   UNL     1      -0.772  12.684  19.131  0.00  0.00    +0.000 C 
ATOM     13  C   UNL     1       0.103  13.818  19.746  0.00  0.00    +0.000 C 
ATOM     14  N   UNL     1      -0.398  14.610  20.958  0.00  0.00    +0.000 NA
ATOM     15  C   UNL     1       0.630  14.597  21.999  0.00  0.00    +0.000 C 
ENDROOT
BRANCH  11  16
ATOM     16  C   UNL     1      -0.833  11.259  21.148  0.00  0.00    +0.000 A 
ATOM     17  C   UNL     1      -1.224  11.109  22.492  0.00  0.00    +0.000 A 
ATOM     18  C   UNL     1      -0.616  10.231  23.380  0.00  0.00    +0.000 A 
ATOM     19  N   UNL     1       0.241   9.297  22.998  0.00  0.00    +0.000 NA
ATOM     20  C   UNL     1       0.574   9.300  21.714  0.00  0.00    +0.000 A 
ATOM     21  C   UNL     1       1.271   8.177  21.306  0.00  0.00    +0.000 A 
ATOM     22  C   UNL     1       1.683   8.030  19.991  0.00  0.00    +0.000 A 
ATOM     23  C   UNL     1       1.550   9.062  19.121  0.00  0.00    +0.000 A 
ATOM     24 CL   UNL     1       2.018   8.958  17.476  0.00  0.00    +0.000 Cl
ATOM     25  C   UNL     1       0.914  10.235  19.547  0.00  0.00    +0.000 A 
ATOM     26  C   UNL     1       0.212  10.314  20.776  0.00  0.00    +0.000 A 
ENDBRANCH  11  16
TORSDOF 1
ENDMDL
MODEL 9
REMARK VINA RESULT:      -5.4      2.606      4.246
REMARK  Name = 
REMARK  3 active torsions:
REMARK  status: ('A' for Active; 'I' for Inactive)
REMARK    1  A    between atoms: C_1  and  N_2
REMARK    2  A    between atoms: N_11  and  C_12
REMARK    3  A    between atoms: N_25  and  C_26
REMARK                            x       y       z     vdW  Elec       q    Type
REMARK                         _______ _______ _______ _____ _____    ______ ____
ROOT
ATOM      1  C   UNL     1       2.813  15.658  19.323  0.00  0.00    +0.000 C 
ATOM      2  N   UNL     1       4.204  15.986  19.078  0.00  0.00    +0.000 N 
ATOM      3  C   UNL     1       4.891  15.564  17.836  0.00  0.00    +0.000 C 
ATOM      4  C   UNL     1       6.078  14.542  17.835  0.00  0.00    +0.000 C 
ATOM      5  C   UNL     1       7.373  14.898  18.645  0.00  0.00    +0.000 C 
ATOM      6  C   UNL     1       6.929  14.906  20.120  0.00  0.00    +0.000 C 
ATOM      7  C   UNL     1       5.550  14.931  20.680  0.00  0.00    +0.000 C 
ATOM      8  C   UNL     1       4.874  16.180  20.269  0.00  0.00    +0.000 C 
ATOM      9  O   UNL     1       4.717  17.140  21.003  0.00  0.00    +0.000 OA
ATOM     10  C   UNL     1       8.458  13.743  18.693  0.00  0.00    +0.000 C 
ATOM     11  N   UNL     1       9.819  14.261  19.148  0.00  0.00    +0.000 N 
ATOM     12  C   UNL     1      10.350  14.797  17.904  0.00  0.00    +0.000 C 
ATOM     13  C   UNL     1       9.490  16.056  17.578  0.00  0.00    +0.000 C 
ATOM     14  N   UNL     1       8.019  16.117  18.001  0.00  0.00    +0.000 NA
ATOM     15  C   UNL     1       7.782  17.359  18.738  0.00  0.00    +0.000 C 
ENDROOT
BRANCH  11  16
ATOM     16  C   UNL     1      10.148  14.955  20.362  0.00  0.00    +0.000 A 
ATOM     17  C   UNL     1      10.720  16.240  20.362  0.00  0.00    +0.000 A 
ATOM     18  C   UNL     1      10.984  16.968  21.516  0.00  0.00    +0.000 A 
ATOM     19  N   UNL     1      10.528  16.619  22.709  0.00  0.00    +0.000 NA
ATOM     20  C   UNL     1       9.875  15.467  22.770  0.00  0.00    +0.000 A 
ATOM     21  C   UNL     1       9.210  15.253  23.964  0.00  0.00    +0.000 A 
ATOM     22  C   UNL     1       8.476  14.098  24.178  0.00  0.00    +0.000 A 
ATOM     23  C   UNL     1       8.533  13.085  23.278  0.00  0.00    +0.000 A 
ATOM     24 CL   UNL     1       7.645  11.630  23.458  0.00  0.00    +0.000 Cl
ATOM     25  C   UNL     1       9.268  13.260  22.099  0.00  0.00    +0.000 A 
ATOM     26  C   UNL     1       9.775  14.523  21.703  0.00  0.00    +0.000 A 
ENDBRANCH  11  16
TORSDOF 1
ENDMDL
