MODEL 1
REMARK VINA RESULT:      -8.2      0.000      0.000
REMARK  Name = 
REMARK  4 active torsions:
REMARK  status: ('A' for Active; 'I' for Inactive)
REMARK    1  A    between atoms: C_5  and  C_6
REMARK    2  A    between atoms: C_6  and  S_7
REMARK    3  A    between atoms: S_7  and  C_10
REMARK    4  A    between atoms: C_14  and  C_15
REMARK                            x       y       z     vdW  Elec       q    Type
REMARK                         _______ _______ _______ _____ _____    ______ ____
ROOT
ATOM      1  S   UNL     1       5.715   5.505  18.215  0.00  0.00    +0.000 S 
ATOM      2  O   UNL     1       5.882   5.540  19.653  0.00  0.00    +0.000 OA
ATOM      3  O   UNL     1       5.612   6.701  17.401  0.00  0.00    +0.000 OA
ENDROOT
BRANCH   1   4
ATOM      4  C   UNL     1       4.173   4.722  17.999  0.00  0.00    +0.000 A 
ATOM      5  C   UNL     1       3.999   3.433  17.521  0.00  0.00    +0.000 A 
ATOM      6  N   UNL     1       2.659   3.163  17.497  0.00  0.00    +0.000 N 
ATOM      7  C   UNL     1       1.970   4.258  17.939  0.00  0.00    +0.000 A 
ATOM      8  C   UNL     1       2.866   5.277  18.239  0.00  0.00    +0.000 A 
ATOM      9  H   UNL     1       2.237   2.293  17.194  0.00  0.00    +0.000 HD
BRANCH   8  10
ATOM     10  C   UNL     1       2.395   6.596  18.675  0.00  0.00    +0.000 A 
ATOM     11  C   UNL     1       2.268   7.673  17.790  0.00  0.00    +0.000 A 
ATOM     12  C   UNL     1       1.773   8.909  18.218  0.00  0.00    +0.000 A 
ATOM     13  C   UNL     1       1.425   9.103  19.551  0.00  0.00    +0.000 A 
ATOM     14  C   UNL     1       1.580   8.060  20.458  0.00  0.00    +0.000 A 
ATOM     15  C   UNL     1       2.054   6.818  20.022  0.00  0.00    +0.000 A 
ENDBRANCH   8  10
ENDBRANCH   1   4
BRANCH   1  16
ATOM     16  C   UNL     1       6.912   4.404  17.523  0.00  0.00    +0.000 C 
BRANCH  16  21
ATOM     17  N   UNL     1       6.213   3.521  12.967  0.00  0.00    +0.000 N 
ATOM     18  C   UNL     1       6.674   4.205  14.016  0.00  0.00    +0.000 A 
ATOM     19  N   UNL     1       7.394   5.300  14.068  0.00  0.00    +0.000 NA
ATOM     20  N   UNL     1       7.588   5.580  15.406  0.00  0.00    +0.000 NA
ATOM     21  C   UNL     1       6.952   4.638  16.073  0.00  0.00    +0.000 A 
ATOM     22  O   UNL     1       6.360   3.717  15.250  0.00  0.00    +0.000 OA
ATOM     23  H   UNL     1       6.202   4.015  12.083  0.00  0.00    +0.000 HD
ATOM     24  H   UNL     1       5.400   2.937  13.125  0.00  0.00    +0.000 HD
ENDBRANCH  16  21
ENDBRANCH   1  16
TORSDOF 4
ENDMDL
MODEL 2
REMARK VINA RESULT:      -8.1      0.049      1.049
REMARK  Name = 
REMARK  4 active torsions:
REMARK  status: ('A' for Active; 'I' for Inactive)
REMARK    1  A    between atoms: C_5  and  C_6
REMARK    2  A    between atoms: C_6  and  S_7
REMARK    3  A    between atoms: S_7  and  C_10
REMARK    4  A    between atoms: C_14  and  C_15
REMARK                            x       y       z     vdW  Elec       q    Type
REMARK                         _______ _______ _______ _____ _____    ______ ____
ROOT
ATOM      1  S   UNL     1       5.668   5.502  18.209  0.00  0.00    +0.000 S 
ATOM      2  O   UNL     1       5.819   5.539  19.649  0.00  0.00    +0.000 OA
ATOM      3  O   UNL     1       5.572   6.696  17.392  0.00  0.00    +0.000 OA
ENDROOT
BRANCH   1   4
ATOM      4  C   UNL     1       4.129   4.717  17.977  0.00  0.00    +0.000 A 
ATOM      5  C   UNL     1       3.961   3.439  17.468  0.00  0.00    +0.000 A 
ATOM      6  N   UNL     1       2.623   3.163  17.440  0.00  0.00    +0.000 N 
ATOM      7  C   UNL     1       1.929   4.242  17.913  0.00  0.00    +0.000 A 
ATOM      8  C   UNL     1       2.820   5.257  18.235  0.00  0.00    +0.000 A 
ATOM      9  H   UNL     1       2.204   2.298  17.116  0.00  0.00    +0.000 HD
BRANCH   8  10
ATOM     10  C   UNL     1       2.344   6.563  18.706  0.00  0.00    +0.000 A 
ATOM     11  C   UNL     1       2.006   6.796  20.044  0.00  0.00    +0.000 A 
ATOM     12  C   UNL     1       1.598   8.061  20.480  0.00  0.00    +0.000 A 
ATOM     13  C   UNL     1       1.488   9.113  19.576  0.00  0.00    +0.000 A 
ATOM     14  C   UNL     1       1.779   8.897  18.234  0.00  0.00    +0.000 A 
ATOM     15  C   UNL     1       2.209   7.636  17.806  0.00  0.00    +0.000 A 
ENDBRANCH   8  10
ENDBRANCH   1   4
BRANCH   1  16
ATOM     16  C   UNL     1       6.874   4.401  17.533  0.00  0.00    +0.000 C 
BRANCH  16  21
ATOM     17  N   UNL     1       6.252   3.536  12.962  0.00  0.00    +0.000 N 
ATOM     18  C   UNL     1       6.694   4.217  14.022  0.00  0.00    +0.000 A 
ATOM     19  N   UNL     1       7.413   5.312  14.090  0.00  0.00    +0.000 NA
ATOM     20  N   UNL     1       7.584   5.586  15.432  0.00  0.00    +0.000 NA
ATOM     21  C   UNL     1       6.937   4.642  16.085  0.00  0.00    +0.000 A 
ATOM     22  O   UNL     1       6.361   3.723  15.248  0.00  0.00    +0.000 OA
ATOM     23  H   UNL     1       6.255   4.034  12.080  0.00  0.00    +0.000 HD
ATOM     24  H   UNL     1       5.437   2.952  13.104  0.00  0.00    +0.000 HD
ENDBRANCH  16  21
ENDBRANCH   1  16
TORSDOF 4
ENDMDL
MODEL 3
REMARK VINA RESULT:      -7.9      0.971      1.526
REMARK  Name = 
REMARK  4 active torsions:
REMARK  status: ('A' for Active; 'I' for Inactive)
REMARK    1  A    between atoms: C_5  and  C_6
REMARK    2  A    between atoms: C_6  and  S_7
REMARK    3  A    between atoms: S_7  and  C_10
REMARK    4  A    between atoms: C_14  and  C_15
REMARK                            x       y       z     vdW  Elec       q    Type
REMARK                         _______ _______ _______ _____ _____    ______ ____
ROOT
ATOM      1  S   UNL     1       5.554   5.025  18.411  0.00  0.00    +0.000 S 
ATOM      2  O   UNL     1       6.488   3.981  18.045  0.00  0.00    +0.000 OA
ATOM      3  O   UNL     1       5.523   5.637  19.724  0.00  0.00    +0.000 OA
ENDROOT
BRANCH   1   4
ATOM      4  C   UNL     1       3.998   4.250  18.278  0.00  0.00    +0.000 A 
ATOM      5  C   UNL     1       3.792   2.965  17.800  0.00  0.00    +0.000 A 
ATOM      6  N   UNL     1       2.452   2.701  17.851  0.00  0.00    +0.000 N 
ATOM      7  C   UNL     1       1.794   3.794  18.343  0.00  0.00    +0.000 A 
ATOM      8  C   UNL     1       2.711   4.807  18.598  0.00  0.00    +0.000 A 
ATOM      9  H   UNL     1       2.009   1.835  17.565  0.00  0.00    +0.000 HD
BRANCH   8  10
ATOM     10  C   UNL     1       2.271   6.124  19.073  0.00  0.00    +0.000 A 
ATOM     11  C   UNL     1       1.828   6.336  20.382  0.00  0.00    +0.000 A 
ATOM     12  C   UNL     1       1.457   7.610  20.826  0.00  0.00    +0.000 A 
ATOM     13  C   UNL     1       1.492   8.694  19.956  0.00  0.00    +0.000 A 
ATOM     14  C   UNL     1       1.892   8.502  18.638  0.00  0.00    +0.000 A 
ATOM     15  C   UNL     1       2.283   7.231  18.204  0.00  0.00    +0.000 A 
ENDBRANCH   8  10
ENDBRANCH   1   4
BRANCH   1  16
ATOM     16  C   UNL     1       5.574   6.276  17.161  0.00  0.00    +0.000 C 
BRANCH  16  21
ATOM     17  N   UNL     1       6.214   3.584  13.371  0.00  0.00    +0.000 N 
ATOM     18  C   UNL     1       6.564   4.469  14.307  0.00  0.00    +0.000 A 
ATOM     19  N   UNL     1       7.704   5.083  14.513  0.00  0.00    +0.000 NA
ATOM     20  N   UNL     1       7.519   5.895  15.614  0.00  0.00    +0.000 NA
ATOM     21  C   UNL     1       6.267   5.726  15.988  0.00  0.00    +0.000 A 
ATOM     22  O   UNL     1       5.603   4.816  15.209  0.00  0.00    +0.000 OA
ATOM     23  H   UNL     1       6.814   3.537  12.556  0.00  0.00    +0.000 HD
ATOM     24  H   UNL     1       5.226   3.508  13.162  0.00  0.00    +0.000 HD
ENDBRANCH  16  21
ENDBRANCH   1  16
TORSDOF 4
ENDMDL
MODEL 4
REMARK VINA RESULT:      -7.9      1.006      1.147
REMARK  Name = 
REMARK  4 active torsions:
REMARK  status: ('A' for Active; 'I' for Inactive)
REMARK    1  A    between atoms: C_5  and  C_6
REMARK    2  A    between atoms: C_6  and  S_7
REMARK    3  A    between atoms: S_7  and  C_10
REMARK    4  A    between atoms: C_14  and  C_15
REMARK                            x       y       z     vdW  Elec       q    Type
REMARK                         _______ _______ _______ _____ _____    ______ ____
ROOT
ATOM      1  S   UNL     1       5.519   4.984  18.444  0.00  0.00    +0.000 S 
ATOM      2  O   UNL     1       6.423   3.926  18.041  0.00  0.00    +0.000 OA
ATOM      3  O   UNL     1       5.557   5.601  19.755  0.00  0.00    +0.000 OA
ENDROOT
BRANCH   1   4
ATOM      4  C   UNL     1       3.950   4.227  18.388  0.00  0.00    +0.000 A 
ATOM      5  C   UNL     1       3.713   2.926  17.971  0.00  0.00    +0.000 A 
ATOM      6  N   UNL     1       2.371   2.684  18.070  0.00  0.00    +0.000 N 
ATOM      7  C   UNL     1       1.743   3.807  18.533  0.00  0.00    +0.000 A 
ATOM      8  C   UNL     1       2.679   4.815  18.719  0.00  0.00    +0.000 A 
ATOM      9  H   UNL     1       1.908   1.814  17.834  0.00  0.00    +0.000 HD
BRANCH   8  10
ATOM     10  C   UNL     1       2.272   6.158  19.149  0.00  0.00    +0.000 A 
ATOM     11  C   UNL     1       2.406   7.279  18.322  0.00  0.00    +0.000 A 
ATOM     12  C   UNL     1       1.967   8.542  18.735  0.00  0.00    +0.000 A 
ATOM     13  C   UNL     1       1.415   8.714  20.000  0.00  0.00    +0.000 A 
ATOM     14  C   UNL     1       1.307   7.624  20.855  0.00  0.00    +0.000 A 
ATOM     15  C   UNL     1       1.726   6.358  20.430  0.00  0.00    +0.000 A 
ENDBRANCH   8  10
ENDBRANCH   1   4
BRANCH   1  16
ATOM     16  C   UNL     1       5.495   6.229  17.189  0.00  0.00    +0.000 C 
BRANCH  16  21
ATOM     17  N   UNL     1       6.271   3.532  13.428  0.00  0.00    +0.000 N 
ATOM     18  C   UNL     1       6.575   4.443  14.354  0.00  0.00    +0.000 A 
ATOM     19  N   UNL     1       7.683   5.116  14.554  0.00  0.00    +0.000 NA
ATOM     20  N   UNL     1       7.458   5.929  15.646  0.00  0.00    +0.000 NA
ATOM     21  C   UNL     1       6.215   5.702  16.022  0.00  0.00    +0.000 A 
ATOM     22  O   UNL     1       5.598   4.751  15.253  0.00  0.00    +0.000 OA
ATOM     23  H   UNL     1       6.873   3.506  12.614  0.00  0.00    +0.000 HD
ATOM     24  H   UNL     1       5.288   3.405  13.220  0.00  0.00    +0.000 HD
ENDBRANCH  16  21
ENDBRANCH   1  16
TORSDOF 4
ENDMDL
MODEL 5
REMARK VINA RESULT:      -7.8      1.906      3.062
REMARK  Name = 
REMARK  4 active torsions:
REMARK  status: ('A' for Active; 'I' for Inactive)
REMARK    1  A    between atoms: C_5  and  C_6
REMARK    2  A    between atoms: C_6  and  S_7
REMARK    3  A    between atoms: S_7  and  C_10
REMARK    4  A    between atoms: C_14  and  C_15
REMARK                            x       y       z     vdW  Elec       q    Type
REMARK                         _______ _______ _______ _____ _____    ______ ____
ROOT
ATOM      1  S   UNL     1       5.469   4.294  17.713  0.00  0.00    +0.000 S 
ATOM      2  O   UNL     1       4.890   3.468  16.674  0.00  0.00    +0.000 OA
ATOM      3  O   UNL     1       5.610   3.856  19.087  0.00  0.00    +0.000 OA
ENDROOT
BRANCH   1   4
ATOM      4  C   UNL     1       4.375   5.647  17.820  0.00  0.00    +0.000 A 
ATOM      5  C   UNL     1       4.611   6.901  17.280  0.00  0.00    +0.000 A 
ATOM      6  N   UNL     1       3.533   7.695  17.556  0.00  0.00    +0.000 N 
ATOM      7  C   UNL     1       2.615   6.977  18.271  0.00  0.00    +0.000 A 
ATOM      8  C   UNL     1       3.103   5.695  18.492  0.00  0.00    +0.000 A 
ATOM      9  H   UNL     1       3.427   8.665  17.282  0.00  0.00    +0.000 HD
BRANCH   8  10
ATOM     10  C   UNL     1       2.350   4.726  19.296  0.00  0.00    +0.000 A 
ATOM     11  C   UNL     1       1.449   3.822  18.722  0.00  0.00    +0.000 A 
ATOM     12  C   UNL     1       0.776   2.875  19.502  0.00  0.00    +0.000 A 
ATOM     13  C   UNL     1       0.967   2.836  20.879  0.00  0.00    +0.000 A 
ATOM     14  C   UNL     1       1.827   3.749  21.477  0.00  0.00    +0.000 A 
ATOM     15  C   UNL     1       2.516   4.680  20.692  0.00  0.00    +0.000 A 
ENDBRANCH   8  10
ENDBRANCH   1   4
BRANCH   1  16
ATOM     16  C   UNL     1       6.999   4.961  17.130  0.00  0.00    +0.000 C 
BRANCH  16  21
ATOM     17  N   UNL     1       6.201   3.147  12.876  0.00  0.00    +0.000 N 
ATOM     18  C   UNL     1       6.663   4.046  13.747  0.00  0.00    +0.000 A 
ATOM     19  N   UNL     1       7.337   5.153  13.549  0.00  0.00    +0.000 NA
ATOM     20  N   UNL     1       7.559   5.706  14.795  0.00  0.00    +0.000 NA
ATOM     21  C   UNL     1       6.984   4.898  15.662  0.00  0.00    +0.000 A 
ATOM     22  O   UNL     1       6.408   3.808  15.065  0.00  0.00    +0.000 OA
ATOM     23  H   UNL     1       6.141   3.450  11.912  0.00  0.00    +0.000 HD
ATOM     24  H   UNL     1       5.418   2.578  13.180  0.00  0.00    +0.000 HD
ENDBRANCH  16  21
ENDBRANCH   1  16
TORSDOF 4
ENDMDL
MODEL 6
REMARK VINA RESULT:      -7.8      2.187      2.798
REMARK  Name = 
REMARK  4 active torsions:
REMARK  status: ('A' for Active; 'I' for Inactive)
REMARK    1  A    between atoms: C_5  and  C_6
REMARK    2  A    between atoms: C_6  and  S_7
REMARK    3  A    between atoms: S_7  and  C_10
REMARK    4  A    between atoms: C_14  and  C_15
REMARK                            x       y       z     vdW  Elec       q    Type
REMARK                         _______ _______ _______ _____ _____    ______ ____
ROOT
ATOM      1  S   UNL     1       4.405   3.223  19.236  0.00  0.00    +0.000 S 
ATOM      2  O   UNL     1       4.121   2.910  17.850  0.00  0.00    +0.000 OA
ATOM      3  O   UNL     1       5.073   2.302  20.134  0.00  0.00    +0.000 OA
ENDROOT
BRANCH   1   4
ATOM      4  C   UNL     1       2.825   3.421  19.945  0.00  0.00    +0.000 A 
ATOM      5  C   UNL     1       2.129   2.429  20.617  0.00  0.00    +0.000 A 
ATOM      6  N   UNL     1       0.938   2.953  21.036  0.00  0.00    +0.000 N 
ATOM      7  C   UNL     1       0.853   4.258  20.637  0.00  0.00    +0.000 A 
ATOM      8  C   UNL     1       1.995   4.596  19.922  0.00  0.00    +0.000 A 
ATOM      9  H   UNL     1       0.223   2.456  21.556  0.00  0.00    +0.000 HD
BRANCH   8  10
ATOM     10  C   UNL     1       2.143   5.924  19.314  0.00  0.00    +0.000 A 
ATOM     11  C   UNL     1       2.528   6.095  17.980  0.00  0.00    +0.000 A 
ATOM     12  C   UNL     1       2.617   7.369  17.407  0.00  0.00    +0.000 A 
ATOM     13  C   UNL     1       2.355   8.501  18.171  0.00  0.00    +0.000 A 
ATOM     14  C   UNL     1       2.009   8.359  19.510  0.00  0.00    +0.000 A 
ATOM     15  C   UNL     1       1.898   7.083  20.073  0.00  0.00    +0.000 A 
ENDBRANCH   8  10
ENDBRANCH   1   4
BRANCH   1  16
ATOM     16  C   UNL     1       5.171   4.814  19.320  0.00  0.00    +0.000 C 
BRANCH  16  21
ATOM     17  N   UNL     1       7.135   5.541  15.119  0.00  0.00    +0.000 N 
ATOM     18  C   UNL     1       7.098   5.139  16.391  0.00  0.00    +0.000 A 
ATOM     19  N   UNL     1       8.018   4.564  17.128  0.00  0.00    +0.000 NA
ATOM     20  N   UNL     1       7.457   4.365  18.373  0.00  0.00    +0.000 NA
ATOM     21  C   UNL     1       6.235   4.852  18.307  0.00  0.00    +0.000 A 
ATOM     22  O   UNL     1       5.932   5.347  17.065  0.00  0.00    +0.000 OA
ATOM     23  H   UNL     1       8.056   5.645  14.711  0.00  0.00    +0.000 HD
ATOM     24  H   UNL     1       6.480   6.267  14.853  0.00  0.00    +0.000 HD
ENDBRANCH  16  21
ENDBRANCH   1  16
TORSDOF 4
ENDMDL
MODEL 7
REMARK VINA RESULT:      -7.7      1.867      3.154
REMARK  Name = 
REMARK  4 active torsions:
REMARK  status: ('A' for Active; 'I' for Inactive)
REMARK    1  A    between atoms: C_5  and  C_6
REMARK    2  A    between atoms: C_6  and  S_7
REMARK    3  A    between atoms: S_7  and  C_10
REMARK    4  A    between atoms: C_14  and  C_15
REMARK                            x       y       z     vdW  Elec       q    Type
REMARK                         _______ _______ _______ _____ _____    ______ ____
ROOT
ATOM      1  S   UNL     1       5.585   4.242  17.743  0.00  0.00    +0.000 S 
ATOM      2  O   UNL     1       4.981   3.369  16.757  0.00  0.00    +0.000 OA
ATOM      3  O   UNL     1       5.746   3.872  19.135  0.00  0.00    +0.000 OA
ENDROOT
BRANCH   1   4
ATOM      4  C   UNL     1       4.502   5.608  17.799  0.00  0.00    +0.000 A 
ATOM      5  C   UNL     1       4.778   6.859  17.271  0.00  0.00    +0.000 A 
ATOM      6  N   UNL     1       3.698   7.666  17.498  0.00  0.00    +0.000 N 
ATOM      7  C   UNL     1       2.740   6.958  18.169  0.00  0.00    +0.000 A 
ATOM      8  C   UNL     1       3.202   5.671  18.413  0.00  0.00    +0.000 A 
ATOM      9  H   UNL     1       3.616   8.637  17.219  0.00  0.00    +0.000 HD
BRANCH   8  10
ATOM     10  C   UNL     1       2.401   4.711  19.180  0.00  0.00    +0.000 A 
ATOM     11  C   UNL     1       2.425   4.668  20.578  0.00  0.00    +0.000 A 
ATOM     12  C   UNL     1       1.617   3.774  21.291  0.00  0.00    +0.000 A 
ATOM     13  C   UNL     1       0.793   2.881  20.615  0.00  0.00    +0.000 A 
ATOM     14  C   UNL     1       0.781   2.878  19.224  0.00  0.00    +0.000 A 
ATOM     15  C   UNL     1       1.572   3.788  18.515  0.00  0.00    +0.000 A 
ENDBRANCH   8  10
ENDBRANCH   1   4
BRANCH   1  16
ATOM     16  C   UNL     1       7.109   4.866  17.101  0.00  0.00    +0.000 C 
BRANCH  16  21
ATOM     17  N   UNL     1       6.090   3.141  12.857  0.00  0.00    +0.000 N 
ATOM     18  C   UNL     1       6.604   4.018  13.722  0.00  0.00    +0.000 A 
ATOM     19  N   UNL     1       7.283   5.120  13.512  0.00  0.00    +0.000 NA
ATOM     20  N   UNL     1       7.570   5.647  14.756  0.00  0.00    +0.000 NA
ATOM     21  C   UNL     1       7.026   4.830  15.635  0.00  0.00    +0.000 A 
ATOM     22  O   UNL     1       6.408   3.759  15.046  0.00  0.00    +0.000 OA
ATOM     23  H   UNL     1       5.990   3.463  11.902  0.00  0.00    +0.000 HD
ATOM     24  H   UNL     1       5.315   2.577  13.187  0.00  0.00    +0.000 HD
ENDBRANCH  16  21
ENDBRANCH   1  16
TORSDOF 4
ENDMDL
MODEL 8
REMARK VINA RESULT:      -7.7      0.986      1.181
REMARK  Name = 
REMARK  4 active torsions:
REMARK  status: ('A' for Active; 'I' for Inactive)
REMARK    1  A    between atoms: C_5  and  C_6
REMARK    2  A    between atoms: C_6  and  S_7
REMARK    3  A    between atoms: S_7  and  C_10
REMARK    4  A    between atoms: C_14  and  C_15
REMARK                            x       y       z     vdW  Elec       q    Type
REMARK                         _______ _______ _______ _____ _____    ______ ____
ROOT
ATOM      1  S   UNL     1       5.518   5.619  17.359  0.00  0.00    +0.000 S 
ATOM      2  O   UNL     1       5.816   6.097  18.694  0.00  0.00    +0.000 OA
ATOM      3  O   UNL     1       5.270   6.504  16.238  0.00  0.00    +0.000 OA
ENDROOT
BRANCH   1   4
ATOM      4  C   UNL     1       4.011   4.765  17.554  0.00  0.00    +0.000 A 
ATOM      5  C   UNL     1       3.791   3.450  17.174  0.00  0.00    +0.000 A 
ATOM      6  N   UNL     1       2.501   3.125  17.489  0.00  0.00    +0.000 N 
ATOM      7  C   UNL     1       1.888   4.208  18.055  0.00  0.00    +0.000 A 
ATOM      8  C   UNL     1       2.778   5.274  18.093  0.00  0.00    +0.000 A 
ATOM      9  H   UNL     1       2.061   2.227  17.326  0.00  0.00    +0.000 HD
BRANCH   8  10
ATOM     10  C   UNL     1       2.363   6.590  18.592  0.00  0.00    +0.000 A 
ATOM     11  C   UNL     1       2.262   7.707  17.756  0.00  0.00    +0.000 A 
ATOM     12  C   UNL     1       1.819   8.942  18.245  0.00  0.00    +0.000 A 
ATOM     13  C   UNL     1       1.500   9.091  19.591  0.00  0.00    +0.000 A 
ATOM     14  C   UNL     1       1.630   8.005  20.450  0.00  0.00    +0.000 A 
ATOM     15  C   UNL     1       2.052   6.766  19.953  0.00  0.00    +0.000 A 
ENDBRANCH   8  10
ENDBRANCH   1   4
BRANCH   1  16
ATOM     16  C   UNL     1       6.709   4.392  16.909  0.00  0.00    +0.000 C 
BRANCH  16  21
ATOM     17  N   UNL     1       8.254   5.846  12.723  0.00  0.00    +0.000 N 
ATOM     18  C   UNL     1       7.514   5.115  13.559  0.00  0.00    +0.000 A 
ATOM     19  N   UNL     1       6.594   4.213  13.314  0.00  0.00    +0.000 NA
ATOM     20  N   UNL     1       6.148   3.763  14.541  0.00  0.00    +0.000 NA
ATOM     21  C   UNL     1       6.846   4.417  15.447  0.00  0.00    +0.000 A 
ATOM     22  O   UNL     1       7.725   5.309  14.892  0.00  0.00    +0.000 OA
ATOM     23  H   UNL     1       8.303   5.516  11.766  0.00  0.00    +0.000 HD
ATOM     24  H   UNL     1       9.131   6.201  13.083  0.00  0.00    +0.000 HD
ENDBRANCH  16  21
ENDBRANCH   1  16
TORSDOF 4
ENDMDL
MODEL 9
REMARK VINA RESULT:      -7.7      1.804      2.208
REMARK  Name = 
REMARK  4 active torsions:
REMARK  status: ('A' for Active; 'I' for Inactive)
REMARK    1  A    between atoms: C_5  and  C_6
REMARK    2  A    between atoms: C_6  and  S_7
REMARK    3  A    between atoms: S_7  and  C_10
REMARK    4  A    between atoms: C_14  and  C_15
REMARK                            x       y       z     vdW  Elec       q    Type
REMARK                         _______ _______ _______ _____ _____    ______ ____
ROOT
ATOM      1  S   UNL     1       4.602   3.925  19.305  0.00  0.00    +0.000 S 
ATOM      2  O   UNL     1       5.223   2.701  19.766  0.00  0.00    +0.000 OA
ATOM      3  O   UNL     1       5.040   5.242  19.722  0.00  0.00    +0.000 OA
ENDROOT
BRANCH   1   4
ATOM      4  C   UNL     1       2.974   3.816  19.918  0.00  0.00    +0.000 A 
ATOM      5  C   UNL     1       2.390   2.660  20.412  0.00  0.00    +0.000 A 
ATOM      6  N   UNL     1       1.115   2.960  20.806  0.00  0.00    +0.000 N 
ATOM      7  C   UNL     1       0.868   4.284  20.565  0.00  0.00    +0.000 A 
ATOM      8  C   UNL     1       1.988   4.862  19.980  0.00  0.00    +0.000 A 
ATOM      9  H   UNL     1       0.451   2.309  21.209  0.00  0.00    +0.000 HD
BRANCH   8  10
ATOM     10  C   UNL     1       1.978   6.266  19.551  0.00  0.00    +0.000 A 
ATOM     11  C   UNL     1       2.310   6.649  18.247  0.00  0.00    +0.000 A 
ATOM     12  C   UNL     1       2.249   7.989  17.847  0.00  0.00    +0.000 A 
ATOM     13  C   UNL     1       1.887   8.977  18.757  0.00  0.00    +0.000 A 
ATOM     14  C   UNL     1       1.591   8.625  20.069  0.00  0.00    +0.000 A 
ATOM     15  C   UNL     1       1.631   7.282  20.459  0.00  0.00    +0.000 A 
ENDBRANCH   8  10
ENDBRANCH   1   4
BRANCH   1  16
ATOM     16  C   UNL     1       4.455   3.866  17.544  0.00  0.00    +0.000 C 
BRANCH  16  21
ATOM     17  N   UNL     1       7.461   5.334  14.253  0.00  0.00    +0.000 N 
ATOM     18  C   UNL     1       7.096   4.916  15.466  0.00  0.00    +0.000 A 
ATOM     19  N   UNL     1       7.815   4.688  16.539  0.00  0.00    +0.000 NA
ATOM     20  N   UNL     1       6.935   4.275  17.520  0.00  0.00    +0.000 NA
ATOM     21  C   UNL     1       5.737   4.300  16.973  0.00  0.00    +0.000 A 
ATOM     22  O   UNL     1       5.766   4.683  15.658  0.00  0.00    +0.000 OA
ATOM     23  H   UNL     1       8.375   5.766  14.186  0.00  0.00    +0.000 HD
ATOM     24  H   UNL     1       6.748   5.787  13.693  0.00  0.00    +0.000 HD
ENDBRANCH  16  21
ENDBRANCH   1  16
TORSDOF 4
ENDMDL
