MODEL 1
REMARK VINA RESULT:      -5.6      0.000      0.000
REMARK  Name = 
REMARK  1 active torsions:
REMARK  status: ('A' for Active; 'I' for Inactive)
REMARK    1  A    between atoms: N_1  and  C_2
REMARK                            x       y       z     vdW  Elec       q    Type
REMARK                         _______ _______ _______ _____ _____    ______ ____
ROOT
ATOM      1  C   UNL     1       6.651   4.308  17.033  0.00  0.00    +0.000 C 
ATOM      2  C   UNL     1       6.767   5.484  16.012  0.00  0.00    +0.000 C 
ATOM      3  C   UNL     1       5.444   6.244  16.158  0.00  0.00    +0.000 C 
ATOM      4  O   UNL     1       5.038   7.112  15.399  0.00  0.00    +0.000 OA
ATOM      5  C   UNL     1       4.788   5.787  17.355  0.00  0.00    +0.000 A 
ATOM      6  C   UNL     1       5.486   4.723  17.859  0.00  0.00    +0.000 A 
ATOM      7  S   UNL     1       4.820   4.086  19.261  0.00  0.00    +0.000 S 
ATOM      8  C   UNL     1       3.582   5.269  19.220  0.00  0.00    +0.000 A 
ATOM      9 CL   UNL     1       2.409   5.271  20.481  0.00  0.00    +0.000 Cl
ATOM     10  C   UNL     1       3.661   6.119  18.134  0.00  0.00    +0.000 A 
ATOM     11 CL   UNL     1       2.590   7.393  17.761  0.00  0.00    +0.000 Cl
ENDROOT
BRANCH   1  12
ATOM     12  N   UNL     1       7.865   4.146  17.815  0.00  0.00    +0.000 NA
ATOM     13  H   UNL     1       8.085   3.155  17.911  0.00  0.00    +0.000 HD
ATOM     14  H   UNL     1       7.704   4.492  18.762  0.00  0.00    +0.000 HD
ENDBRANCH   1  12
TORSDOF 1
ENDMDL
MODEL 2
REMARK VINA RESULT:      -5.4      3.354      4.621
REMARK  Name = 
REMARK  1 active torsions:
REMARK  status: ('A' for Active; 'I' for Inactive)
REMARK    1  A    between atoms: N_1  and  C_2
REMARK                            x       y       z     vdW  Elec       q    Type
REMARK                         _______ _______ _______ _____ _____    ______ ____
ROOT
ATOM      1  C   UNL     1       2.325   2.618  19.624  0.00  0.00    +0.000 C 
ATOM      2  C   UNL     1       1.295   3.479  20.424  0.00  0.00    +0.000 C 
ATOM      3  C   UNL     1       1.702   4.926  20.127  0.00  0.00    +0.000 C 
ATOM      4  O   UNL     1       1.286   5.914  20.715  0.00  0.00    +0.000 OA
ATOM      5  C   UNL     1       2.622   4.922  19.020  0.00  0.00    +0.000 A 
ATOM      6  C   UNL     1       2.943   3.625  18.722  0.00  0.00    +0.000 A 
ATOM      7  S   UNL     1       4.020   3.476  17.444  0.00  0.00    +0.000 S 
ATOM      8  C   UNL     1       4.048   5.179  17.259  0.00  0.00    +0.000 A 
ATOM      9 CL   UNL     1       5.013   5.850  16.000  0.00  0.00    +0.000 Cl
ATOM     10  C   UNL     1       3.267   5.851  18.179  0.00  0.00    +0.000 A 
ATOM     11 CL   UNL     1       3.075   7.541  18.307  0.00  0.00    +0.000 Cl
ENDROOT
BRANCH   1  12
ATOM     12  N   UNL     1       1.680   1.535  18.900  0.00  0.00    +0.000 NA
ATOM     13  H   UNL     1       2.383   0.881  18.558  0.00  0.00    +0.000 HD
ATOM     14  H   UNL     1       1.218   1.913  18.072  0.00  0.00    +0.000 HD
ENDBRANCH   1  12
TORSDOF 1
ENDMDL
MODEL 3
REMARK VINA RESULT:      -5.4      1.733      2.349
REMARK  Name = 
REMARK  1 active torsions:
REMARK  status: ('A' for Active; 'I' for Inactive)
REMARK    1  A    between atoms: N_1  and  C_2
REMARK                            x       y       z     vdW  Elec       q    Type
REMARK                         _______ _______ _______ _____ _____    ______ ____
ROOT
ATOM      1  C   UNL     1       5.381   4.409  17.595  0.00  0.00    +0.000 C 
ATOM      2  C   UNL     1       5.155   5.940  17.382  0.00  0.00    +0.000 C 
ATOM      3  C   UNL     1       3.870   6.244  18.161  0.00  0.00    +0.000 C 
ATOM      4  O   UNL     1       3.227   7.282  18.090  0.00  0.00    +0.000 OA
ATOM      5  C   UNL     1       3.576   5.119  19.009  0.00  0.00    +0.000 A 
ATOM      6  C   UNL     1       4.446   4.106  18.710  0.00  0.00    +0.000 A 
ATOM      7  S   UNL     1       4.207   2.722  19.630  0.00  0.00    +0.000 S 
ATOM      8  C   UNL     1       2.929   3.492  20.471  0.00  0.00    +0.000 A 
ATOM      9 CL   UNL     1       2.125   2.618  21.718  0.00  0.00    +0.000 Cl
ATOM     10  C   UNL     1       2.670   4.777  20.034  0.00  0.00    +0.000 A 
ATOM     11 CL   UNL     1       1.461   5.826  20.622  0.00  0.00    +0.000 Cl
ENDROOT
BRANCH   1  12
ATOM     12  N   UNL     1       6.764   4.105  17.922  0.00  0.00    +0.000 NA
ATOM     13  H   UNL     1       6.979   3.145  17.656  0.00  0.00    +0.000 HD
ATOM     14  H   UNL     1       6.888   4.152  18.934  0.00  0.00    +0.000 HD
ENDBRANCH   1  12
TORSDOF 1
ENDMDL
MODEL 4
REMARK VINA RESULT:      -5.4      3.030      4.135
REMARK  Name = 
REMARK  1 active torsions:
REMARK  status: ('A' for Active; 'I' for Inactive)
REMARK    1  A    between atoms: N_1  and  C_2
REMARK                            x       y       z     vdW  Elec       q    Type
REMARK                         _______ _______ _______ _____ _____    ______ ____
ROOT
ATOM      1  C   UNL     1       3.814   2.329  19.147  0.00  0.00    +0.000 C 
ATOM      2  C   UNL     1       2.470   2.588  19.901  0.00  0.00    +0.000 C 
ATOM      3  C   UNL     1       2.216   4.088  19.717  0.00  0.00    +0.000 C 
ATOM      4  O   UNL     1       1.378   4.744  20.319  0.00  0.00    +0.000 OA
ATOM      5  C   UNL     1       3.102   4.577  18.694  0.00  0.00    +0.000 A 
ATOM      6  C   UNL     1       3.974   3.577  18.355  0.00  0.00    +0.000 A 
ATOM      7  S   UNL     1       5.074   4.020  17.168  0.00  0.00    +0.000 S 
ATOM      8  C   UNL     1       4.363   5.575  17.076  0.00  0.00    +0.000 A 
ATOM      9 CL   UNL     1       5.001   6.702  15.941  0.00  0.00    +0.000 Cl
ATOM     10  C   UNL     1       3.319   5.762  17.961  0.00  0.00    +0.000 A 
ATOM     11 CL   UNL     1       2.398   7.184  18.161  0.00  0.00    +0.000 Cl
ENDROOT
BRANCH   1  12
ATOM     12  N   UNL     1       3.748   1.140  18.315  0.00  0.00    +0.000 NA
ATOM     13  H   UNL     1       2.894   0.623  18.517  0.00  0.00    +0.000 HD
ATOM     14  H   UNL     1       4.520   0.517  18.558  0.00  0.00    +0.000 HD
ENDBRANCH   1  12
TORSDOF 1
ENDMDL
MODEL 5
REMARK VINA RESULT:      -5.4      1.945      2.397
REMARK  Name = 
REMARK  1 active torsions:
REMARK  status: ('A' for Active; 'I' for Inactive)
REMARK    1  A    between atoms: N_1  and  C_2
REMARK                            x       y       z     vdW  Elec       q    Type
REMARK                         _______ _______ _______ _____ _____    ______ ____
ROOT
ATOM      1  C   UNL     1       4.616   4.183  16.437  0.00  0.00    +0.000 C 
ATOM      2  C   UNL     1       4.859   5.722  16.546  0.00  0.00    +0.000 C 
ATOM      3  C   UNL     1       3.870   6.186  17.621  0.00  0.00    +0.000 C 
ATOM      4  O   UNL     1       3.587   7.349  17.870  0.00  0.00    +0.000 OA
ATOM      5  C   UNL     1       3.365   5.025  18.306  0.00  0.00    +0.000 A 
ATOM      6  C   UNL     1       3.812   3.905  17.657  0.00  0.00    +0.000 A 
ATOM      7  S   UNL     1       3.288   2.471  18.353  0.00  0.00    +0.000 S 
ATOM      8  C   UNL     1       2.462   3.353  19.567  0.00  0.00    +0.000 A 
ATOM      9 CL   UNL     1       1.620   2.476  20.787  0.00  0.00    +0.000 Cl
ATOM     10  C   UNL     1       2.563   4.723  19.425  0.00  0.00    +0.000 A 
ATOM     11 CL   UNL     1       1.853   5.904  20.430  0.00  0.00    +0.000 Cl
ENDROOT
BRANCH   1  12
ATOM     12  N   UNL     1       5.863   3.438  16.404  0.00  0.00    +0.000 NA
ATOM     13  H   UNL     1       6.305   3.545  15.492  0.00  0.00    +0.000 HD
ATOM     14  H   UNL     1       5.663   2.442  16.506  0.00  0.00    +0.000 HD
ENDBRANCH   1  12
TORSDOF 1
ENDMDL
MODEL 6
REMARK VINA RESULT:      -5.3      1.759      2.091
REMARK  Name = 
REMARK  1 active torsions:
REMARK  status: ('A' for Active; 'I' for Inactive)
REMARK    1  A    between atoms: N_1  and  C_2
REMARK                            x       y       z     vdW  Elec       q    Type
REMARK                         _______ _______ _______ _____ _____    ______ ____
ROOT
ATOM      1  C   UNL     1       4.348   3.569  18.351  0.00  0.00    +0.000 C 
ATOM      2  C   UNL     1       5.177   4.212  17.193  0.00  0.00    +0.000 C 
ATOM      3  C   UNL     1       4.537   5.590  16.992  0.00  0.00    +0.000 C 
ATOM      4  O   UNL     1       4.749   6.339  16.048  0.00  0.00    +0.000 OA
ATOM      5  C   UNL     1       3.680   5.863  18.115  0.00  0.00    +0.000 A 
ATOM      6  C   UNL     1       3.604   4.737  18.891  0.00  0.00    +0.000 A 
ATOM      7  S   UNL     1       2.624   4.917  20.241  0.00  0.00    +0.000 S 
ATOM      8  C   UNL     1       2.309   6.543  19.806  0.00  0.00    +0.000 A 
ATOM      9 CL   UNL     1       1.296   7.484  20.833  0.00  0.00    +0.000 Cl
ATOM     10  C   UNL     1       2.920   6.932  18.630  0.00  0.00    +0.000 A 
ATOM     11 CL   UNL     1       2.809   8.463  17.885  0.00  0.00    +0.000 Cl
ENDROOT
BRANCH   1  12
ATOM     12  N   UNL     1       5.202   2.939  19.343  0.00  0.00    +0.000 NA
ATOM     13  H   UNL     1       5.518   3.633  20.019  0.00  0.00    +0.000 HD
ATOM     14  H   UNL     1       6.044   2.585  18.887  0.00  0.00    +0.000 HD
ENDBRANCH   1  12
TORSDOF 1
ENDMDL
MODEL 7
REMARK VINA RESULT:      -5.3      2.896      3.322
REMARK  Name = 
REMARK  1 active torsions:
REMARK  status: ('A' for Active; 'I' for Inactive)
REMARK    1  A    between atoms: N_1  and  C_2
REMARK                            x       y       z     vdW  Elec       q    Type
REMARK                         _______ _______ _______ _____ _____    ______ ____
ROOT
ATOM      1  C   UNL     1       6.686   6.050  16.692  0.00  0.00    +0.000 C 
ATOM      2  C   UNL     1       7.612   6.085  17.950  0.00  0.00    +0.000 C 
ATOM      3  C   UNL     1       6.824   5.322  19.021  0.00  0.00    +0.000 C 
ATOM      4  O   UNL     1       7.095   5.290  20.213  0.00  0.00    +0.000 OA
ATOM      5  C   UNL     1       5.740   4.626  18.378  0.00  0.00    +0.000 A 
ATOM      6  C   UNL     1       5.688   5.014  17.066  0.00  0.00    +0.000 A 
ATOM      7  S   UNL     1       4.456   4.276  16.197  0.00  0.00    +0.000 S 
ATOM      8  C   UNL     1       3.989   3.396  17.589  0.00  0.00    +0.000 A 
ATOM      9 CL   UNL     1       2.673   2.293  17.458  0.00  0.00    +0.000 Cl
ATOM     10  C   UNL     1       4.745   3.684  18.709  0.00  0.00    +0.000 A 
ATOM     11 CL   UNL     1       4.550   3.017  20.267  0.00  0.00    +0.000 Cl
ENDROOT
BRANCH   1  12
ATOM     12  N   UNL     1       7.423   5.712  15.486  0.00  0.00    +0.000 NA
ATOM     13  H   UNL     1       6.777   5.392  14.765  0.00  0.00    +0.000 HD
ATOM     14  H   UNL     1       8.043   4.925  15.680  0.00  0.00    +0.000 HD
ENDBRANCH   1  12
TORSDOF 1
ENDMDL
MODEL 8
REMARK VINA RESULT:      -5.2      3.876      4.999
REMARK  Name = 
REMARK  1 active torsions:
REMARK  status: ('A' for Active; 'I' for Inactive)
REMARK    1  A    between atoms: N_1  and  C_2
REMARK                            x       y       z     vdW  Elec       q    Type
REMARK                         _______ _______ _______ _____ _____    ______ ____
ROOT
ATOM      1  C   UNL     1       1.660   3.054  19.684  0.00  0.00    +0.000 C 
ATOM      2  C   UNL     1       2.642   2.240  20.588  0.00  0.00    +0.000 C 
ATOM      3  C   UNL     1       4.032   2.596  20.050  0.00  0.00    +0.000 C 
ATOM      4  O   UNL     1       5.072   2.022  20.340  0.00  0.00    +0.000 OA
ATOM      5  C   UNL     1       3.907   3.737  19.182  0.00  0.00    +0.000 A 
ATOM      6  C   UNL     1       2.576   4.009  19.006  0.00  0.00    +0.000 A 
ATOM      7  S   UNL     1       2.286   5.323  18.003  0.00  0.00    +0.000 S 
ATOM      8  C   UNL     1       3.971   5.559  17.812  0.00  0.00    +0.000 A 
ATOM      9 CL   UNL     1       4.509   6.874  16.838  0.00  0.00    +0.000 Cl
ATOM     10  C   UNL     1       4.743   4.630  18.482  0.00  0.00    +0.000 A 
ATOM     11 CL   UNL     1       6.447   4.545  18.498  0.00  0.00    +0.000 Cl
ENDROOT
BRANCH   1  12
ATOM     12  N   UNL     1       0.631   3.720  20.464  0.00  0.00    +0.000 NA
ATOM     13  H   UNL     1      -0.235   3.762  19.929  0.00  0.00    +0.000 HD
ATOM     14  H   UNL     1       0.908   4.688  20.630  0.00  0.00    +0.000 HD
ENDBRANCH   1  12
TORSDOF 1
ENDMDL
MODEL 9
REMARK VINA RESULT:      -5.2      3.418      4.630
REMARK  Name = 
REMARK  1 active torsions:
REMARK  status: ('A' for Active; 'I' for Inactive)
REMARK    1  A    between atoms: N_1  and  C_2
REMARK                            x       y       z     vdW  Elec       q    Type
REMARK                         _______ _______ _______ _____ _____    ______ ____
ROOT
ATOM      1  C   UNL     1       1.766   3.637  20.120  0.00  0.00    +0.000 C 
ATOM      2  C   UNL     1       1.299   5.063  20.555  0.00  0.00    +0.000 C 
ATOM      3  C   UNL     1       2.234   6.013  19.797  0.00  0.00    +0.000 C 
ATOM      4  O   UNL     1       2.346   7.213  20.006  0.00  0.00    +0.000 OA
ATOM      5  C   UNL     1       2.922   5.260  18.782  0.00  0.00    +0.000 A 
ATOM      6  C   UNL     1       2.630   3.933  18.948  0.00  0.00    +0.000 A 
ATOM      7  S   UNL     1       3.378   2.936  17.824  0.00  0.00    +0.000 S 
ATOM      8  C   UNL     1       4.092   4.301  17.075  0.00  0.00    +0.000 A 
ATOM      9 CL   UNL     1       5.084   4.050  15.690  0.00  0.00    +0.000 Cl
ATOM     10  C   UNL     1       3.786   5.498  17.693  0.00  0.00    +0.000 A 
ATOM     11 CL   UNL     1       4.335   7.047  17.238  0.00  0.00    +0.000 Cl
ENDROOT
BRANCH   1  12
ATOM     12  N   UNL     1       0.643   2.777  19.788  0.00  0.00    +0.000 NA
ATOM     13  H   UNL     1      -0.135   2.964  20.420  0.00  0.00    +0.000 HD
ATOM     14  H   UNL     1       0.907   1.803  19.946  0.00  0.00    +0.000 HD
ENDBRANCH   1  12
TORSDOF 1
ENDMDL
