MODEL 1
REMARK VINA RESULT:      -8.1      0.000      0.000
REMARK  Name = 
REMARK  12 active torsions:
REMARK  status: ('A' for Active; 'I' for Inactive)
REMARK    1  A    between atoms: C_1  and  C_2
REMARK    2  A    between atoms: C_2  and  O_3
REMARK    3  A    between atoms: C_2  and  C_16
REMARK    4  A    between atoms: O_3  and  C_4
REMARK    5  A    between atoms: C_4  and  C_6
REMARK    6  A    between atoms: C_7  and  C_8
REMARK    7  A    between atoms: C_11  and  O_12
REMARK    8  A    between atoms: C_13  and  O_14
REMARK    9  A    between atoms: C_16  and  C_18
REMARK   10  A    between atoms: C_20  and  C_21
REMARK   11  A    between atoms: C_21  and  O_22
REMARK   12  A    between atoms: C_21  and  C_23
REMARK                            x       y       z     vdW  Elec       q    Type
REMARK                         _______ _______ _______ _____ _____    ______ ____
ROOT
ATOM      1  C   UNL     1       2.164   4.568  21.098  0.00  0.00    +0.000 C 
ATOM      2  C   UNL     1       1.877   5.153  19.721  0.00  0.00    +0.000 C 
ENDROOT
BRANCH   2   3
ATOM      3  C   UNL     1       2.071   4.146  18.580  0.00  0.00    +0.000 C 
ATOM      4  O   UNL     1       1.440   4.150  17.530  0.00  0.00    +0.000 OA
BRANCH   3   5
ATOM      5  C   UNL     1       3.171   3.160  18.822  0.00  0.00    +0.000 C 
ATOM      6  C   UNL     1       3.426   2.115  17.765  0.00  0.00    +0.000 C 
ATOM      7  C   UNL     1       4.521   3.092  18.122  0.00  0.00    +0.000 C 
BRANCH   7   8
ATOM      8  C   UNL     1       5.025   3.996  17.033  0.00  0.00    +0.000 C 
BRANCH   8   9
ATOM      9  C   UNL     1       6.179   4.936  17.444  0.00  0.00    +0.000 C 
ATOM     10  C   UNL     1       5.941   6.402  17.112  0.00  0.00    +0.000 C 
ATOM     11  C   UNL     1       7.173   7.149  17.525  0.00  0.00    +0.000 C 
ATOM     12  C   UNL     1       7.896   6.722  18.570  0.00  0.00    +0.000 C 
ATOM     13  C   UNL     1       7.450   5.571  19.392  0.00  0.00    +0.000 C 
ATOM     14  O   UNL     1       7.932   5.367  20.494  0.00  0.00    +0.000 OA
ATOM     15  O   UNL     1       6.457   4.801  18.863  0.00  0.00    +0.000 OA
ENDBRANCH   8   9
BRANCH   8  16
ATOM     16  O   UNL     1       5.496   3.153  15.970  0.00  0.00    +0.000 OA
ATOM     17  H   UNL     1       5.652   2.274  16.366  0.00  0.00    +0.000 HD
ENDBRANCH   8  16
ENDBRANCH   7   8
ENDBRANCH   3   5
ENDBRANCH   2   3
BRANCH   2  18
ATOM     18  O   UNL     1       2.798   6.238  19.526  0.00  0.00    +0.000 OA
BRANCH  18  19
ATOM     19  C   UNL     1       2.228   7.467  19.496  0.00  0.00    +0.000 C 
ATOM     20  O   UNL     1       1.611   7.999  20.399  0.00  0.00    +0.000 OA
BRANCH  19  21
ATOM     21  C   UNL     1       2.584   8.066  18.191  0.00  0.00    +0.000 C 
ATOM     22  C   UNL     1       2.015   9.164  17.672  0.00  0.00    +0.000 C 
BRANCH  22  23
ATOM     23  C   UNL     1       0.928   9.941  18.269  0.00  0.00    +0.000 A 
ATOM     24  C   UNL     1      -0.402   9.649  17.931  0.00  0.00    +0.000 A 
ATOM     25  C   UNL     1      -1.450  10.426  18.434  0.00  0.00    +0.000 A 
ATOM     26  C   UNL     1      -1.157  11.490  19.277  0.00  0.00    +0.000 A 
ATOM     27  C   UNL     1       0.161  11.760  19.640  0.00  0.00    +0.000 A 
ATOM     28  C   UNL     1       1.209  10.995  19.146  0.00  0.00    +0.000 A 
BRANCH  26  29
ATOM     29  O   UNL     1      -2.134  12.313  19.765  0.00  0.00    +0.000 OA
ATOM     30  H   UNL     1      -2.977  12.049  19.358  0.00  0.00    +0.000 HD
ENDBRANCH  26  29
BRANCH  27  31
ATOM     31  O   UNL     1       0.433  12.803  20.480  0.00  0.00    +0.000 OA
ATOM     32  H   UNL     1       0.188  12.471  21.368  0.00  0.00    +0.000 HD
ENDBRANCH  27  31
ENDBRANCH  22  23
ENDBRANCH  19  21
ENDBRANCH  18  19
ENDBRANCH   2  18
TORSDOF 11
ENDMDL
MODEL 2
REMARK VINA RESULT:      -7.8      4.664      7.537
REMARK  Name = 
REMARK  12 active torsions:
REMARK  status: ('A' for Active; 'I' for Inactive)
REMARK    1  A    between atoms: C_1  and  C_2
REMARK    2  A    between atoms: C_2  and  O_3
REMARK    3  A    between atoms: C_2  and  C_16
REMARK    4  A    between atoms: O_3  and  C_4
REMARK    5  A    between atoms: C_4  and  C_6
REMARK    6  A    between atoms: C_7  and  C_8
REMARK    7  A    between atoms: C_11  and  O_12
REMARK    8  A    between atoms: C_13  and  O_14
REMARK    9  A    between atoms: C_16  and  C_18
REMARK   10  A    between atoms: C_20  and  C_21
REMARK   11  A    between atoms: C_21  and  O_22
REMARK   12  A    between atoms: C_21  and  C_23
REMARK                            x       y       z     vdW  Elec       q    Type
REMARK                         _______ _______ _______ _____ _____    ______ ____
ROOT
ATOM      1  C   UNL     1       8.163   6.470  19.059  0.00  0.00    +0.000 C 
ATOM      2  C   UNL     1       7.362   7.008  17.880  0.00  0.00    +0.000 C 
ENDROOT
BRANCH   2   3
ATOM      3  C   UNL     1       7.017   5.934  16.840  0.00  0.00    +0.000 C 
ATOM      4  O   UNL     1       7.793   5.077  16.437  0.00  0.00    +0.000 OA
BRANCH   3   5
ATOM      5  C   UNL     1       5.593   5.970  16.380  0.00  0.00    +0.000 C 
ATOM      6  C   UNL     1       5.063   4.774  15.630  0.00  0.00    +0.000 C 
ATOM      7  C   UNL     1       4.422   5.173  16.937  0.00  0.00    +0.000 C 
BRANCH   7   8
ATOM      8  C   UNL     1       4.456   4.175  18.059  0.00  0.00    +0.000 C 
BRANCH   8   9
ATOM      9  C   UNL     1       3.139   4.034  18.852  0.00  0.00    +0.000 C 
ATOM     10  C   UNL     1       2.089   3.167  18.173  0.00  0.00    +0.000 C 
ATOM     11  C   UNL     1       0.872   3.189  19.046  0.00  0.00    +0.000 C 
ATOM     12  C   UNL     1       1.003   3.309  20.376  0.00  0.00    +0.000 C 
ATOM     13  C   UNL     1       2.342   3.326  21.015  0.00  0.00    +0.000 C 
ATOM     14  O   UNL     1       2.463   3.139  22.214  0.00  0.00    +0.000 OA
ATOM     15  O   UNL     1       3.405   3.517  20.183  0.00  0.00    +0.000 OA
ENDBRANCH   8   9
BRANCH   8  16
ATOM     16  O   UNL     1       4.763   2.898  17.478  0.00  0.00    +0.000 OA
ATOM     17  H   UNL     1       3.964   2.348  17.587  0.00  0.00    +0.000 HD
ENDBRANCH   8  16
ENDBRANCH   7   8
ENDBRANCH   3   5
ENDBRANCH   2   3
BRANCH   2  18
ATOM     18  O   UNL     1       8.173   8.008  17.243  0.00  0.00    +0.000 OA
BRANCH  18  19
ATOM     19  C   UNL     1       8.039   9.256  17.753  0.00  0.00    +0.000 C 
ATOM     20  O   UNL     1       7.321  10.137  17.321  0.00  0.00    +0.000 OA
BRANCH  19  21
ATOM     21  C   UNL     1       8.861   9.302  18.982  0.00  0.00    +0.000 C 
ATOM     22  C   UNL     1       9.711  10.291  19.297  0.00  0.00    +0.000 C 
BRANCH  22  23
ATOM     23  C   UNL     1      10.010  11.469  18.483  0.00  0.00    +0.000 A 
ATOM     24  C   UNL     1      11.165  11.491  17.689  0.00  0.00    +0.000 A 
ATOM     25  C   UNL     1      11.506  12.634  16.960  0.00  0.00    +0.000 A 
ATOM     26  C   UNL     1      10.682  13.750  17.031  0.00  0.00    +0.000 A 
ATOM     27  C   UNL     1       9.516  13.718  17.793  0.00  0.00    +0.000 A 
ATOM     28  C   UNL     1       9.169  12.588  18.520  0.00  0.00    +0.000 A 
BRANCH  26  29
ATOM     29  O   UNL     1      10.985  14.913  16.377  0.00  0.00    +0.000 OA
ATOM     30  H   UNL     1      11.941  14.914  16.198  0.00  0.00    +0.000 HD
ENDBRANCH  26  29
BRANCH  27  31
ATOM     31  O   UNL     1       8.709  14.820  17.844  0.00  0.00    +0.000 OA
ATOM     32  H   UNL     1       9.013  15.308  18.636  0.00  0.00    +0.000 HD
ENDBRANCH  27  31
ENDBRANCH  22  23
ENDBRANCH  19  21
ENDBRANCH  18  19
ENDBRANCH   2  18
TORSDOF 11
ENDMDL
MODEL 3
REMARK VINA RESULT:      -7.7      2.624      3.886
REMARK  Name = 
REMARK  12 active torsions:
REMARK  status: ('A' for Active; 'I' for Inactive)
REMARK    1  A    between atoms: C_1  and  C_2
REMARK    2  A    between atoms: C_2  and  O_3
REMARK    3  A    between atoms: C_2  and  C_16
REMARK    4  A    between atoms: O_3  and  C_4
REMARK    5  A    between atoms: C_4  and  C_6
REMARK    6  A    between atoms: C_7  and  C_8
REMARK    7  A    between atoms: C_11  and  O_12
REMARK    8  A    between atoms: C_13  and  O_14
REMARK    9  A    between atoms: C_16  and  C_18
REMARK   10  A    between atoms: C_20  and  C_21
REMARK   11  A    between atoms: C_21  and  O_22
REMARK   12  A    between atoms: C_21  and  C_23
REMARK                            x       y       z     vdW  Elec       q    Type
REMARK                         _______ _______ _______ _____ _____    ______ ____
ROOT
ATOM      1  C   UNL     1       1.921   4.671  18.036  0.00  0.00    +0.000 C 
ATOM      2  C   UNL     1       2.687   5.951  18.347  0.00  0.00    +0.000 C 
ENDROOT
BRANCH   2   3
ATOM      3  C   UNL     1       4.197   5.731  18.508  0.00  0.00    +0.000 C 
ATOM      4  O   UNL     1       4.710   4.988  19.336  0.00  0.00    +0.000 OA
BRANCH   3   5
ATOM      5  C   UNL     1       5.028   6.467  17.505  0.00  0.00    +0.000 C 
ATOM      6  C   UNL     1       6.520   6.251  17.530  0.00  0.00    +0.000 C 
ATOM      7  C   UNL     1       5.739   5.887  16.291  0.00  0.00    +0.000 C 
BRANCH   7   8
ATOM      8  C   UNL     1       5.763   4.449  15.854  0.00  0.00    +0.000 C 
BRANCH   8   9
ATOM      9  C   UNL     1       6.453   4.187  14.498  0.00  0.00    +0.000 C 
ATOM     10  C   UNL     1       5.523   3.667  13.412  0.00  0.00    +0.000 C 
ATOM     11  C   UNL     1       6.365   3.418  12.197  0.00  0.00    +0.000 C 
ATOM     12  C   UNL     1       7.443   4.180  11.963  0.00  0.00    +0.000 C 
ATOM     13  C   UNL     1       7.772   5.333  12.836  0.00  0.00    +0.000 C 
ATOM     14  O   UNL     1       8.559   6.189  12.469  0.00  0.00    +0.000 OA
ATOM     15  O   UNL     1       7.116   5.392  14.030  0.00  0.00    +0.000 OA
ENDBRANCH   8   9
BRANCH   8  16
ATOM     16  O   UNL     1       6.472   3.714  16.863  0.00  0.00    +0.000 OA
ATOM     17  H   UNL     1       7.202   4.291  17.160  0.00  0.00    +0.000 HD
ENDBRANCH   8  16
ENDBRANCH   7   8
ENDBRANCH   3   5
ENDBRANCH   2   3
BRANCH   2  18
ATOM     18  O   UNL     1       2.171   6.458  19.588  0.00  0.00    +0.000 OA
BRANCH  18  19
ATOM     19  C   UNL     1       1.954   7.795  19.609  0.00  0.00    +0.000 C 
ATOM     20  O   UNL     1       2.158   8.573  18.696  0.00  0.00    +0.000 OA
BRANCH  19  21
ATOM     21  C   UNL     1       1.338   8.104  20.917  0.00  0.00    +0.000 C 
ATOM     22  C   UNL     1       0.563   9.170  21.166  0.00  0.00    +0.000 C 
BRANCH  22  23
ATOM     23  C   UNL     1       0.219  10.231  20.219  0.00  0.00    +0.000 A 
ATOM     24  C   UNL     1       0.941  11.433  20.229  0.00  0.00    +0.000 A 
ATOM     25  C   UNL     1       0.582  12.486  19.382  0.00  0.00    +0.000 A 
ATOM     26  C   UNL     1      -0.500  12.324  18.525  0.00  0.00    +0.000 A 
ATOM     27  C   UNL     1      -1.196  11.118  18.489  0.00  0.00    +0.000 A 
ATOM     28  C   UNL     1      -0.848  10.067  19.327  0.00  0.00    +0.000 A 
BRANCH  26  29
ATOM     29  O   UNL     1      -0.927  13.332  17.705  0.00  0.00    +0.000 OA
ATOM     30  H   UNL     1      -0.372  14.111  17.876  0.00  0.00    +0.000 HD
ENDBRANCH  26  29
BRANCH  27  31
ATOM     31  O   UNL     1      -2.250  10.968  17.633  0.00  0.00    +0.000 OA
ATOM     32  H   UNL     1      -3.010  10.762  18.216  0.00  0.00    +0.000 HD
ENDBRANCH  27  31
ENDBRANCH  22  23
ENDBRANCH  19  21
ENDBRANCH  18  19
ENDBRANCH   2  18
TORSDOF 11
ENDMDL
MODEL 4
REMARK VINA RESULT:      -7.7      3.212      6.632
REMARK  Name = 
REMARK  12 active torsions:
REMARK  status: ('A' for Active; 'I' for Inactive)
REMARK    1  A    between atoms: C_1  and  C_2
REMARK    2  A    between atoms: C_2  and  O_3
REMARK    3  A    between atoms: C_2  and  C_16
REMARK    4  A    between atoms: O_3  and  C_4
REMARK    5  A    between atoms: C_4  and  C_6
REMARK    6  A    between atoms: C_7  and  C_8
REMARK    7  A    between atoms: C_11  and  O_12
REMARK    8  A    between atoms: C_13  and  O_14
REMARK    9  A    between atoms: C_16  and  C_18
REMARK   10  A    between atoms: C_20  and  C_21
REMARK   11  A    between atoms: C_21  and  O_22
REMARK   12  A    between atoms: C_21  and  C_23
REMARK                            x       y       z     vdW  Elec       q    Type
REMARK                         _______ _______ _______ _____ _____    ______ ____
ROOT
ATOM      1  C   UNL     1       3.660   5.445  17.552  0.00  0.00    +0.000 C 
ATOM      2  C   UNL     1       4.410   6.059  18.728  0.00  0.00    +0.000 C 
ENDROOT
BRANCH   2   3
ATOM      3  C   UNL     1       5.758   5.382  19.010  0.00  0.00    +0.000 C 
ATOM      4  O   UNL     1       5.948   4.540  19.879  0.00  0.00    +0.000 OA
BRANCH   3   5
ATOM      5  C   UNL     1       6.850   5.792  18.073  0.00  0.00    +0.000 C 
ATOM      6  C   UNL     1       7.806   4.728  17.595  0.00  0.00    +0.000 C 
ATOM      7  C   UNL     1       6.962   5.473  16.589  0.00  0.00    +0.000 C 
BRANCH   7   8
ATOM      8  C   UNL     1       6.002   4.670  15.759  0.00  0.00    +0.000 C 
BRANCH   8   9
ATOM      9  C   UNL     1       6.267   4.700  14.238  0.00  0.00    +0.000 C 
ATOM     10  C   UNL     1       7.666   5.158  13.855  0.00  0.00    +0.000 C 
ATOM     11  C   UNL     1       7.725   5.179  12.358  0.00  0.00    +0.000 C 
ATOM     12  C   UNL     1       6.999   4.304  11.646  0.00  0.00    +0.000 C 
ATOM     13  C   UNL     1       6.204   3.245  12.315  0.00  0.00    +0.000 C 
ATOM     14  O   UNL     1       5.790   2.285  11.687  0.00  0.00    +0.000 OA
ATOM     15  O   UNL     1       6.010   3.393  13.657  0.00  0.00    +0.000 OA
ENDBRANCH   8   9
BRANCH   8  16
ATOM     16  O   UNL     1       6.102   3.307  16.200  0.00  0.00    +0.000 OA
ATOM     17  H   UNL     1       5.221   2.909  16.064  0.00  0.00    +0.000 HD
ENDBRANCH   8  16
ENDBRANCH   7   8
ENDBRANCH   3   5
ENDBRANCH   2   3
BRANCH   2  18
ATOM     18  O   UNL     1       3.575   5.900  19.886  0.00  0.00    +0.000 OA
BRANCH  18  19
ATOM     19  C   UNL     1       2.381   6.536  19.817  0.00  0.00    +0.000 C 
ATOM     20  O   UNL     1       2.112   7.490  19.112  0.00  0.00    +0.000 OA
BRANCH  19  21
ATOM     21  C   UNL     1       1.452   5.788  20.693  0.00  0.00    +0.000 C 
ATOM     22  C   UNL     1       1.360   4.451  20.745  0.00  0.00    +0.000 C 
BRANCH  22  23
ATOM     23  C   UNL     1       2.117   3.498  19.935  0.00  0.00    +0.000 A 
ATOM     24  C   UNL     1       1.609   3.080  18.696  0.00  0.00    +0.000 A 
ATOM     25  C   UNL     1       2.282   2.116  17.939  0.00  0.00    +0.000 A 
ATOM     26  C   UNL     1       3.464   1.578  18.431  0.00  0.00    +0.000 A 
ATOM     27  C   UNL     1       3.988   2.016  19.645  0.00  0.00    +0.000 A 
ATOM     28  C   UNL     1       3.327   2.973  20.404  0.00  0.00    +0.000 A 
BRANCH  26  29
ATOM     29  O   UNL     1       4.145   0.599  17.759  0.00  0.00    +0.000 OA
ATOM     30  H   UNL     1       3.696   0.454  16.909  0.00  0.00    +0.000 HD
ENDBRANCH  26  29
BRANCH  27  31
ATOM     31  O   UNL     1       5.158   1.486  20.110  0.00  0.00    +0.000 OA
ATOM     32  H   UNL     1       5.854   1.949  19.600  0.00  0.00    +0.000 HD
ENDBRANCH  27  31
ENDBRANCH  22  23
ENDBRANCH  19  21
ENDBRANCH  18  19
ENDBRANCH   2  18
TORSDOF 11
ENDMDL
MODEL 5
REMARK VINA RESULT:      -7.3      2.109      3.101
REMARK  Name = 
REMARK  12 active torsions:
REMARK  status: ('A' for Active; 'I' for Inactive)
REMARK    1  A    between atoms: C_1  and  C_2
REMARK    2  A    between atoms: C_2  and  O_3
REMARK    3  A    between atoms: C_2  and  C_16
REMARK    4  A    between atoms: O_3  and  C_4
REMARK    5  A    between atoms: C_4  and  C_6
REMARK    6  A    between atoms: C_7  and  C_8
REMARK    7  A    between atoms: C_11  and  O_12
REMARK    8  A    between atoms: C_13  and  O_14
REMARK    9  A    between atoms: C_16  and  C_18
REMARK   10  A    between atoms: C_20  and  C_21
REMARK   11  A    between atoms: C_21  and  O_22
REMARK   12  A    between atoms: C_21  and  C_23
REMARK                            x       y       z     vdW  Elec       q    Type
REMARK                         _______ _______ _______ _____ _____    ______ ____
ROOT
ATOM      1  C   UNL     1       3.968   7.480  17.519  0.00  0.00    +0.000 C 
ATOM      2  C   UNL     1       2.683   7.479  18.338  0.00  0.00    +0.000 C 
ENDROOT
BRANCH   2   3
ATOM      3  C   UNL     1       2.164   6.070  18.653  0.00  0.00    +0.000 C 
ATOM      4  O   UNL     1       1.554   5.359  17.865  0.00  0.00    +0.000 OA
BRANCH   3   5
ATOM      5  C   UNL     1       2.524   5.583  20.022  0.00  0.00    +0.000 C 
ATOM      6  C   UNL     1       1.783   4.385  20.562  0.00  0.00    +0.000 C 
ATOM      7  C   UNL     1       3.280   4.312  20.381  0.00  0.00    +0.000 C 
BRANCH   7   8
ATOM      8  C   UNL     1       3.814   3.276  19.433  0.00  0.00    +0.000 C 
BRANCH   8   9
ATOM      9  C   UNL     1       5.091   3.684  18.667  0.00  0.00    +0.000 C 
ATOM     10  C   UNL     1       4.848   4.105  17.225  0.00  0.00    +0.000 C 
ATOM     11  C   UNL     1       6.189   4.409  16.627  0.00  0.00    +0.000 C 
ATOM     12  C   UNL     1       7.171   4.897  17.398  0.00  0.00    +0.000 C 
ATOM     13  C   UNL     1       6.932   5.233  18.822  0.00  0.00    +0.000 C 
ATOM     14  O   UNL     1       7.716   5.938  19.437  0.00  0.00    +0.000 OA
ATOM     15  O   UNL     1       5.782   4.749  19.372  0.00  0.00    +0.000 OA
ENDBRANCH   8   9
BRANCH   8  16
ATOM     16  O   UNL     1       4.118   2.109  20.213  0.00  0.00    +0.000 OA
ATOM     17  H   UNL     1       4.955   2.300  20.678  0.00  0.00    +0.000 HD
ENDBRANCH   8  16
ENDBRANCH   7   8
ENDBRANCH   3   5
ENDBRANCH   2   3
BRANCH   2  18
ATOM     18  O   UNL     1       1.688   8.162  17.558  0.00  0.00    +0.000 OA
BRANCH  18  19
ATOM     19  C   UNL     1       1.532   9.473  17.860  0.00  0.00    +0.000 C 
ATOM     20  O   UNL     1       2.418  10.260  18.136  0.00  0.00    +0.000 OA
BRANCH  19  21
ATOM     21  C   UNL     1       0.093   9.776  17.697  0.00  0.00    +0.000 C 
ATOM     22  C   UNL     1      -0.765   9.981  18.708  0.00  0.00    +0.000 C 
BRANCH  22  23
ATOM     23  C   UNL     1      -0.456   9.906  20.136  0.00  0.00    +0.000 A 
ATOM     24  C   UNL     1      -0.025   8.692  20.691  0.00  0.00    +0.000 A 
ATOM     25  C   UNL     1       0.206   8.581  22.066  0.00  0.00    +0.000 A 
ATOM     26  C   UNL     1       0.006   9.692  22.875  0.00  0.00    +0.000 A 
ATOM     27  C   UNL     1      -0.388  10.907  22.320  0.00  0.00    +0.000 A 
ATOM     28  C   UNL     1      -0.621  11.028  20.957  0.00  0.00    +0.000 A 
BRANCH  26  29
ATOM     29  O   UNL     1       0.173   9.634  24.232  0.00  0.00    +0.000 OA
ATOM     30  H   UNL     1       0.266  10.544  24.560  0.00  0.00    +0.000 HD
ENDBRANCH  26  29
BRANCH  27  31
ATOM     31  O   UNL     1      -0.569  11.995  23.127  0.00  0.00    +0.000 OA
ATOM     32  H   UNL     1       0.030  12.675  22.757  0.00  0.00    +0.000 HD
ENDBRANCH  27  31
ENDBRANCH  22  23
ENDBRANCH  19  21
ENDBRANCH  18  19
ENDBRANCH   2  18
TORSDOF 11
ENDMDL
MODEL 6
REMARK VINA RESULT:      -7.2      2.741      6.593
REMARK  Name = 
REMARK  12 active torsions:
REMARK  status: ('A' for Active; 'I' for Inactive)
REMARK    1  A    between atoms: C_1  and  C_2
REMARK    2  A    between atoms: C_2  and  O_3
REMARK    3  A    between atoms: C_2  and  C_16
REMARK    4  A    between atoms: O_3  and  C_4
REMARK    5  A    between atoms: C_4  and  C_6
REMARK    6  A    between atoms: C_7  and  C_8
REMARK    7  A    between atoms: C_11  and  O_12
REMARK    8  A    between atoms: C_13  and  O_14
REMARK    9  A    between atoms: C_16  and  C_18
REMARK   10  A    between atoms: C_20  and  C_21
REMARK   11  A    between atoms: C_21  and  O_22
REMARK   12  A    between atoms: C_21  and  C_23
REMARK                            x       y       z     vdW  Elec       q    Type
REMARK                         _______ _______ _______ _____ _____    ______ ____
ROOT
ATOM      1  C   UNL     1       1.920   8.568  17.605  0.00  0.00    +0.000 C 
ATOM      2  C   UNL     1       2.700   7.584  18.467  0.00  0.00    +0.000 C 
ENDROOT
BRANCH   2   3
ATOM      3  C   UNL     1       3.396   6.483  17.656  0.00  0.00    +0.000 C 
ATOM      4  O   UNL     1       2.886   5.411  17.355  0.00  0.00    +0.000 OA
BRANCH   3   5
ATOM      5  C   UNL     1       4.769   6.850  17.188  0.00  0.00    +0.000 C 
ATOM      6  C   UNL     1       5.944   6.188  17.862  0.00  0.00    +0.000 C 
ATOM      7  C   UNL     1       5.730   5.989  16.381  0.00  0.00    +0.000 C 
BRANCH   7   8
ATOM      8  C   UNL     1       5.503   4.586  15.895  0.00  0.00    +0.000 C 
BRANCH   8   9
ATOM      9  C   UNL     1       6.213   4.227  14.572  0.00  0.00    +0.000 C 
ATOM     10  C   UNL     1       5.276   3.775  13.461  0.00  0.00    +0.000 C 
ATOM     11  C   UNL     1       6.133   3.418  12.285  0.00  0.00    +0.000 C 
ATOM     12  C   UNL     1       7.289   4.065  12.077  0.00  0.00    +0.000 C 
ATOM     13  C   UNL     1       7.697   5.200  12.940  0.00  0.00    +0.000 C 
ATOM     14  O   UNL     1       8.578   5.968  12.586  0.00  0.00    +0.000 OA
ATOM     15  O   UNL     1       7.007   5.350  14.106  0.00  0.00    +0.000 OA
ENDBRANCH   8   9
BRANCH   8  16
ATOM     16  O   UNL     1       5.993   3.703  16.916  0.00  0.00    +0.000 OA
ATOM     17  H   UNL     1       5.224   3.471  17.471  0.00  0.00    +0.000 HD
ENDBRANCH   8  16
ENDBRANCH   7   8
ENDBRANCH   3   5
ENDBRANCH   2   3
BRANCH   2  18
ATOM     18  O   UNL     1       1.756   6.962  19.353  0.00  0.00    +0.000 OA
BRANCH  18  19
ATOM     19  C   UNL     1       2.303   6.132  20.274  0.00  0.00    +0.000 C 
ATOM     20  O   UNL     1       3.460   6.131  20.646  0.00  0.00    +0.000 OA
BRANCH  19  21
ATOM     21  C   UNL     1       1.200   5.297  20.799  0.00  0.00    +0.000 C 
ATOM     22  C   UNL     1       1.081   3.975  20.604  0.00  0.00    +0.000 C 
BRANCH  22  23
ATOM     23  C   UNL     1       1.981   3.131  19.819  0.00  0.00    +0.000 A 
ATOM     24  C   UNL     1       1.580   2.675  18.555  0.00  0.00    +0.000 A 
ATOM     25  C   UNL     1       2.395   1.809  17.819  0.00  0.00    +0.000 A 
ATOM     26  C   UNL     1       3.610   1.407  18.357  0.00  0.00    +0.000 A 
ATOM     27  C   UNL     1       4.026   1.886  19.598  0.00  0.00    +0.000 A 
ATOM     28  C   UNL     1       3.224   2.746  20.336  0.00  0.00    +0.000 A 
BRANCH  26  29
ATOM     29  O   UNL     1       4.431   0.527  17.706  0.00  0.00    +0.000 OA
ATOM     30  H   UNL     1       4.596   0.877  16.814  0.00  0.00    +0.000 HD
ENDBRANCH  26  29
BRANCH  27  31
ATOM     31  O   UNL     1       5.230   1.492  20.109  0.00  0.00    +0.000 OA
ATOM     32  H   UNL     1       5.548   0.810  19.482  0.00  0.00    +0.000 HD
ENDBRANCH  27  31
ENDBRANCH  22  23
ENDBRANCH  19  21
ENDBRANCH  18  19
ENDBRANCH   2  18
TORSDOF 11
ENDMDL
MODEL 7
REMARK VINA RESULT:      -7.1      1.911      7.357
REMARK  Name = 
REMARK  12 active torsions:
REMARK  status: ('A' for Active; 'I' for Inactive)
REMARK    1  A    between atoms: C_1  and  C_2
REMARK    2  A    between atoms: C_2  and  O_3
REMARK    3  A    between atoms: C_2  and  C_16
REMARK    4  A    between atoms: O_3  and  C_4
REMARK    5  A    between atoms: C_4  and  C_6
REMARK    6  A    between atoms: C_7  and  C_8
REMARK    7  A    between atoms: C_11  and  O_12
REMARK    8  A    between atoms: C_13  and  O_14
REMARK    9  A    between atoms: C_16  and  C_18
REMARK   10  A    between atoms: C_20  and  C_21
REMARK   11  A    between atoms: C_21  and  O_22
REMARK   12  A    between atoms: C_21  and  C_23
REMARK                            x       y       z     vdW  Elec       q    Type
REMARK                         _______ _______ _______ _____ _____    ______ ____
ROOT
ATOM      1  C   UNL     1       1.106   4.454  20.375  0.00  0.00    +0.000 C 
ATOM      2  C   UNL     1       2.392   4.698  19.596  0.00  0.00    +0.000 C 
ENDROOT
BRANCH   2   3
ATOM      3  C   UNL     1       2.239   5.742  18.481  0.00  0.00    +0.000 C 
ATOM      4  O   UNL     1       1.536   5.605  17.488  0.00  0.00    +0.000 OA
BRANCH   3   5
ATOM      5  C   UNL     1       2.987   7.013  18.734  0.00  0.00    +0.000 C 
ATOM      6  C   UNL     1       3.115   7.995  17.595  0.00  0.00    +0.000 C 
ATOM      7  C   UNL     1       2.410   8.415  18.863  0.00  0.00    +0.000 C 
BRANCH   7   8
ATOM      8  C   UNL     1       0.966   8.815  18.753  0.00  0.00    +0.000 C 
BRANCH   8   9
ATOM      9  C   UNL     1       0.333   9.349  20.055  0.00  0.00    +0.000 C 
ATOM     10  C   UNL     1       0.553   8.459  21.270  0.00  0.00    +0.000 C 
ATOM     11  C   UNL     1      -0.170   9.097  22.417  0.00  0.00    +0.000 C 
ATOM     12  C   UNL     1      -0.289  10.432  22.474  0.00  0.00    +0.000 C 
ATOM     13  C   UNL     1       0.365  11.304  21.468  0.00  0.00    +0.000 C 
ATOM     14  O   UNL     1       0.508  12.498  21.676  0.00  0.00    +0.000 OA
ATOM     15  O   UNL     1       0.823  10.686  20.342  0.00  0.00    +0.000 OA
ENDBRANCH   8   9
BRANCH   8  16
ATOM     16  O   UNL     1       0.891   9.854  17.764  0.00  0.00    +0.000 OA
ATOM     17  H   UNL     1       1.571  10.512  18.006  0.00  0.00    +0.000 HD
ENDBRANCH   8  16
ENDBRANCH   7   8
ENDBRANCH   3   5
ENDBRANCH   2   3
BRANCH   2  18
ATOM     18  O   UNL     1       2.761   3.447  18.993  0.00  0.00    +0.000 OA
BRANCH  18  19
ATOM     19  C   UNL     1       4.087   3.299  18.760  0.00  0.00    +0.000 C 
ATOM     20  O   UNL     1       4.954   3.144  19.599  0.00  0.00    +0.000 OA
BRANCH  19  21
ATOM     21  C   UNL     1       4.257   3.270  17.291  0.00  0.00    +0.000 C 
ATOM     22  C   UNL     1       5.168   3.983  16.612  0.00  0.00    +0.000 C 
BRANCH  22  23
ATOM     23  C   UNL     1       6.122   4.936  17.179  0.00  0.00    +0.000 A 
ATOM     24  C   UNL     1       7.074   4.496  18.111  0.00  0.00    +0.000 A 
ATOM     25  C   UNL     1       7.947   5.403  18.719  0.00  0.00    +0.000 A 
ATOM     26  C   UNL     1       7.860   6.749  18.385  0.00  0.00    +0.000 A 
ATOM     27  C   UNL     1       6.939   7.183  17.435  0.00  0.00    +0.000 A 
ATOM     28  C   UNL     1       6.067   6.290  16.826  0.00  0.00    +0.000 A 
BRANCH  26  29
ATOM     29  O   UNL     1       8.656   7.690  18.978  0.00  0.00    +0.000 OA
ATOM     30  H   UNL     1       9.463   7.779  18.443  0.00  0.00    +0.000 HD
ENDBRANCH  26  29
BRANCH  27  31
ATOM     31  O   UNL     1       6.874   8.508  17.108  0.00  0.00    +0.000 OA
ATOM     32  H   UNL     1       6.113   8.848  17.622  0.00  0.00    +0.000 HD
ENDBRANCH  27  31
ENDBRANCH  22  23
ENDBRANCH  19  21
ENDBRANCH  18  19
ENDBRANCH   2  18
TORSDOF 11
ENDMDL
MODEL 8
REMARK VINA RESULT:      -7.1      2.113      3.174
REMARK  Name = 
REMARK  12 active torsions:
REMARK  status: ('A' for Active; 'I' for Inactive)
REMARK    1  A    between atoms: C_1  and  C_2
REMARK    2  A    between atoms: C_2  and  O_3
REMARK    3  A    between atoms: C_2  and  C_16
REMARK    4  A    between atoms: O_3  and  C_4
REMARK    5  A    between atoms: C_4  and  C_6
REMARK    6  A    between atoms: C_7  and  C_8
REMARK    7  A    between atoms: C_11  and  O_12
REMARK    8  A    between atoms: C_13  and  O_14
REMARK    9  A    between atoms: C_16  and  C_18
REMARK   10  A    between atoms: C_20  and  C_21
REMARK   11  A    between atoms: C_21  and  O_22
REMARK   12  A    between atoms: C_21  and  C_23
REMARK                            x       y       z     vdW  Elec       q    Type
REMARK                         _______ _______ _______ _____ _____    ______ ____
ROOT
ATOM      1  C   UNL     1       3.104   6.605  19.263  0.00  0.00    +0.000 C 
ATOM      2  C   UNL     1       2.204   6.496  20.487  0.00  0.00    +0.000 C 
ENDROOT
BRANCH   2   3
ATOM      3  C   UNL     1       1.584   5.104  20.664  0.00  0.00    +0.000 C 
ATOM      4  O   UNL     1       0.421   4.820  20.405  0.00  0.00    +0.000 OA
BRANCH   3   5
ATOM      5  C   UNL     1       2.552   4.064  21.133  0.00  0.00    +0.000 C 
ATOM      6  C   UNL     1       2.082   2.631  21.178  0.00  0.00    +0.000 C 
ATOM      7  C   UNL     1       3.246   3.001  20.292  0.00  0.00    +0.000 C 
BRANCH   7   8
ATOM      8  C   UNL     1       3.094   2.771  18.815  0.00  0.00    +0.000 C 
BRANCH   8   9
ATOM      9  C   UNL     1       4.294   3.220  17.954  0.00  0.00    +0.000 C 
ATOM     10  C   UNL     1       3.914   4.030  16.723  0.00  0.00    +0.000 C 
ATOM     11  C   UNL     1       5.184   4.327  15.986  0.00  0.00    +0.000 C 
ATOM     12  C   UNL     1       6.331   4.482  16.663  0.00  0.00    +0.000 C 
ATOM     13  C   UNL     1       6.355   4.457  18.146  0.00  0.00    +0.000 C 
ATOM     14  O   UNL     1       7.318   4.883  18.762  0.00  0.00    +0.000 OA
ATOM     15  O   UNL     1       5.235   3.978  18.760  0.00  0.00    +0.000 OA
ENDBRANCH   8   9
BRANCH   8  16
ATOM     16  O   UNL     1       2.915   1.359  18.626  0.00  0.00    +0.000 OA
ATOM     17  H   UNL     1       1.963   1.223  18.457  0.00  0.00    +0.000 HD
ENDBRANCH   8  16
ENDBRANCH   7   8
ENDBRANCH   3   5
ENDBRANCH   2   3
BRANCH   2  18
ATOM     18  O   UNL     1       1.139   7.444  20.311  0.00  0.00    +0.000 OA
BRANCH  18  19
ATOM     19  C   UNL     1       1.031   8.366  21.298  0.00  0.00    +0.000 C 
ATOM     20  O   UNL     1       1.889   8.659  22.108  0.00  0.00    +0.000 OA
BRANCH  19  21
ATOM     21  C   UNL     1      -0.293   9.005  21.136  0.00  0.00    +0.000 C 
ATOM     22  C   UNL     1      -0.496  10.221  20.606  0.00  0.00    +0.000 C 
BRANCH  22  23
ATOM     23  C   UNL     1       0.536  11.143  20.132  0.00  0.00    +0.000 A 
ATOM     24  C   UNL     1       0.913  12.233  20.930  0.00  0.00    +0.000 A 
ATOM     25  C   UNL     1       1.845  13.166  20.465  0.00  0.00    +0.000 A 
ATOM     26  C   UNL     1       2.396  12.997  19.201  0.00  0.00    +0.000 A 
ATOM     27  C   UNL     1       2.048  11.896  18.421  0.00  0.00    +0.000 A 
ATOM     28  C   UNL     1       1.123  10.965  18.874  0.00  0.00    +0.000 A 
BRANCH  26  29
ATOM     29  O   UNL     1       3.278  13.899  18.673  0.00  0.00    +0.000 OA
ATOM     30  H   UNL     1       3.660  13.508  17.869  0.00  0.00    +0.000 HD
ENDBRANCH  26  29
BRANCH  27  31
ATOM     31  O   UNL     1       2.607  11.737  17.185  0.00  0.00    +0.000 OA
ATOM     32  H   UNL     1       2.219  12.459  16.648  0.00  0.00    +0.000 HD
ENDBRANCH  27  31
ENDBRANCH  22  23
ENDBRANCH  19  21
ENDBRANCH  18  19
ENDBRANCH   2  18
TORSDOF 11
ENDMDL
MODEL 9
REMARK VINA RESULT:      -7.0      1.643      2.568
REMARK  Name = 
REMARK  12 active torsions:
REMARK  status: ('A' for Active; 'I' for Inactive)
REMARK    1  A    between atoms: C_1  and  C_2
REMARK    2  A    between atoms: C_2  and  O_3
REMARK    3  A    between atoms: C_2  and  C_16
REMARK    4  A    between atoms: O_3  and  C_4
REMARK    5  A    between atoms: C_4  and  C_6
REMARK    6  A    between atoms: C_7  and  C_8
REMARK    7  A    between atoms: C_11  and  O_12
REMARK    8  A    between atoms: C_13  and  O_14
REMARK    9  A    between atoms: C_16  and  C_18
REMARK   10  A    between atoms: C_20  and  C_21
REMARK   11  A    between atoms: C_21  and  O_22
REMARK   12  A    between atoms: C_21  and  C_23
REMARK                            x       y       z     vdW  Elec       q    Type
REMARK                         _______ _______ _______ _____ _____    ______ ____
ROOT
ATOM      1  C   UNL     1       3.858   7.366  17.592  0.00  0.00    +0.000 C 
ATOM      2  C   UNL     1       2.770   7.168  18.640  0.00  0.00    +0.000 C 
ENDROOT
BRANCH   2   3
ATOM      3  C   UNL     1       2.210   5.740  18.671  0.00  0.00    +0.000 C 
ATOM      4  O   UNL     1       1.469   5.261  17.821  0.00  0.00    +0.000 OA
BRANCH   3   5
ATOM      5  C   UNL     1       2.701   4.921  19.824  0.00  0.00    +0.000 C 
ATOM      6  C   UNL     1       1.976   3.636  20.136  0.00  0.00    +0.000 C 
ATOM      7  C   UNL     1       3.438   3.592  19.765  0.00  0.00    +0.000 C 
BRANCH   7   8
ATOM      8  C   UNL     1       3.818   2.819  18.534  0.00  0.00    +0.000 C 
BRANCH   8   9
ATOM      9  C   UNL     1       5.065   3.343  17.790  0.00  0.00    +0.000 C 
ATOM     10  C   UNL     1       4.756   4.116  16.516  0.00  0.00    +0.000 C 
ATOM     11  C   UNL     1       6.070   4.495  15.904  0.00  0.00    +0.000 C 
ATOM     12  C   UNL     1       7.131   4.733  16.689  0.00  0.00    +0.000 C 
ATOM     13  C   UNL     1       7.008   4.721  18.167  0.00  0.00    +0.000 C 
ATOM     14  O   UNL     1       7.874   5.216  18.870  0.00  0.00    +0.000 OA
ATOM     15  O   UNL     1       5.868   4.170  18.674  0.00  0.00    +0.000 OA
ENDBRANCH   8   9
BRANCH   8  16
ATOM     16  O   UNL     1       4.083   1.470  18.949  0.00  0.00    +0.000 OA
ATOM     17  H   UNL     1       4.581   1.533  19.786  0.00  0.00    +0.000 HD
ENDBRANCH   8  16
ENDBRANCH   7   8
ENDBRANCH   3   5
ENDBRANCH   2   3
BRANCH   2  18
ATOM     18  O   UNL     1       1.698   8.065  18.306  0.00  0.00    +0.000 OA
BRANCH  18  19
ATOM     19  C   UNL     1       1.351   8.926  19.292  0.00  0.00    +0.000 C 
ATOM     20  O   UNL     1       0.910   8.630  20.386  0.00  0.00    +0.000 OA
BRANCH  19  21
ATOM     21  C   UNL     1       1.699  10.281  18.812  0.00  0.00    +0.000 C 
ATOM     22  C   UNL     1       0.811  11.202  18.409  0.00  0.00    +0.000 C 
BRANCH  22  23
ATOM     23  C   UNL     1      -0.640  11.032  18.332  0.00  0.00    +0.000 A 
ATOM     24  C   UNL     1      -1.177   9.990  17.561  0.00  0.00    +0.000 A 
ATOM     25  C   UNL     1      -2.561   9.853  17.416  0.00  0.00    +0.000 A 
ATOM     26  C   UNL     1      -3.399  10.763  18.050  0.00  0.00    +0.000 A 
ATOM     27  C   UNL     1      -2.867  11.777  18.843  0.00  0.00    +0.000 A 
ATOM     28  C   UNL     1      -1.494  11.921  18.993  0.00  0.00    +0.000 A 
BRANCH  26  29
ATOM     29  O   UNL     1      -4.758  10.708  17.910  0.00  0.00    +0.000 OA
ATOM     30  H   UNL     1      -5.086  11.619  17.825  0.00  0.00    +0.000 HD
ENDBRANCH  26  29
BRANCH  27  31
ATOM     31  O   UNL     1      -3.704  12.657  19.470  0.00  0.00    +0.000 OA
ATOM     32  H   UNL     1      -3.363  12.705  20.387  0.00  0.00    +0.000 HD
ENDBRANCH  27  31
ENDBRANCH  22  23
ENDBRANCH  19  21
ENDBRANCH  18  19
ENDBRANCH   2  18
TORSDOF 11
ENDMDL
