MODEL 1
REMARK VINA RESULT:      -7.9      0.000      0.000
REMARK  Name = 
REMARK  4 active torsions:
REMARK  status: ('A' for Active; 'I' for Inactive)
REMARK    1  A    between atoms: C_1  and  N_2
REMARK    2  A    between atoms: C_4  and  C_5
REMARK    3  A    between atoms: C_9  and  N_10
REMARK    4  A    between atoms: C_14  and  C_16
REMARK                            x       y       z     vdW  Elec       q    Type
REMARK                         _______ _______ _______ _____ _____    ______ ____
ROOT
ATOM      1  N   UNL     1       2.417   7.115  18.951  0.00  0.00    +0.000 N 
ATOM      2  C   UNL     1       2.429   5.699  19.388  0.00  0.00    +0.000 C 
ATOM      3  C   UNL     1       2.683   4.757  18.176  0.00  0.00    +0.000 C 
ATOM      4  N   UNL     1       3.821   5.188  17.345  0.00  0.00    +0.000 N 
ATOM      5  C   UNL     1       4.612   4.223  16.706  0.00  0.00    +0.000 C 
ATOM      6  O   UNL     1       4.326   3.026  16.773  0.00  0.00    +0.000 OA
ATOM      7  C   UNL     1       3.769   6.611  16.980  0.00  0.00    +0.000 C 
ATOM      8  C   UNL     1       3.664   7.480  18.240  0.00  0.00    +0.000 C 
ENDROOT
BRANCH   5   9
ATOM      9  C   UNL     1       5.796   4.657  15.940  0.00  0.00    +0.000 A 
ATOM     10  N   UNL     1       6.800   5.374  16.492  0.00  0.00    +0.000 NA
ATOM     11  O   UNL     1       7.688   5.670  15.473  0.00  0.00    +0.000 OA
ATOM     12  C   UNL     1       7.258   5.074  14.346  0.00  0.00    +0.000 A 
ATOM     13  C   UNL     1       6.107   4.368  14.583  0.00  0.00    +0.000 A 
ATOM     14  C   UNL     1       5.429   3.585  13.519  0.00  0.00    +0.000 C 
ATOM     15  C   UNL     1       6.355   3.421  12.288  0.00  0.00    +0.000 C 
ATOM     16  C   UNL     1       7.114   4.718  11.929  0.00  0.00    +0.000 C 
ATOM     17  C   UNL     1       8.011   5.207  13.084  0.00  0.00    +0.000 C 
ENDBRANCH   5   9
BRANCH   1  23
ATOM     18  C   UNL     1       1.069   9.536  17.849  0.00  0.00    +0.000 C 
ATOM     19  N   UNL     1       1.247   9.195  19.240  0.00  0.00    +0.000 N 
ATOM     20  N   UNL     1       0.698   9.991  20.174  0.00  0.00    +0.000 NA
ATOM     21  C   UNL     1       0.955   9.360  21.321  0.00  0.00    +0.000 A 
ATOM     22  C   UNL     1       1.676   8.162  21.122  0.00  0.00    +0.000 A 
ATOM     23  C   UNL     1       1.856   8.065  19.755  0.00  0.00    +0.000 A 
BRANCH  21  24
ATOM     24  C   UNL     1       0.450   9.940  22.632  0.00  0.00    +0.000 C 
ATOM     25  C   UNL     1      -0.824  10.755  22.653  0.00  0.00    +0.000 C 
ATOM     26  C   UNL     1      -0.808   9.401  23.274  0.00  0.00    +0.000 C 
ENDBRANCH  21  24
ENDBRANCH   1  23
TORSDOF 3
ENDMDL
MODEL 2
REMARK VINA RESULT:      -7.6      2.793      4.202
REMARK  Name = 
REMARK  4 active torsions:
REMARK  status: ('A' for Active; 'I' for Inactive)
REMARK    1  A    between atoms: C_1  and  N_2
REMARK    2  A    between atoms: C_4  and  C_5
REMARK    3  A    between atoms: C_9  and  N_10
REMARK    4  A    between atoms: C_14  and  C_16
REMARK                            x       y       z     vdW  Elec       q    Type
REMARK                         _______ _______ _______ _____ _____    ______ ____
ROOT
ATOM      1  N   UNL     1       1.167   9.335  19.392  0.00  0.00    +0.000 N 
ATOM      2  C   UNL     1       1.460   8.725  20.710  0.00  0.00    +0.000 C 
ATOM      3  C   UNL     1       1.455   7.173  20.607  0.00  0.00    +0.000 C 
ATOM      4  N   UNL     1       2.249   6.673  19.472  0.00  0.00    +0.000 N 
ATOM      5  C   UNL     1       2.922   5.449  19.588  0.00  0.00    +0.000 C 
ATOM      6  O   UNL     1       2.801   4.755  20.599  0.00  0.00    +0.000 OA
ATOM      7  C   UNL     1       1.938   7.345  18.202  0.00  0.00    +0.000 C 
ATOM      8  C   UNL     1       2.107   8.863  18.349  0.00  0.00    +0.000 C 
ENDROOT
BRANCH   5   9
ATOM      9  C   UNL     1       3.779   4.991  18.477  0.00  0.00    +0.000 A 
ATOM     10  N   UNL     1       3.281   4.404  17.366  0.00  0.00    +0.000 NA
ATOM     11  O   UNL     1       4.364   4.036  16.588  0.00  0.00    +0.000 OA
ATOM     12  C   UNL     1       5.488   4.465  17.191  0.00  0.00    +0.000 A 
ATOM     13  C   UNL     1       5.188   5.130  18.352  0.00  0.00    +0.000 A 
ATOM     14  C   UNL     1       6.239   5.738  19.206  0.00  0.00    +0.000 C 
ATOM     15  C   UNL     1       7.590   5.802  18.448  0.00  0.00    +0.000 C 
ATOM     16  C   UNL     1       7.892   4.515  17.648  0.00  0.00    +0.000 C 
ATOM     17  C   UNL     1       6.812   4.221  16.587  0.00  0.00    +0.000 C 
ENDBRANCH   5   9
BRANCH   1  23
ATOM     18  C   UNL     1      -1.290  10.161  17.916  0.00  0.00    +0.000 C 
ATOM     19  N   UNL     1      -0.369  11.018  18.625  0.00  0.00    +0.000 N 
ATOM     20  N   UNL     1      -0.649  12.330  18.715  0.00  0.00    +0.000 NA
ATOM     21  C   UNL     1       0.321  12.809  19.495  0.00  0.00    +0.000 A 
ATOM     22  C   UNL     1       1.229  11.804  19.898  0.00  0.00    +0.000 A 
ATOM     23  C   UNL     1       0.761  10.637  19.325  0.00  0.00    +0.000 A 
BRANCH  21  24
ATOM     24  C   UNL     1       0.330  14.281  19.871  0.00  0.00    +0.000 C 
ATOM     25  C   UNL     1       1.309  15.223  19.204  0.00  0.00    +0.000 C 
ATOM     26  C   UNL     1      -0.143  15.326  18.887  0.00  0.00    +0.000 C 
ENDBRANCH  21  24
ENDBRANCH   1  23
TORSDOF 3
ENDMDL
MODEL 3
REMARK VINA RESULT:      -7.5      3.504      9.041
REMARK  Name = 
REMARK  4 active torsions:
REMARK  status: ('A' for Active; 'I' for Inactive)
REMARK    1  A    between atoms: C_1  and  N_2
REMARK    2  A    between atoms: C_4  and  C_5
REMARK    3  A    between atoms: C_9  and  N_10
REMARK    4  A    between atoms: C_14  and  C_16
REMARK                            x       y       z     vdW  Elec       q    Type
REMARK                         _______ _______ _______ _____ _____    ______ ____
ROOT
ATOM      1  N   UNL     1       2.950   6.560  18.579  0.00  0.00    +0.000 N 
ATOM      2  C   UNL     1       2.177   6.140  19.771  0.00  0.00    +0.000 C 
ATOM      3  C   UNL     1       1.906   7.357  20.702  0.00  0.00    +0.000 C 
ATOM      4  N   UNL     1       1.389   8.529  19.974  0.00  0.00    +0.000 N 
ATOM      5  C   UNL     1       0.484   9.390  20.609  0.00  0.00    +0.000 C 
ATOM      6  O   UNL     1       0.170   9.219  21.789  0.00  0.00    +0.000 OA
ATOM      7  C   UNL     1       2.178   8.869  18.781  0.00  0.00    +0.000 C 
ATOM      8  C   UNL     1       2.276   7.656  17.846  0.00  0.00    +0.000 C 
ENDROOT
BRANCH   5   9
ATOM      9  C   UNL     1      -0.091  10.518  19.849  0.00  0.00    +0.000 A 
ATOM     10  N   UNL     1      -1.176  10.384  19.056  0.00  0.00    +0.000 NA
ATOM     11  O   UNL     1      -1.378  11.609  18.445  0.00  0.00    +0.000 OA
ATOM     12  C   UNL     1      -0.471  12.480  18.925  0.00  0.00    +0.000 A 
ATOM     13  C   UNL     1       0.329  11.876  19.859  0.00  0.00    +0.000 A 
ATOM     14  C   UNL     1       1.399  12.614  20.577  0.00  0.00    +0.000 C 
ATOM     15  C   UNL     1       1.240  14.142  20.372  0.00  0.00    +0.000 C 
ATOM     16  C   UNL     1       0.882  14.520  18.918  0.00  0.00    +0.000 C 
ATOM     17  C   UNL     1      -0.445  13.880  18.459  0.00  0.00    +0.000 C 
ENDBRANCH   5   9
BRANCH   1  23
ATOM     18  C   UNL     1       1.699   3.954  17.846  0.00  0.00    +0.000 C 
ATOM     19  N   UNL     1       3.028   4.407  17.511  0.00  0.00    +0.000 N 
ATOM     20  N   UNL     1       3.795   3.632  16.724  0.00  0.00    +0.000 NA
ATOM     21  C   UNL     1       4.893   4.364  16.531  0.00  0.00    +0.000 A 
ATOM     22  C   UNL     1       4.834   5.605  17.201  0.00  0.00    +0.000 A 
ATOM     23  C   UNL     1       3.606   5.621  17.835  0.00  0.00    +0.000 A 
BRANCH  21  24
ATOM     24  C   UNL     1       6.006   3.834  15.641  0.00  0.00    +0.000 C 
ATOM     25  C   UNL     1       5.954   4.073  14.148  0.00  0.00    +0.000 C 
ATOM     26  C   UNL     1       6.971   4.786  14.972  0.00  0.00    +0.000 C 
ENDBRANCH  21  24
ENDBRANCH   1  23
TORSDOF 3
ENDMDL
MODEL 4
REMARK VINA RESULT:      -7.5      1.757      2.345
REMARK  Name = 
REMARK  4 active torsions:
REMARK  status: ('A' for Active; 'I' for Inactive)
REMARK    1  A    between atoms: C_1  and  N_2
REMARK    2  A    between atoms: C_4  and  C_5
REMARK    3  A    between atoms: C_9  and  N_10
REMARK    4  A    between atoms: C_14  and  C_16
REMARK                            x       y       z     vdW  Elec       q    Type
REMARK                         _______ _______ _______ _____ _____    ______ ____
ROOT
ATOM      1  N   UNL     1       1.438   7.516  20.246  0.00  0.00    +0.000 N 
ATOM      2  C   UNL     1       1.333   6.287  21.067  0.00  0.00    +0.000 C 
ATOM      3  C   UNL     1       1.727   5.036  20.231  0.00  0.00    +0.000 C 
ATOM      4  N   UNL     1       2.990   5.216  19.493  0.00  0.00    +0.000 N 
ATOM      5  C   UNL     1       3.829   4.114  19.286  0.00  0.00    +0.000 C 
ATOM      6  O   UNL     1       3.493   2.985  19.649  0.00  0.00    +0.000 OA
ATOM      7  C   UNL     1       3.046   6.473  18.731  0.00  0.00    +0.000 C 
ATOM      8  C   UNL     1       2.789   7.668  19.658  0.00  0.00    +0.000 C 
ENDROOT
BRANCH   5   9
ATOM      9  C   UNL     1       5.129   4.315  18.616  0.00  0.00    +0.000 A 
ATOM     10  N   UNL     1       6.285   4.471  19.298  0.00  0.00    +0.000 NA
ATOM     11  O   UNL     1       7.273   4.717  18.361  0.00  0.00    +0.000 OA
ATOM     12  C   UNL     1       6.727   4.635  17.134  0.00  0.00    +0.000 A 
ATOM     13  C   UNL     1       5.395   4.322  17.219  0.00  0.00    +0.000 A 
ATOM     14  C   UNL     1       4.550   4.136  16.013  0.00  0.00    +0.000 C 
ATOM     15  C   UNL     1       5.430   4.014  14.743  0.00  0.00    +0.000 C 
ATOM     16  C   UNL     1       6.599   5.024  14.721  0.00  0.00    +0.000 C 
ATOM     17  C   UNL     1       7.546   4.846  15.925  0.00  0.00    +0.000 C 
ENDBRANCH   5   9
BRANCH   1  23
ATOM     18  C   UNL     1       0.641   9.656  18.327  0.00  0.00    +0.000 C 
ATOM     19  N   UNL     1       0.448   9.652  19.758  0.00  0.00    +0.000 N 
ATOM     20  N   UNL     1      -0.223  10.672  20.321  0.00  0.00    +0.000 NA
ATOM     21  C   UNL     1      -0.310  10.324  21.605  0.00  0.00    +0.000 A 
ATOM     22  C   UNL     1       0.313   9.085  21.869  0.00  0.00    +0.000 A 
ATOM     23  C   UNL     1       0.801   8.655  20.649  0.00  0.00    +0.000 A 
BRANCH  21  24
ATOM     24  C   UNL     1      -1.051  11.223  22.582  0.00  0.00    +0.000 C 
ATOM     25  C   UNL     1      -0.774  12.710  22.596  0.00  0.00    +0.000 C 
ATOM     26  C   UNL     1      -2.081  12.211  22.084  0.00  0.00    +0.000 C 
ENDBRANCH  21  24
ENDBRANCH   1  23
TORSDOF 3
ENDMDL
MODEL 5
REMARK VINA RESULT:      -7.4      2.532      8.598
REMARK  Name = 
REMARK  4 active torsions:
REMARK  status: ('A' for Active; 'I' for Inactive)
REMARK    1  A    between atoms: C_1  and  N_2
REMARK    2  A    between atoms: C_4  and  C_5
REMARK    3  A    between atoms: C_9  and  N_10
REMARK    4  A    between atoms: C_14  and  C_16
REMARK                            x       y       z     vdW  Elec       q    Type
REMARK                         _______ _______ _______ _____ _____    ______ ____
ROOT
ATOM      1  N   UNL     1       4.541   4.970  17.113  0.00  0.00    +0.000 N 
ATOM      2  C   UNL     1       3.395   4.079  17.410  0.00  0.00    +0.000 C 
ATOM      3  C   UNL     1       2.951   4.235  18.892  0.00  0.00    +0.000 C 
ATOM      4  N   UNL     1       2.797   5.643  19.297  0.00  0.00    +0.000 N 
ATOM      5  C   UNL     1       1.816   5.986  20.238  0.00  0.00    +0.000 C 
ATOM      6  O   UNL     1       1.130   5.118  20.781  0.00  0.00    +0.000 OA
ATOM      7  C   UNL     1       3.950   6.482  18.939  0.00  0.00    +0.000 C 
ATOM      8  C   UNL     1       4.233   6.383  17.435  0.00  0.00    +0.000 C 
ENDROOT
BRANCH   5   9
ATOM      9  C   UNL     1       1.614   7.407  20.581  0.00  0.00    +0.000 A 
ATOM     10  N   UNL     1       1.615   7.857  21.855  0.00  0.00    +0.000 NA
ATOM     11  O   UNL     1       1.317   9.207  21.803  0.00  0.00    +0.000 OA
ATOM     12  C   UNL     1       1.214   9.572  20.512  0.00  0.00    +0.000 A 
ATOM     13  C   UNL     1       1.453   8.502  19.689  0.00  0.00    +0.000 A 
ATOM     14  C   UNL     1       1.437   8.626  18.209  0.00  0.00    +0.000 C 
ATOM     15  C   UNL     1       1.457  10.118  17.786  0.00  0.00    +0.000 C 
ATOM     16  C   UNL     1       0.525  11.000  18.647  0.00  0.00    +0.000 C 
ATOM     17  C   UNL     1       0.908  10.967  20.141  0.00  0.00    +0.000 C 
ENDBRANCH   5   9
BRANCH   1  23
ATOM     18  C   UNL     1       7.503   4.672  17.285  0.00  0.00    +0.000 C 
ATOM     19  N   UNL     1       6.689   4.614  16.095  0.00  0.00    +0.000 N 
ATOM     20  N   UNL     1       7.280   4.325  14.922  0.00  0.00    +0.000 NA
ATOM     21  C   UNL     1       6.264   4.253  14.062  0.00  0.00    +0.000 A 
ATOM     22  C   UNL     1       5.020   4.504  14.682  0.00  0.00    +0.000 A 
ATOM     23  C   UNL     1       5.314   4.734  16.012  0.00  0.00    +0.000 A 
BRANCH  21  24
ATOM     24  C   UNL     1       6.528   3.899  12.608  0.00  0.00    +0.000 C 
ATOM     25  C   UNL     1       6.375   2.468  12.142  0.00  0.00    +0.000 C 
ATOM     26  C   UNL     1       5.391   3.495  11.698  0.00  0.00    +0.000 C 
ENDBRANCH  21  24
ENDBRANCH   1  23
TORSDOF 3
ENDMDL
MODEL 6
REMARK VINA RESULT:      -7.4      2.380      9.231
REMARK  Name = 
REMARK  4 active torsions:
REMARK  status: ('A' for Active; 'I' for Inactive)
REMARK    1  A    between atoms: C_1  and  N_2
REMARK    2  A    between atoms: C_4  and  C_5
REMARK    3  A    between atoms: C_9  and  N_10
REMARK    4  A    between atoms: C_14  and  C_16
REMARK                            x       y       z     vdW  Elec       q    Type
REMARK                         _______ _______ _______ _____ _____    ______ ____
ROOT
ATOM      1  N   UNL     1       4.494   5.859  17.337  0.00  0.00    +0.000 N 
ATOM      2  C   UNL     1       3.704   4.912  18.159  0.00  0.00    +0.000 C 
ATOM      3  C   UNL     1       3.293   5.570  19.507  0.00  0.00    +0.000 C 
ATOM      4  N   UNL     1       2.717   6.915  19.335  0.00  0.00    +0.000 N 
ATOM      5  C   UNL     1       1.717   7.353  20.213  0.00  0.00    +0.000 C 
ATOM      6  O   UNL     1       1.365   6.658  21.168  0.00  0.00    +0.000 OA
ATOM      7  C   UNL     1       3.528   7.792  18.477  0.00  0.00    +0.000 C 
ATOM      8  C   UNL     1       3.766   7.130  17.114  0.00  0.00    +0.000 C 
ENDROOT
BRANCH   5   9
ATOM      9  C   UNL     1       1.088   8.669  19.987  0.00  0.00    +0.000 A 
ATOM     10  N   UNL     1       1.027   9.249  18.768  0.00  0.00    +0.000 NA
ATOM     11  O   UNL     1       0.452  10.495  18.946  0.00  0.00    +0.000 OA
ATOM     12  C   UNL     1       0.107  10.625  20.240  0.00  0.00    +0.000 A 
ATOM     13  C   UNL     1       0.420   9.488  20.938  0.00  0.00    +0.000 A 
ATOM     14  C   UNL     1       0.119   9.344  22.385  0.00  0.00    +0.000 C 
ATOM     15  C   UNL     1      -0.850  10.458  22.855  0.00  0.00    +0.000 C 
ATOM     16  C   UNL     1      -0.500  11.846  22.273  0.00  0.00    +0.000 C 
ATOM     17  C   UNL     1      -0.540  11.857  20.731  0.00  0.00    +0.000 C 
ENDBRANCH   5   9
BRANCH   1  23
ATOM     18  C   UNL     1       7.383   6.545  17.054  0.00  0.00    +0.000 C 
ATOM     19  N   UNL     1       6.592   5.721  16.171  0.00  0.00    +0.000 N 
ATOM     20  N   UNL     1       7.200   5.119  15.134  0.00  0.00    +0.000 NA
ATOM     21  C   UNL     1       6.237   4.375  14.589  0.00  0.00    +0.000 A 
ATOM     22  C   UNL     1       5.007   4.506  15.272  0.00  0.00    +0.000 A 
ATOM     23  C   UNL     1       5.257   5.387  16.308  0.00  0.00    +0.000 A 
BRANCH  21  24
ATOM     24  C   UNL     1       6.549   3.496  13.389  0.00  0.00    +0.000 C 
ATOM     25  C   UNL     1       5.599   3.461  12.212  0.00  0.00    +0.000 C 
ATOM     26  C   UNL     1       6.930   4.115  12.064  0.00  0.00    +0.000 C 
ENDBRANCH  21  24
ENDBRANCH   1  23
TORSDOF 3
ENDMDL
MODEL 7
REMARK VINA RESULT:      -7.4      1.852      2.865
REMARK  Name = 
REMARK  4 active torsions:
REMARK  status: ('A' for Active; 'I' for Inactive)
REMARK    1  A    between atoms: C_1  and  N_2
REMARK    2  A    between atoms: C_4  and  C_5
REMARK    3  A    between atoms: C_9  and  N_10
REMARK    4  A    between atoms: C_14  and  C_16
REMARK                            x       y       z     vdW  Elec       q    Type
REMARK                         _______ _______ _______ _____ _____    ______ ____
ROOT
ATOM      1  N   UNL     1       0.896   9.042  19.705  0.00  0.00    +0.000 N 
ATOM      2  C   UNL     1       1.378   8.195  20.822  0.00  0.00    +0.000 C 
ATOM      3  C   UNL     1       1.856   6.813  20.291  0.00  0.00    +0.000 C 
ATOM      4  N   UNL     1       2.755   6.926  19.130  0.00  0.00    +0.000 N 
ATOM      5  C   UNL     1       3.778   5.984  18.956  0.00  0.00    +0.000 C 
ATOM      6  O   UNL     1       3.890   5.025  19.721  0.00  0.00    +0.000 OA
ATOM      7  C   UNL     1       2.237   7.811  18.076  0.00  0.00    +0.000 C 
ATOM      8  C   UNL     1       1.926   9.199  18.652  0.00  0.00    +0.000 C 
ENDROOT
BRANCH   5   9
ATOM      9  C   UNL     1       4.724   6.148  17.835  0.00  0.00    +0.000 A 
ATOM     10  N   UNL     1       5.458   7.269  17.658  0.00  0.00    +0.000 NA
ATOM     11  O   UNL     1       6.159   7.105  16.476  0.00  0.00    +0.000 OA
ATOM     12  C   UNL     1       5.905   5.874  15.996  0.00  0.00    +0.000 A 
ATOM     13  C   UNL     1       5.060   5.195  16.834  0.00  0.00    +0.000 A 
ATOM     14  C   UNL     1       4.635   3.798  16.564  0.00  0.00    +0.000 C 
ATOM     15  C   UNL     1       5.515   3.165  15.457  0.00  0.00    +0.000 C 
ATOM     16  C   UNL     1       5.792   4.130  14.283  0.00  0.00    +0.000 C 
ATOM     17  C   UNL     1       6.524   5.409  14.740  0.00  0.00    +0.000 C 
ENDBRANCH   5   9
BRANCH   1  23
ATOM     18  C   UNL     1      -1.183   9.995  17.791  0.00  0.00    +0.000 C 
ATOM     19  N   UNL     1      -0.848  10.571  19.072  0.00  0.00    +0.000 N 
ATOM     20  N   UNL     1      -1.574  11.609  19.522  0.00  0.00    +0.000 NA
ATOM     21  C   UNL     1      -1.084  11.834  20.742  0.00  0.00    +0.000 A 
ATOM     22  C   UNL     1      -0.037  10.946  21.071  0.00  0.00    +0.000 A 
ATOM     23  C   UNL     1       0.104  10.122  19.970  0.00  0.00    +0.000 A 
BRANCH  21  24
ATOM     24  C   UNL     1      -1.686  12.929  21.607  0.00  0.00    +0.000 C 
ATOM     25  C   UNL     1      -2.678  12.572  22.692  0.00  0.00    +0.000 C 
ATOM     26  C   UNL     1      -1.315  13.043  23.068  0.00  0.00    +0.000 C 
ENDBRANCH  21  24
ENDBRANCH   1  23
TORSDOF 3
ENDMDL
MODEL 8
REMARK VINA RESULT:      -7.2      3.558      9.863
REMARK  Name = 
REMARK  4 active torsions:
REMARK  status: ('A' for Active; 'I' for Inactive)
REMARK    1  A    between atoms: C_1  and  N_2
REMARK    2  A    between atoms: C_4  and  C_5
REMARK    3  A    between atoms: C_9  and  N_10
REMARK    4  A    between atoms: C_14  and  C_16
REMARK                            x       y       z     vdW  Elec       q    Type
REMARK                         _______ _______ _______ _____ _____    ______ ____
ROOT
ATOM      1  N   UNL     1       2.436   7.426  18.735  0.00  0.00    +0.000 N 
ATOM      2  C   UNL     1       2.590   8.602  17.848  0.00  0.00    +0.000 C 
ATOM      3  C   UNL     1       1.289   9.455  17.840  0.00  0.00    +0.000 C 
ATOM      4  N   UNL     1       0.776   9.728  19.193  0.00  0.00    +0.000 N 
ATOM      5  C   UNL     1       0.121  10.939  19.450  0.00  0.00    +0.000 C 
ATOM      6  O   UNL     1      -0.093  11.746  18.544  0.00  0.00    +0.000 OA
ATOM      7  C   UNL     1       0.684   8.526  20.036  0.00  0.00    +0.000 C 
ATOM      8  C   UNL     1       2.046   7.822  20.108  0.00  0.00    +0.000 C 
ENDROOT
BRANCH   5   9
ATOM      9  C   UNL     1      -0.321  11.241  20.826  0.00  0.00    +0.000 A 
ATOM     10  N   UNL     1       0.427  10.946  21.913  0.00  0.00    +0.000 NA
ATOM     11  O   UNL     1      -0.327  11.289  23.021  0.00  0.00    +0.000 OA
ATOM     12  C   UNL     1      -1.476  11.849  22.600  0.00  0.00    +0.000 A 
ATOM     13  C   UNL     1      -1.509  11.908  21.231  0.00  0.00    +0.000 A 
ATOM     14  C   UNL     1      -2.649  12.509  20.495  0.00  0.00    +0.000 C 
ATOM     15  C   UNL     1      -3.558  13.314  21.459  0.00  0.00    +0.000 C 
ATOM     16  C   UNL     1      -3.799  12.590  22.803  0.00  0.00    +0.000 C 
ATOM     17  C   UNL     1      -2.485  12.324  23.566  0.00  0.00    +0.000 C 
ENDBRANCH   5   9
BRANCH   1  23
ATOM     18  C   UNL     1       1.547   4.608  19.141  0.00  0.00    +0.000 C 
ATOM     19  N   UNL     1       2.877   5.063  18.816  0.00  0.00    +0.000 N 
ATOM     20  N   UNL     1       3.835   4.148  18.591  0.00  0.00    +0.000 NA
ATOM     21  C   UNL     1       4.892   4.876  18.229  0.00  0.00    +0.000 A 
ATOM     22  C   UNL     1       4.614   6.260  18.227  0.00  0.00    +0.000 A 
ATOM     23  C   UNL     1       3.290   6.367  18.609  0.00  0.00    +0.000 A 
BRANCH  21  24
ATOM     24  C   UNL     1       6.191   4.184  17.847  0.00  0.00    +0.000 C 
ATOM     25  C   UNL     1       6.809   4.440  16.490  0.00  0.00    +0.000 C 
ATOM     26  C   UNL     1       7.471   4.977  17.712  0.00  0.00    +0.000 C 
ENDBRANCH  21  24
ENDBRANCH   1  23
TORSDOF 3
ENDMDL
MODEL 9
REMARK VINA RESULT:      -7.1      3.391      8.748
REMARK  Name = 
REMARK  4 active torsions:
REMARK  status: ('A' for Active; 'I' for Inactive)
REMARK    1  A    between atoms: C_1  and  N_2
REMARK    2  A    between atoms: C_4  and  C_5
REMARK    3  A    between atoms: C_9  and  N_10
REMARK    4  A    between atoms: C_14  and  C_16
REMARK                            x       y       z     vdW  Elec       q    Type
REMARK                         _______ _______ _______ _____ _____    ______ ____
ROOT
ATOM      1  N   UNL     1       2.896   6.423  18.799  0.00  0.00    +0.000 N 
ATOM      2  C   UNL     1       2.095   5.940  19.948  0.00  0.00    +0.000 C 
ATOM      3  C   UNL     1       1.856   7.090  20.968  0.00  0.00    +0.000 C 
ATOM      4  N   UNL     1       1.388   8.332  20.329  0.00  0.00    +0.000 N 
ATOM      5  C   UNL     1       0.506   9.173  21.021  0.00  0.00    +0.000 C 
ATOM      6  O   UNL     1       0.173   8.923  22.181  0.00  0.00    +0.000 OA
ATOM      7  C   UNL     1       2.201   8.735  19.172  0.00  0.00    +0.000 C 
ATOM      8  C   UNL     1       2.268   7.595  18.147  0.00  0.00    +0.000 C 
ENDROOT
BRANCH   5   9
ATOM      9  C   UNL     1      -0.020  10.375  20.346  0.00  0.00    +0.000 A 
ATOM     10  N   UNL     1       0.262  11.629  20.765  0.00  0.00    +0.000 NA
ATOM     11  O   UNL     1      -0.459  12.492  19.958  0.00  0.00    +0.000 OA
ATOM     12  C   UNL     1      -1.103  11.766  19.025  0.00  0.00    +0.000 A 
ATOM     13  C   UNL     1      -0.820  10.433  19.172  0.00  0.00    +0.000 A 
ATOM     14  C   UNL     1      -1.372   9.404  18.255  0.00  0.00    +0.000 C 
ATOM     15  C   UNL     1      -1.982  10.068  16.994  0.00  0.00    +0.000 C 
ATOM     16  C   UNL     1      -2.804  11.335  17.319  0.00  0.00    +0.000 C 
ATOM     17  C   UNL     1      -1.953  12.420  18.012  0.00  0.00    +0.000 C 
ENDBRANCH   5   9
BRANCH   1  23
ATOM     18  C   UNL     1       1.561   3.931  17.848  0.00  0.00    +0.000 C 
ATOM     19  N   UNL     1       2.910   4.359  17.565  0.00  0.00    +0.000 N 
ATOM     20  N   UNL     1       3.659   3.621  16.727  0.00  0.00    +0.000 NA
ATOM     21  C   UNL     1       4.785   4.323  16.604  0.00  0.00    +0.000 A 
ATOM     22  C   UNL     1       4.763   5.510  17.370  0.00  0.00    +0.000 A 
ATOM     23  C   UNL     1       3.527   5.522  17.989  0.00  0.00    +0.000 A 
BRANCH  21  24
ATOM     24  C   UNL     1       5.890   3.824  15.687  0.00  0.00    +0.000 C 
ATOM     25  C   UNL     1       5.896   4.225  14.228  0.00  0.00    +0.000 C 
ATOM     26  C   UNL     1       6.929   4.781  15.147  0.00  0.00    +0.000 C 
ENDBRANCH  21  24
ENDBRANCH   1  23
TORSDOF 3
ENDMDL
