MODEL 1
REMARK VINA RESULT:      -8.5      0.000      0.000
REMARK  Name = 
REMARK  7 active torsions:
REMARK  status: ('A' for Active; 'I' for Inactive)
REMARK    1  A    between atoms: C_2  and  OXT_3
REMARK    2  A    between atoms: C_2  and  CA_4
REMARK    3  A    between atoms: CA_4  and  CB_5
REMARK    4  A    between atoms: CA_4  and  N_12
REMARK    5  A    between atoms: CB_5  and  CG_6
REMARK    6  A    between atoms: C_16  and  C_17
REMARK    7  A    between atoms: C_20  and  C_21
REMARK                            x       y       z     vdW  Elec       q    Type
REMARK                         _______ _______ _______ _____ _____    ______ ____
ROOT
ATOM      1  N   UNL     1       2.738   5.226  19.362  0.00  0.00    +0.000 N 
ATOM      2  C   UNL     1       2.265   6.520  19.275  0.00  0.00    +0.000 C 
ATOM      3  O   UNL     1       2.155   7.221  18.285  0.00  0.00    +0.000 OA
ATOM      4  CA  UNL     1       1.811   6.885  20.656  0.00  0.00    +0.000 C 
ATOM      5  C   UNL     1       1.234   8.020  21.061  0.00  0.00    +0.000 C 
ATOM      6  N   UNL     1       2.034   5.790  21.430  0.00  0.00    +0.000 N 
ATOM      7  C   UNL     1       2.521   4.747  20.652  0.00  0.00    +0.000 C 
ATOM      8  S   UNL     1       2.701   3.223  21.279  0.00  0.00    +0.000 S 
ATOM      9  H   UNL     1       1.778   5.686  22.403  0.00  0.00    +0.000 HD
ENDROOT
BRANCH   5  10
ATOM     10  C   UNL     1       0.905   9.055  20.150  0.00  0.00    +0.000 A 
ATOM     11  C   UNL     1       1.734   9.846  19.369  0.00  0.00    +0.000 A 
ATOM     12  C   UNL     1       0.913  10.717  18.613  0.00  0.00    +0.000 A 
ATOM     13  C   UNL     1      -0.390  10.400  18.928  0.00  0.00    +0.000 A 
ATOM     14  O   UNL     1      -0.395   9.421  19.881  0.00  0.00    +0.000 OA
BRANCH  13  15
ATOM     15  C   UNL     1      -1.694  10.848  18.437  0.00  0.00    +0.000 A 
ATOM     16  C   UNL     1      -2.208  10.358  17.224  0.00  0.00    +0.000 A 
ATOM     17  C   UNL     1      -3.487  10.718  16.783  0.00  0.00    +0.000 A 
ATOM     18  C   UNL     1      -4.265  11.578  17.554  0.00  0.00    +0.000 A 
ATOM     19 CL   UNL     1      -5.854  11.988  17.037  0.00  0.00    +0.000 Cl
ATOM     20  C   UNL     1      -3.768  12.096  18.745  0.00  0.00    +0.000 A 
ATOM     21  C   UNL     1      -2.488  11.736  19.181  0.00  0.00    +0.000 A 
ENDBRANCH  13  15
ENDBRANCH   5  10
BRANCH   1  22
ATOM     22  CA  UNL     1       3.228   4.459  18.190  0.00  0.00    +0.000 C 
BRANCH  22  24
ATOM     23  O   UNL     1       1.031   4.199  17.103  0.00  0.00    +0.000 OA
ATOM     24  C   UNL     1       2.109   3.712  17.420  0.00  0.00    +0.000 C 
BRANCH  24  25
ATOM     25  OXT UNL     1       2.410   2.415  17.158  0.00  0.00    +0.000 OA
ATOM     26  HXT UNL     1       1.707   1.781  17.393  0.00  0.00    +0.000 HD
ENDBRANCH  24  25
ENDBRANCH  22  24
BRANCH  22  27
ATOM     27  CB  UNL     1       4.009   5.352  17.195  0.00  0.00    +0.000 C 
BRANCH  27  28
ATOM     28  CG  UNL     1       5.368   5.800  17.685  0.00  0.00    +0.000 A 
ATOM     29  CD1 UNL     1       5.981   5.160  18.770  0.00  0.00    +0.000 A 
ATOM     30  CE1 UNL     1       7.240   5.564  19.212  0.00  0.00    +0.000 A 
ATOM     31  CZ  UNL     1       7.906   6.603  18.569  0.00  0.00    +0.000 A 
ATOM     32  CE2 UNL     1       7.309   7.245  17.484  0.00  0.00    +0.000 A 
ATOM     33  CD2 UNL     1       6.043   6.851  17.047  0.00  0.00    +0.000 A 
ENDBRANCH  27  28
ENDBRANCH  22  27
ENDBRANCH   1  22
TORSDOF 7
ENDMDL
MODEL 2
REMARK VINA RESULT:      -8.5      0.213      1.366
REMARK  Name = 
REMARK  7 active torsions:
REMARK  status: ('A' for Active; 'I' for Inactive)
REMARK    1  A    between atoms: C_2  and  OXT_3
REMARK    2  A    between atoms: C_2  and  CA_4
REMARK    3  A    between atoms: CA_4  and  CB_5
REMARK    4  A    between atoms: CA_4  and  N_12
REMARK    5  A    between atoms: CB_5  and  CG_6
REMARK    6  A    between atoms: C_16  and  C_17
REMARK    7  A    between atoms: C_20  and  C_21
REMARK                            x       y       z     vdW  Elec       q    Type
REMARK                         _______ _______ _______ _____ _____    ______ ____
ROOT
ATOM      1  N   UNL     1       2.834   5.027  19.346  0.00  0.00    +0.000 N 
ATOM      2  C   UNL     1       2.352   6.317  19.255  0.00  0.00    +0.000 C 
ATOM      3  O   UNL     1       2.221   7.008  18.261  0.00  0.00    +0.000 OA
ATOM      4  CA  UNL     1       1.918   6.693  20.639  0.00  0.00    +0.000 C 
ATOM      5  C   UNL     1       1.341   7.828  21.043  0.00  0.00    +0.000 C 
ATOM      6  N   UNL     1       2.161   5.606  21.420  0.00  0.00    +0.000 N 
ATOM      7  C   UNL     1       2.642   4.559  20.644  0.00  0.00    +0.000 C 
ATOM      8  S   UNL     1       2.842   3.042  21.282  0.00  0.00    +0.000 S 
ATOM      9  H   UNL     1       1.921   5.510  22.398  0.00  0.00    +0.000 HD
ENDROOT
BRANCH   5  10
ATOM     10  C   UNL     1       0.991   8.852  20.128  0.00  0.00    +0.000 A 
ATOM     11  C   UNL     1       1.802   9.636  19.322  0.00  0.00    +0.000 A 
ATOM     12  C   UNL     1       0.962  10.497  18.574  0.00  0.00    +0.000 A 
ATOM     13  C   UNL     1      -0.333  10.181  18.918  0.00  0.00    +0.000 A 
ATOM     14  O   UNL     1      -0.316   9.212  19.882  0.00  0.00    +0.000 OA
BRANCH  13  15
ATOM     15  C   UNL     1      -1.648  10.620  18.449  0.00  0.00    +0.000 A 
ATOM     16  C   UNL     1      -2.385  11.570  19.178  0.00  0.00    +0.000 A 
ATOM     17  C   UNL     1      -3.607  12.056  18.699  0.00  0.00    +0.000 A 
ATOM     18  C   UNL     1      -4.106  11.594  17.485  0.00  0.00    +0.000 A 
ATOM     19 CL   UNL     1      -5.586  12.222  16.872  0.00  0.00    +0.000 Cl
ATOM     20  C   UNL     1      -3.406  10.636  16.759  0.00  0.00    +0.000 A 
ATOM     21  C   UNL     1      -2.186  10.150  17.241  0.00  0.00    +0.000 A 
ENDBRANCH  13  15
ENDBRANCH   5  10
BRANCH   1  22
ATOM     22  CA  UNL     1       3.310   4.251  18.173  0.00  0.00    +0.000 C 
BRANCH  22  24
ATOM     23  O   UNL     1       2.248   2.280  17.143  0.00  0.00    +0.000 OA
ATOM     24  C   UNL     1       2.188   3.465  17.448  0.00  0.00    +0.000 C 
BRANCH  24  25
ATOM     25  OXT UNL     1       1.117   4.232  17.122  0.00  0.00    +0.000 OA
ATOM     26  HXT UNL     1       0.413   4.251  17.797  0.00  0.00    +0.000 HD
ENDBRANCH  24  25
ENDBRANCH  22  24
BRANCH  22  27
ATOM     27  CB  UNL     1       4.041   5.146  17.142  0.00  0.00    +0.000 C 
BRANCH  27  28
ATOM     28  CG  UNL     1       5.388   5.660  17.599  0.00  0.00    +0.000 A 
ATOM     29  CD1 UNL     1       5.944   6.811  17.024  0.00  0.00    +0.000 A 
ATOM     30  CE1 UNL     1       7.179   7.293  17.455  0.00  0.00    +0.000 A 
ATOM     31  CZ  UNL     1       7.868   6.639  18.472  0.00  0.00    +0.000 A 
ATOM     32  CE2 UNL     1       7.323   5.495  19.055  0.00  0.00    +0.000 A 
ATOM     33  CD2 UNL     1       6.093   5.003  18.617  0.00  0.00    +0.000 A 
ENDBRANCH  27  28
ENDBRANCH  22  27
ENDBRANCH   1  22
TORSDOF 7
ENDMDL
MODEL 3
REMARK VINA RESULT:      -8.4      2.800      3.763
REMARK  Name = 
REMARK  7 active torsions:
REMARK  status: ('A' for Active; 'I' for Inactive)
REMARK    1  A    between atoms: C_2  and  OXT_3
REMARK    2  A    between atoms: C_2  and  CA_4
REMARK    3  A    between atoms: CA_4  and  CB_5
REMARK    4  A    between atoms: CA_4  and  N_12
REMARK    5  A    between atoms: CB_5  and  CG_6
REMARK    6  A    between atoms: C_16  and  C_17
REMARK    7  A    between atoms: C_20  and  C_21
REMARK                            x       y       z     vdW  Elec       q    Type
REMARK                         _______ _______ _______ _____ _____    ______ ____
ROOT
ATOM      1  N   UNL     1       2.544   5.672  19.456  0.00  0.00    +0.000 N 
ATOM      2  C   UNL     1       2.151   6.993  19.385  0.00  0.00    +0.000 C 
ATOM      3  O   UNL     1       2.209   7.751  18.433  0.00  0.00    +0.000 OA
ATOM      4  CA  UNL     1       1.533   7.311  20.713  0.00  0.00    +0.000 C 
ATOM      5  C   UNL     1       0.963   8.454  21.106  0.00  0.00    +0.000 C 
ATOM      6  N   UNL     1       1.596   6.166  21.444  0.00  0.00    +0.000 N 
ATOM      7  C   UNL     1       2.132   5.139  20.676  0.00  0.00    +0.000 C 
ATOM      8  S   UNL     1       2.151   3.577  21.229  0.00  0.00    +0.000 S 
ATOM      9  H   UNL     1       1.207   6.026  22.367  0.00  0.00    +0.000 HD
ENDROOT
BRANCH   5  10
ATOM     10  C   UNL     1       0.812   9.552  20.223  0.00  0.00    +0.000 A 
ATOM     11  C   UNL     1      -0.164   9.794  19.268  0.00  0.00    +0.000 A 
ATOM     12  C   UNL     1       0.121  11.044  18.666  0.00  0.00    +0.000 A 
ATOM     13  C   UNL     1       1.238  11.540  19.302  0.00  0.00    +0.000 A 
ATOM     14  O   UNL     1       1.676  10.624  20.217  0.00  0.00    +0.000 OA
BRANCH  13  15
ATOM     15  C   UNL     1       1.977  12.801  19.225  0.00  0.00    +0.000 A 
ATOM     16  C   UNL     1       2.387  13.460  20.396  0.00  0.00    +0.000 A 
ATOM     17  C   UNL     1       3.162  14.625  20.335  0.00  0.00    +0.000 A 
ATOM     18  C   UNL     1       3.533  15.142  19.097  0.00  0.00    +0.000 A 
ATOM     19 CL   UNL     1       4.523  16.548  19.019  0.00  0.00    +0.000 Cl
ATOM     20  C   UNL     1       3.119  14.520  17.924  0.00  0.00    +0.000 A 
ATOM     21  C   UNL     1       2.342  13.358  17.989  0.00  0.00    +0.000 A 
ENDBRANCH  13  15
ENDBRANCH   5  10
BRANCH   1  22
ATOM     22  CA  UNL     1       3.148   4.941  18.315  0.00  0.00    +0.000 C 
BRANCH  22  24
ATOM     23  O   UNL     1       0.968   4.512  17.249  0.00  0.00    +0.000 OA
ATOM     24  C   UNL     1       2.121   4.156  17.461  0.00  0.00    +0.000 C 
BRANCH  24  25
ATOM     25  OXT UNL     1       2.602   2.978  16.989  0.00  0.00    +0.000 OA
ATOM     26  HXT UNL     1       2.079   2.589  16.263  0.00  0.00    +0.000 HD
ENDBRANCH  24  25
ENDBRANCH  22  24
BRANCH  22  27
ATOM     27  CB  UNL     1       3.958   5.879  17.387  0.00  0.00    +0.000 C 
BRANCH  27  28
ATOM     28  CG  UNL     1       5.381   6.131  17.832  0.00  0.00    +0.000 A 
ATOM     29  CD1 UNL     1       5.936   5.402  18.892  0.00  0.00    +0.000 A 
ATOM     30  CE1 UNL     1       7.253   5.624  19.294  0.00  0.00    +0.000 A 
ATOM     31  CZ  UNL     1       8.033   6.569  18.634  0.00  0.00    +0.000 A 
ATOM     32  CE2 UNL     1       7.495   7.299  17.575  0.00  0.00    +0.000 A 
ATOM     33  CD2 UNL     1       6.173   7.086  17.179  0.00  0.00    +0.000 A 
ENDBRANCH  27  28
ENDBRANCH  22  27
ENDBRANCH   1  22
TORSDOF 7
ENDMDL
MODEL 4
REMARK VINA RESULT:      -8.4      2.626      3.540
REMARK  Name = 
REMARK  7 active torsions:
REMARK  status: ('A' for Active; 'I' for Inactive)
REMARK    1  A    between atoms: C_2  and  OXT_3
REMARK    2  A    between atoms: C_2  and  CA_4
REMARK    3  A    between atoms: CA_4  and  CB_5
REMARK    4  A    between atoms: CA_4  and  N_12
REMARK    5  A    between atoms: CB_5  and  CG_6
REMARK    6  A    between atoms: C_16  and  C_17
REMARK    7  A    between atoms: C_20  and  C_21
REMARK                            x       y       z     vdW  Elec       q    Type
REMARK                         _______ _______ _______ _____ _____    ______ ____
ROOT
ATOM      1  N   UNL     1       2.539   5.670  19.452  0.00  0.00    +0.000 N 
ATOM      2  C   UNL     1       2.090   6.971  19.348  0.00  0.00    +0.000 C 
ATOM      3  O   UNL     1       2.081   7.694  18.368  0.00  0.00    +0.000 OA
ATOM      4  CA  UNL     1       1.510   7.314  20.687  0.00  0.00    +0.000 C 
ATOM      5  C   UNL     1       0.910   8.448  21.060  0.00  0.00    +0.000 C 
ATOM      6  N   UNL     1       1.648   6.201  21.456  0.00  0.00    +0.000 N 
ATOM      7  C   UNL     1       2.196   5.168  20.705  0.00  0.00    +0.000 C 
ATOM      8  S   UNL     1       2.299   3.630  21.313  0.00  0.00    +0.000 S 
ATOM      9  H   UNL     1       1.300   6.080  22.397  0.00  0.00    +0.000 HD
ENDROOT
BRANCH   5  10
ATOM     10  C   UNL     1       0.680   9.505  20.144  0.00  0.00    +0.000 A 
ATOM     11  C   UNL     1      -0.340   9.672  19.220  0.00  0.00    +0.000 A 
ATOM     12  C   UNL     1      -0.129  10.908  18.563  0.00  0.00    +0.000 A 
ATOM     13  C   UNL     1       0.989  11.472  19.136  0.00  0.00    +0.000 A 
ATOM     14  O   UNL     1       1.499  10.610  20.066  0.00  0.00    +0.000 OA
BRANCH  13  15
ATOM     15  C   UNL     1       1.673  12.757  18.984  0.00  0.00    +0.000 A 
ATOM     16  C   UNL     1       2.786  12.878  18.135  0.00  0.00    +0.000 A 
ATOM     17  C   UNL     1       3.400  14.118  17.922  0.00  0.00    +0.000 A 
ATOM     18  C   UNL     1       2.905  15.252  18.560  0.00  0.00    +0.000 A 
ATOM     19 CL   UNL     1       3.629  16.785  18.266  0.00  0.00    +0.000 Cl
ATOM     20  C   UNL     1       1.820  15.152  19.424  0.00  0.00    +0.000 A 
ATOM     21  C   UNL     1       1.211  13.910  19.638  0.00  0.00    +0.000 A 
ENDBRANCH  13  15
ENDBRANCH   5  10
BRANCH   1  22
ATOM     22  CA  UNL     1       3.129   4.921  18.315  0.00  0.00    +0.000 C 
BRANCH  22  24
ATOM     23  O   UNL     1       0.950   4.515  17.237  0.00  0.00    +0.000 OA
ATOM     24  C   UNL     1       2.090   4.134  17.477  0.00  0.00    +0.000 C 
BRANCH  24  25
ATOM     25  OXT UNL     1       2.541   2.925  17.057  0.00  0.00    +0.000 OA
ATOM     26  HXT UNL     1       2.552   2.812  16.088  0.00  0.00    +0.000 HD
ENDBRANCH  24  25
ENDBRANCH  22  24
BRANCH  22  27
ATOM     27  CB  UNL     1       3.940   5.842  17.369  0.00  0.00    +0.000 C 
BRANCH  27  28
ATOM     28  CG  UNL     1       5.369   6.084  17.800  0.00  0.00    +0.000 A 
ATOM     29  CD1 UNL     1       6.159   7.036  17.142  0.00  0.00    +0.000 A 
ATOM     30  CE1 UNL     1       7.473   7.270  17.548  0.00  0.00    +0.000 A 
ATOM     31  CZ  UNL     1       8.007   6.564  18.623  0.00  0.00    +0.000 A 
ATOM     32  CE2 UNL     1       7.229   5.618  19.289  0.00  0.00    +0.000 A 
ATOM     33  CD2 UNL     1       5.918   5.374  18.876  0.00  0.00    +0.000 A 
ENDBRANCH  27  28
ENDBRANCH  22  27
ENDBRANCH   1  22
TORSDOF 7
ENDMDL
MODEL 5
REMARK VINA RESULT:      -8.4      4.284      8.008
REMARK  Name = 
REMARK  7 active torsions:
REMARK  status: ('A' for Active; 'I' for Inactive)
REMARK    1  A    between atoms: C_2  and  OXT_3
REMARK    2  A    between atoms: C_2  and  CA_4
REMARK    3  A    between atoms: CA_4  and  CB_5
REMARK    4  A    between atoms: CA_4  and  N_12
REMARK    5  A    between atoms: CB_5  and  CG_6
REMARK    6  A    between atoms: C_16  and  C_17
REMARK    7  A    between atoms: C_20  and  C_21
REMARK                            x       y       z     vdW  Elec       q    Type
REMARK                         _______ _______ _______ _____ _____    ______ ____
ROOT
ATOM      1  N   UNL     1       4.237   4.916  18.635  0.00  0.00    +0.000 N 
ATOM      2  C   UNL     1       5.214   5.838  18.317  0.00  0.00    +0.000 C 
ATOM      3  O   UNL     1       5.077   6.962  17.868  0.00  0.00    +0.000 OA
ATOM      4  CA  UNL     1       6.515   5.217  18.724  0.00  0.00    +0.000 C 
ATOM      5  C   UNL     1       7.740   5.747  18.659  0.00  0.00    +0.000 C 
ATOM      6  N   UNL     1       6.205   4.004  19.256  0.00  0.00    +0.000 N 
ATOM      7  C   UNL     1       4.826   3.834  19.285  0.00  0.00    +0.000 C 
ATOM      8  S   UNL     1       4.140   2.539  20.058  0.00  0.00    +0.000 S 
ATOM      9  H   UNL     1       6.855   3.357  19.684  0.00  0.00    +0.000 HD
ENDROOT
BRANCH   5  10
ATOM     10  C   UNL     1       7.951   7.080  18.224  0.00  0.00    +0.000 A 
ATOM     11  C   UNL     1       7.576   7.697  17.041  0.00  0.00    +0.000 A 
ATOM     12  C   UNL     1       8.004   9.045  17.103  0.00  0.00    +0.000 A 
ATOM     13  C   UNL     1       8.589   9.215  18.338  0.00  0.00    +0.000 A 
ATOM     14  O   UNL     1       8.589   8.021  19.002  0.00  0.00    +0.000 OA
BRANCH  13  15
ATOM     15  C   UNL     1       9.139  10.368  19.054  0.00  0.00    +0.000 A 
ATOM     16  C   UNL     1       9.631  11.479  18.349  0.00  0.00    +0.000 A 
ATOM     17  C   UNL     1      10.086  12.618  19.023  0.00  0.00    +0.000 A 
ATOM     18  C   UNL     1      10.055  12.655  20.415  0.00  0.00    +0.000 A 
ATOM     19 CL   UNL     1      10.572  14.070  21.246  0.00  0.00    +0.000 Cl
ATOM     20  C   UNL     1       9.594  11.557  21.135  0.00  0.00    +0.000 A 
ATOM     21  C   UNL     1       9.143  10.419  20.457  0.00  0.00    +0.000 A 
ENDBRANCH  13  15
ENDBRANCH   5  10
BRANCH   1  22
ATOM     22  CA  UNL     1       2.787   5.170  18.449  0.00  0.00    +0.000 C 
BRANCH  22  24
ATOM     23  O   UNL     1       2.148   3.277  17.007  0.00  0.00    +0.000 OA
ATOM     24  C   UNL     1       1.979   3.912  18.040  0.00  0.00    +0.000 C 
BRANCH  24  25
ATOM     25  OXT UNL     1       1.004   3.587  18.926  0.00  0.00    +0.000 OA
ATOM     26  HXT UNL     1       1.075   2.686  19.293  0.00  0.00    +0.000 HD
ENDBRANCH  24  25
ENDBRANCH  22  24
BRANCH  22  27
ATOM     27  CB  UNL     1       2.139   5.793  19.710  0.00  0.00    +0.000 C 
BRANCH  27  28
ATOM     28  CG  UNL     1       1.776   7.255  19.574  0.00  0.00    +0.000 A 
ATOM     29  CD1 UNL     1       1.315   7.980  20.681  0.00  0.00    +0.000 A 
ATOM     30  CE1 UNL     1       0.994   9.332  20.559  0.00  0.00    +0.000 A 
ATOM     31  CZ  UNL     1       1.141   9.977  19.334  0.00  0.00    +0.000 A 
ATOM     32  CE2 UNL     1       1.604   9.267  18.227  0.00  0.00    +0.000 A 
ATOM     33  CD2 UNL     1       1.914   7.911  18.343  0.00  0.00    +0.000 A 
ENDBRANCH  27  28
ENDBRANCH  22  27
ENDBRANCH   1  22
TORSDOF 7
ENDMDL
MODEL 6
REMARK VINA RESULT:      -8.4      4.219      8.067
REMARK  Name = 
REMARK  7 active torsions:
REMARK  status: ('A' for Active; 'I' for Inactive)
REMARK    1  A    between atoms: C_2  and  OXT_3
REMARK    2  A    between atoms: C_2  and  CA_4
REMARK    3  A    between atoms: CA_4  and  CB_5
REMARK    4  A    between atoms: CA_4  and  N_12
REMARK    5  A    between atoms: CB_5  and  CG_6
REMARK    6  A    between atoms: C_16  and  C_17
REMARK    7  A    between atoms: C_20  and  C_21
REMARK                            x       y       z     vdW  Elec       q    Type
REMARK                         _______ _______ _______ _____ _____    ______ ____
ROOT
ATOM      1  N   UNL     1       4.021   4.769  18.844  0.00  0.00    +0.000 N 
ATOM      2  C   UNL     1       4.995   5.663  18.448  0.00  0.00    +0.000 C 
ATOM      3  O   UNL     1       4.855   6.797  18.024  0.00  0.00    +0.000 OA
ATOM      4  CA  UNL     1       6.307   4.997  18.732  0.00  0.00    +0.000 C 
ATOM      5  C   UNL     1       7.537   5.490  18.562  0.00  0.00    +0.000 C 
ATOM      6  N   UNL     1       6.007   3.788  19.278  0.00  0.00    +0.000 N 
ATOM      7  C   UNL     1       4.631   3.661  19.429  0.00  0.00    +0.000 C 
ATOM      8  S   UNL     1       3.975   2.378  20.248  0.00  0.00    +0.000 S 
ATOM      9  H   UNL     1       6.671   3.117  19.641  0.00  0.00    +0.000 HD
ENDROOT
BRANCH   5  10
ATOM     10  C   UNL     1       7.751   6.820  18.123  0.00  0.00    +0.000 A 
ATOM     11  C   UNL     1       7.288   7.465  16.986  0.00  0.00    +0.000 A 
ATOM     12  C   UNL     1       7.765   8.797  17.020  0.00  0.00    +0.000 A 
ATOM     13  C   UNL     1       8.469   8.932  18.196  0.00  0.00    +0.000 A 
ATOM     14  O   UNL     1       8.491   7.730  18.845  0.00  0.00    +0.000 OA
BRANCH  13  15
ATOM     15  C   UNL     1       9.122  10.056  18.869  0.00  0.00    +0.000 A 
ATOM     16  C   UNL     1       9.846  11.008  18.130  0.00  0.00    +0.000 A 
ATOM     17  C   UNL     1      10.408  12.129  18.752  0.00  0.00    +0.000 A 
ATOM     18  C   UNL     1      10.253  12.307  20.124  0.00  0.00    +0.000 A 
ATOM     19 CL   UNL     1      10.904  13.707  20.884  0.00  0.00    +0.000 Cl
ATOM     20  C   UNL     1       9.561  11.366  20.879  0.00  0.00    +0.000 A 
ATOM     21  C   UNL     1       9.004  10.245  20.255  0.00  0.00    +0.000 A 
ENDBRANCH  13  15
ENDBRANCH   5  10
BRANCH   1  22
ATOM     22  CA  UNL     1       2.569   5.070  18.791  0.00  0.00    +0.000 C 
BRANCH  22  24
ATOM     23  O   UNL     1       0.852   3.362  19.247  0.00  0.00    +0.000 OA
ATOM     24  C   UNL     1       1.685   3.835  18.484  0.00  0.00    +0.000 C 
BRANCH  24  25
ATOM     25  OXT UNL     1       1.950   3.269  17.279  0.00  0.00    +0.000 OA
ATOM     26  HXT UNL     1       2.764   2.731  17.255  0.00  0.00    +0.000 HD
ENDBRANCH  24  25
ENDBRANCH  22  24
BRANCH  22  27
ATOM     27  CB  UNL     1       2.065   5.735  20.096  0.00  0.00    +0.000 C 
BRANCH  27  28
ATOM     28  CG  UNL     1       1.706   7.197  19.959  0.00  0.00    +0.000 A 
ATOM     29  CD1 UNL     1       1.879   7.863  18.739  0.00  0.00    +0.000 A 
ATOM     30  CE1 UNL     1       1.535   9.208  18.609  0.00  0.00    +0.000 A 
ATOM     31  CZ  UNL     1       1.002   9.900  19.693  0.00  0.00    +0.000 A 
ATOM     32  CE2 UNL     1       0.820   9.248  20.912  0.00  0.00    +0.000 A 
ATOM     33  CD2 UNL     1       1.176   7.905  21.048  0.00  0.00    +0.000 A 
ENDBRANCH  27  28
ENDBRANCH  22  27
ENDBRANCH   1  22
TORSDOF 7
ENDMDL
MODEL 7
REMARK VINA RESULT:      -8.3      2.610      3.615
REMARK  Name = 
REMARK  7 active torsions:
REMARK  status: ('A' for Active; 'I' for Inactive)
REMARK    1  A    between atoms: C_2  and  OXT_3
REMARK    2  A    between atoms: C_2  and  CA_4
REMARK    3  A    between atoms: CA_4  and  CB_5
REMARK    4  A    between atoms: CA_4  and  N_12
REMARK    5  A    between atoms: CB_5  and  CG_6
REMARK    6  A    between atoms: C_16  and  C_17
REMARK    7  A    between atoms: C_20  and  C_21
REMARK                            x       y       z     vdW  Elec       q    Type
REMARK                         _______ _______ _______ _____ _____    ______ ____
ROOT
ATOM      1  N   UNL     1       2.639   5.704  19.384  0.00  0.00    +0.000 N 
ATOM      2  C   UNL     1       2.151   6.986  19.230  0.00  0.00    +0.000 C 
ATOM      3  O   UNL     1       2.114   7.667  18.220  0.00  0.00    +0.000 OA
ATOM      4  CA  UNL     1       1.570   7.368  20.558  0.00  0.00    +0.000 C 
ATOM      5  C   UNL     1       0.939   8.498  20.889  0.00  0.00    +0.000 C 
ATOM      6  N   UNL     1       1.745   6.291  21.371  0.00  0.00    +0.000 N 
ATOM      7  C   UNL     1       2.319   5.244  20.659  0.00  0.00    +0.000 C 
ATOM      8  S   UNL     1       2.472   3.737  21.330  0.00  0.00    +0.000 S 
ATOM      9  H   UNL     1       1.407   6.200  22.320  0.00  0.00    +0.000 HD
ENDROOT
BRANCH   5  10
ATOM     10  C   UNL     1       0.672   9.508  19.931  0.00  0.00    +0.000 A 
ATOM     11  C   UNL     1      -0.351   9.600  19.000  0.00  0.00    +0.000 A 
ATOM     12  C   UNL     1      -0.185  10.817  18.295  0.00  0.00    +0.000 A 
ATOM     13  C   UNL     1       0.909  11.444  18.847  0.00  0.00    +0.000 A 
ATOM     14  O   UNL     1       1.448  10.640  19.811  0.00  0.00    +0.000 OA
BRANCH  13  15
ATOM     15  C   UNL     1       1.544  12.748  18.646  0.00  0.00    +0.000 A 
ATOM     16  C   UNL     1       0.848  13.934  18.937  0.00  0.00    +0.000 A 
ATOM     17  C   UNL     1       1.471  15.183  18.824  0.00  0.00    +0.000 A 
ATOM     18  C   UNL     1       2.799  15.256  18.416  0.00  0.00    +0.000 A 
ATOM     19 CL   UNL     1       3.581  16.787  18.319  0.00  0.00    +0.000 Cl
ATOM     20  C   UNL     1       3.501  14.098  18.099  0.00  0.00    +0.000 A 
ATOM     21  C   UNL     1       2.874  12.852  18.210  0.00  0.00    +0.000 A 
ENDBRANCH  13  15
ENDBRANCH   5  10
BRANCH   1  22
ATOM     22  CA  UNL     1       3.243   4.926  18.274  0.00  0.00    +0.000 C 
BRANCH  22  24
ATOM     23  O   UNL     1       2.443   3.008  16.949  0.00  0.00    +0.000 OA
ATOM     24  C   UNL     1       2.217   4.099  17.459  0.00  0.00    +0.000 C 
BRANCH  24  25
ATOM     25  OXT UNL     1       1.022   4.722  17.307  0.00  0.00    +0.000 OA
ATOM     26  HXT UNL     1       0.334   4.438  17.938  0.00  0.00    +0.000 HD
ENDBRANCH  24  25
ENDBRANCH  22  24
BRANCH  22  27
ATOM     27  CB  UNL     1       4.047   5.826  17.302  0.00  0.00    +0.000 C 
BRANCH  27  28
ATOM     28  CG  UNL     1       5.462   6.121  17.743  0.00  0.00    +0.000 A 
ATOM     29  CD1 UNL     1       6.201   7.142  17.130  0.00  0.00    +0.000 A 
ATOM     30  CE1 UNL     1       7.502   7.424  17.546  0.00  0.00    +0.000 A 
ATOM     31  CZ  UNL     1       8.075   6.698  18.587  0.00  0.00    +0.000 A 
ATOM     32  CE2 UNL     1       7.348   5.683  19.209  0.00  0.00    +0.000 A 
ATOM     33  CD2 UNL     1       6.050   5.391  18.786  0.00  0.00    +0.000 A 
ENDBRANCH  27  28
ENDBRANCH  22  27
ENDBRANCH   1  22
TORSDOF 7
ENDMDL
MODEL 8
REMARK VINA RESULT:      -8.1      1.172      1.377
REMARK  Name = 
REMARK  7 active torsions:
REMARK  status: ('A' for Active; 'I' for Inactive)
REMARK    1  A    between atoms: C_2  and  OXT_3
REMARK    2  A    between atoms: C_2  and  CA_4
REMARK    3  A    between atoms: CA_4  and  CB_5
REMARK    4  A    between atoms: CA_4  and  N_12
REMARK    5  A    between atoms: CB_5  and  CG_6
REMARK    6  A    between atoms: C_16  and  C_17
REMARK    7  A    between atoms: C_20  and  C_21
REMARK                            x       y       z     vdW  Elec       q    Type
REMARK                         _______ _______ _______ _____ _____    ______ ____
ROOT
ATOM      1  N   UNL     1       2.664   4.655  19.461  0.00  0.00    +0.000 N 
ATOM      2  C   UNL     1       2.282   5.965  19.258  0.00  0.00    +0.000 C 
ATOM      3  O   UNL     1       2.155   6.563  18.205  0.00  0.00    +0.000 OA
ATOM      4  CA  UNL     1       1.951   6.512  20.614  0.00  0.00    +0.000 C 
ATOM      5  C   UNL     1       1.488   7.727  20.924  0.00  0.00    +0.000 C 
ATOM      6  N   UNL     1       2.147   5.492  21.492  0.00  0.00    +0.000 N 
ATOM      7  C   UNL     1       2.503   4.336  20.807  0.00  0.00    +0.000 C 
ATOM      8  S   UNL     1       2.614   2.879  21.589  0.00  0.00    +0.000 S 
ATOM      9  H   UNL     1       1.952   5.514  22.484  0.00  0.00    +0.000 HD
ENDROOT
BRANCH   5  10
ATOM     10  C   UNL     1       1.173   8.680  19.924  0.00  0.00    +0.000 A 
ATOM     11  C   UNL     1       1.996   9.289  18.988  0.00  0.00    +0.000 A 
ATOM     12  C   UNL     1       1.192  10.149  18.201  0.00  0.00    +0.000 A 
ATOM     13  C   UNL     1      -0.099  10.006  18.657  0.00  0.00    +0.000 A 
ATOM     14  O   UNL     1      -0.107   9.146  19.719  0.00  0.00    +0.000 OA
BRANCH  13  15
ATOM     15  C   UNL     1      -1.396  10.528  18.223  0.00  0.00    +0.000 A 
ATOM     16  C   UNL     1      -2.024  10.018  17.075  0.00  0.00    +0.000 A 
ATOM     17  C   UNL     1      -3.299  10.453  16.694  0.00  0.00    +0.000 A 
ATOM     18  C   UNL     1      -3.958  11.409  17.462  0.00  0.00    +0.000 A 
ATOM     19 CL   UNL     1      -5.544  11.915  17.023  0.00  0.00    +0.000 Cl
ATOM     20  C   UNL     1      -3.347  11.947  18.589  0.00  0.00    +0.000 A 
ATOM     21  C   UNL     1      -2.071  11.512  18.964  0.00  0.00    +0.000 A 
ENDBRANCH  13  15
ENDBRANCH   5  10
BRANCH   1  22
ATOM     22  CA  UNL     1       3.015   3.730  18.355  0.00  0.00    +0.000 C 
BRANCH  22  24
ATOM     23  O   UNL     1       0.748   2.824  18.019  0.00  0.00    +0.000 OA
ATOM     24  C   UNL     1       1.954   2.629  18.100  0.00  0.00    +0.000 C 
BRANCH  24  25
ATOM     25  OXT UNL     1       2.482   1.382  18.019  0.00  0.00    +0.000 OA
ATOM     26  HXT UNL     1       2.062   0.725  18.606  0.00  0.00    +0.000 HD
ENDBRANCH  24  25
ENDBRANCH  22  24
BRANCH  22  27
ATOM     27  CB  UNL     1       3.282   4.484  17.028  0.00  0.00    +0.000 C 
BRANCH  27  28
ATOM     28  CG  UNL     1       4.742   4.600  16.654  0.00  0.00    +0.000 A 
ATOM     29  CD1 UNL     1       5.657   5.199  17.530  0.00  0.00    +0.000 A 
ATOM     30  CE1 UNL     1       7.007   5.293  17.190  0.00  0.00    +0.000 A 
ATOM     31  CZ  UNL     1       7.459   4.780  15.978  0.00  0.00    +0.000 A 
ATOM     32  CE2 UNL     1       6.559   4.178  15.099  0.00  0.00    +0.000 A 
ATOM     33  CD2 UNL     1       5.206   4.093  15.432  0.00  0.00    +0.000 A 
ENDBRANCH  27  28
ENDBRANCH  22  27
ENDBRANCH   1  22
TORSDOF 7
ENDMDL
MODEL 9
REMARK VINA RESULT:      -8.0      3.988      7.876
REMARK  Name = 
REMARK  7 active torsions:
REMARK  status: ('A' for Active; 'I' for Inactive)
REMARK    1  A    between atoms: C_2  and  OXT_3
REMARK    2  A    between atoms: C_2  and  CA_4
REMARK    3  A    between atoms: CA_4  and  CB_5
REMARK    4  A    between atoms: CA_4  and  N_12
REMARK    5  A    between atoms: CB_5  and  CG_6
REMARK    6  A    between atoms: C_16  and  C_17
REMARK    7  A    between atoms: C_20  and  C_21
REMARK                            x       y       z     vdW  Elec       q    Type
REMARK                         _______ _______ _______ _____ _____    ______ ____
ROOT
ATOM      1  N   UNL     1       3.639   4.640  19.149  0.00  0.00    +0.000 N 
ATOM      2  C   UNL     1       4.653   5.395  18.597  0.00  0.00    +0.000 C 
ATOM      3  O   UNL     1       4.584   6.499  18.085  0.00  0.00    +0.000 OA
ATOM      4  CA  UNL     1       5.916   4.624  18.832  0.00  0.00    +0.000 C 
ATOM      5  C   UNL     1       7.167   4.973  18.520  0.00  0.00    +0.000 C 
ATOM      6  N   UNL     1       5.553   3.500  19.507  0.00  0.00    +0.000 N 
ATOM      7  C   UNL     1       4.190   3.527  19.779  0.00  0.00    +0.000 C 
ATOM      8  S   UNL     1       3.492   2.389  20.761  0.00  0.00    +0.000 S 
ATOM      9  H   UNL     1       6.180   2.796  19.874  0.00  0.00    +0.000 HD
ENDROOT
BRANCH   5  10
ATOM     10  C   UNL     1       7.467   6.234  17.947  0.00  0.00    +0.000 A 
ATOM     11  C   UNL     1       7.262   6.693  16.655  0.00  0.00    +0.000 A 
ATOM     12  C   UNL     1       7.714   8.034  16.596  0.00  0.00    +0.000 A 
ATOM     13  C   UNL     1       8.141   8.360  17.864  0.00  0.00    +0.000 A 
ATOM     14  O   UNL     1       8.026   7.264  18.671  0.00  0.00    +0.000 OA
BRANCH  13  15
ATOM     15  C   UNL     1       8.625   9.592  18.490  0.00  0.00    +0.000 A 
ATOM     16  C   UNL     1       9.085   9.585  19.817  0.00  0.00    +0.000 A 
ATOM     17  C   UNL     1       9.623  10.738  20.401  0.00  0.00    +0.000 A 
ATOM     18  C   UNL     1       9.703  11.914  19.659  0.00  0.00    +0.000 A 
ATOM     19 CL   UNL     1      10.403  13.321  20.359  0.00  0.00    +0.000 Cl
ATOM     20  C   UNL     1       9.231  11.951  18.352  0.00  0.00    +0.000 A 
ATOM     21  C   UNL     1       8.691  10.797  17.773  0.00  0.00    +0.000 A 
ENDBRANCH  13  15
ENDBRANCH   5  10
BRANCH   1  22
ATOM     22  CA  UNL     1       2.223   5.083  19.186  0.00  0.00    +0.000 C 
BRANCH  22  24
ATOM     23  O   UNL     1       1.066   3.234  18.037  0.00  0.00    +0.000 OA
ATOM     24  C   UNL     1       1.202   3.926  19.039  0.00  0.00    +0.000 C 
BRANCH  24  25
ATOM     25  OXT UNL     1       0.409   3.765  20.128  0.00  0.00    +0.000 OA
ATOM     26  HXT UNL     1       0.424   2.868  20.511  0.00  0.00    +0.000 HD
ENDBRANCH  24  25
ENDBRANCH  22  24
BRANCH  22  27
ATOM     27  CB  UNL     1       1.896   5.878  20.475  0.00  0.00    +0.000 C 
BRANCH  27  28
ATOM     28  CG  UNL     1       1.561   7.335  20.247  0.00  0.00    +0.000 A 
ATOM     29  CD1 UNL     1       1.030   8.114  21.283  0.00  0.00    +0.000 A 
ATOM     30  CE1 UNL     1       0.734   9.461  21.077  0.00  0.00    +0.000 A 
ATOM     31  CZ  UNL     1       0.976  10.048  19.838  0.00  0.00    +0.000 A 
ATOM     32  CE2 UNL     1       1.509   9.284  18.800  0.00  0.00    +0.000 A 
ATOM     33  CD2 UNL     1       1.794   7.932  19.000  0.00  0.00    +0.000 A 
ENDBRANCH  27  28
ENDBRANCH  22  27
ENDBRANCH   1  22
TORSDOF 7
ENDMDL
