MODEL 1
REMARK VINA RESULT:      -9.1      0.000      0.000
REMARK  Name = 
REMARK  7 active torsions:
REMARK  status: ('A' for Active; 'I' for Inactive)
REMARK    1  A    between atoms: C_1  and  C_2
REMARK    2  A    between atoms: C_4  and  O_5
REMARK    3  A    between atoms: C_7  and  S_8
REMARK    4  A    between atoms: S_8  and  C_9
REMARK    5  A    between atoms: C_9  and  C_10
REMARK    6  A    between atoms: N_18  and  C_19
REMARK    7  A    between atoms: C_19  and  C_20
REMARK                            x       y       z     vdW  Elec       q    Type
REMARK                         _______ _______ _______ _____ _____    ______ ____
ROOT
ATOM      1  C   UNL     1       4.077   5.031  17.561  0.00  0.00    +0.000 A 
ATOM      2  N   UNL     1       3.398   3.919  17.293  0.00  0.00    +0.000 NA
ATOM      3  C   UNL     1       2.533   3.757  18.348  0.00  0.00    +0.000 A 
ATOM      4  C   UNL     1       1.456   2.884  18.538  0.00  0.00    +0.000 A 
ATOM      5  C   UNL     1       0.779   2.926  19.765  0.00  0.00    +0.000 A 
ATOM      6  C   UNL     1       1.221   3.757  20.803  0.00  0.00    +0.000 A 
ATOM      7  C   UNL     1       2.246   4.691  20.603  0.00  0.00    +0.000 A 
ATOM      8  C   UNL     1       2.807   4.714  19.323  0.00  0.00    +0.000 A 
ATOM      9  N   UNL     1       3.340   5.748  18.522  0.00  0.00    +0.000 N 
ENDROOT
BRANCH   1  10
ATOM     10  C   UNL     1       5.178   5.594  16.712  0.00  0.00    +0.000 C 
BRANCH  10  11
ATOM     11  S   UNL     1       6.664   4.558  16.611  0.00  0.00    +0.000 S 
BRANCH  11  17
ATOM     12  C   UNL     1       5.516   2.812  11.984  0.00  0.00    +0.000 C 
ATOM     13  C   UNL     1       6.354   3.766  12.782  0.00  0.00    +0.000 A 
ATOM     14  C   UNL     1       7.247   4.614  12.168  0.00  0.00    +0.000 A 
ATOM     15  C   UNL     1       7.956   5.428  13.019  0.00  0.00    +0.000 A 
ATOM     16  N   UNL     1       7.828   5.440  14.344  0.00  0.00    +0.000 NA
ATOM     17  C   UNL     1       6.933   4.587  14.858  0.00  0.00    +0.000 A 
ATOM     18  N   UNL     1       6.193   3.740  14.120  0.00  0.00    +0.000 NA
BRANCH  15  19
ATOM     19  O   UNL     1       8.871   6.313  12.531  0.00  0.00    +0.000 OA
ATOM     20  H   UNL     1       9.587   6.419  13.172  0.00  0.00    +0.000 HD
ENDBRANCH  15  19
ENDBRANCH  11  17
ENDBRANCH  10  11
ENDBRANCH   1  10
BRANCH   9  21
ATOM     21  C   UNL     1       2.318   6.694  17.991  0.00  0.00    +0.000 C 
BRANCH  21  22
ATOM     22  C   UNL     1       2.054   8.007  18.669  0.00  0.00    +0.000 A 
ATOM     23  C   UNL     1       2.033   9.144  17.847  0.00  0.00    +0.000 A 
ATOM     24  C   UNL     1       1.520  10.359  18.308  0.00  0.00    +0.000 A 
ATOM     25  C   UNL     1       1.031  10.449  19.606  0.00  0.00    +0.000 A 
ATOM     26  C   UNL     1       1.080   9.329  20.446  0.00  0.00    +0.000 A 
ATOM     27  C   UNL     1       1.583   8.114  19.984  0.00  0.00    +0.000 A 
ENDBRANCH  21  22
ENDBRANCH   9  21
TORSDOF 6
ENDMDL
MODEL 2
REMARK VINA RESULT:      -8.8      2.756      3.756
REMARK  Name = 
REMARK  7 active torsions:
REMARK  status: ('A' for Active; 'I' for Inactive)
REMARK    1  A    between atoms: C_1  and  C_2
REMARK    2  A    between atoms: C_4  and  O_5
REMARK    3  A    between atoms: C_7  and  S_8
REMARK    4  A    between atoms: S_8  and  C_9
REMARK    5  A    between atoms: C_9  and  C_10
REMARK    6  A    between atoms: N_18  and  C_19
REMARK    7  A    between atoms: C_19  and  C_20
REMARK                            x       y       z     vdW  Elec       q    Type
REMARK                         _______ _______ _______ _____ _____    ______ ____
ROOT
ATOM      1  C   UNL     1       3.831   4.221  17.375  0.00  0.00    +0.000 A 
ATOM      2  N   UNL     1       2.510   4.073  17.410  0.00  0.00    +0.000 NA
ATOM      3  C   UNL     1       2.225   3.650  18.686  0.00  0.00    +0.000 A 
ATOM      4  C   UNL     1       1.010   3.506  19.365  0.00  0.00    +0.000 A 
ATOM      5  C   UNL     1       1.037   2.999  20.671  0.00  0.00    +0.000 A 
ATOM      6  C   UNL     1       2.238   2.567  21.250  0.00  0.00    +0.000 A 
ATOM      7  C   UNL     1       3.470   2.777  20.616  0.00  0.00    +0.000 A 
ATOM      8  C   UNL     1       3.414   3.411  19.372  0.00  0.00    +0.000 A 
ATOM      9  N   UNL     1       4.277   4.310  18.708  0.00  0.00    +0.000 N 
ENDROOT
BRANCH   1  10
ATOM     10  C   UNL     1       4.621   4.627  16.165  0.00  0.00    +0.000 C 
BRANCH  10  11
ATOM     11  S   UNL     1       6.321   3.997  16.124  0.00  0.00    +0.000 S 
BRANCH  11  17
ATOM     12  C   UNL     1       7.594   8.754  17.357  0.00  0.00    +0.000 C 
ATOM     13  C   UNL     1       7.622   7.313  17.767  0.00  0.00    +0.000 A 
ATOM     14  C   UNL     1       8.191   6.922  18.959  0.00  0.00    +0.000 A 
ATOM     15  C   UNL     1       8.156   5.570  19.204  0.00  0.00    +0.000 A 
ATOM     16  N   UNL     1       7.625   4.661  18.389  0.00  0.00    +0.000 NA
ATOM     17  C   UNL     1       7.089   5.128  17.255  0.00  0.00    +0.000 A 
ATOM     18  N   UNL     1       7.075   6.428  16.909  0.00  0.00    +0.000 NA
BRANCH  15  19
ATOM     19  O   UNL     1       8.688   5.060  20.352  0.00  0.00    +0.000 OA
ATOM     20  H   UNL     1       8.576   4.099  20.357  0.00  0.00    +0.000 HD
ENDBRANCH  15  19
ENDBRANCH  11  17
ENDBRANCH  10  11
ENDBRANCH   1  10
BRANCH   9  21
ATOM     21  C   UNL     1       4.302   5.678  19.299  0.00  0.00    +0.000 C 
BRANCH  21  22
ATOM     22  C   UNL     1       3.243   6.685  18.958  0.00  0.00    +0.000 A 
ATOM     23  C   UNL     1       2.321   6.992  19.971  0.00  0.00    +0.000 A 
ATOM     24  C   UNL     1       1.484   8.106  19.873  0.00  0.00    +0.000 A 
ATOM     25  C   UNL     1       1.555   8.920  18.749  0.00  0.00    +0.000 A 
ATOM     26  C   UNL     1       2.446   8.603  17.716  0.00  0.00    +0.000 A 
ATOM     27  C   UNL     1       3.288   7.497  17.817  0.00  0.00    +0.000 A 
ENDBRANCH  21  22
ENDBRANCH   9  21
TORSDOF 6
ENDMDL
MODEL 3
REMARK VINA RESULT:      -8.4      1.059      1.653
REMARK  Name = 
REMARK  7 active torsions:
REMARK  status: ('A' for Active; 'I' for Inactive)
REMARK    1  A    between atoms: C_1  and  C_2
REMARK    2  A    between atoms: C_4  and  O_5
REMARK    3  A    between atoms: C_7  and  S_8
REMARK    4  A    between atoms: S_8  and  C_9
REMARK    5  A    between atoms: C_9  and  C_10
REMARK    6  A    between atoms: N_18  and  C_19
REMARK    7  A    between atoms: C_19  and  C_20
REMARK                            x       y       z     vdW  Elec       q    Type
REMARK                         _______ _______ _______ _____ _____    ______ ____
ROOT
ATOM      1  C   UNL     1       4.352   5.053  17.814  0.00  0.00    +0.000 A 
ATOM      2  N   UNL     1       3.744   3.919  17.478  0.00  0.00    +0.000 NA
ATOM      3  C   UNL     1       2.801   3.707  18.455  0.00  0.00    +0.000 A 
ATOM      4  C   UNL     1       1.749   2.788  18.544  0.00  0.00    +0.000 A 
ATOM      5  C   UNL     1       0.970   2.785  19.709  0.00  0.00    +0.000 A 
ATOM      6  C   UNL     1       1.289   3.618  20.790  0.00  0.00    +0.000 A 
ATOM      7  C   UNL     1       2.287   4.596  20.687  0.00  0.00    +0.000 A 
ATOM      8  C   UNL     1       2.952   4.660  19.460  0.00  0.00    +0.000 A 
ATOM      9  N   UNL     1       3.507   5.726  18.718  0.00  0.00    +0.000 N 
ENDROOT
BRANCH   1  10
ATOM     10  C   UNL     1       5.495   5.672  17.067  0.00  0.00    +0.000 C 
BRANCH  10  11
ATOM     11  S   UNL     1       6.922   4.578  16.822  0.00  0.00    +0.000 S 
BRANCH  11  17
ATOM     12  C   UNL     1       8.720   6.270  12.386  0.00  0.00    +0.000 C 
ATOM     13  C   UNL     1       7.807   5.296  13.068  0.00  0.00    +0.000 A 
ATOM     14  C   UNL     1       7.059   4.394  12.346  0.00  0.00    +0.000 A 
ATOM     15  C   UNL     1       6.257   3.568  13.098  0.00  0.00    +0.000 A 
ATOM     16  N   UNL     1       6.172   3.593  14.426  0.00  0.00    +0.000 NA
ATOM     17  C   UNL     1       6.937   4.497  15.050  0.00  0.00    +0.000 A 
ATOM     18  N   UNL     1       7.750   5.360  14.414  0.00  0.00    +0.000 NA
BRANCH  15  19
ATOM     19  O   UNL     1       5.469   2.632  12.497  0.00  0.00    +0.000 OA
ATOM     20  H   UNL     1       5.250   1.940  13.136  0.00  0.00    +0.000 HD
ENDBRANCH  15  19
ENDBRANCH  11  17
ENDBRANCH  10  11
ENDBRANCH   1  10
BRANCH   9  21
ATOM     21  C   UNL     1       2.495   6.638  18.112  0.00  0.00    +0.000 C 
BRANCH  21  22
ATOM     22  C   UNL     1       2.135   7.937  18.770  0.00  0.00    +0.000 A 
ATOM     23  C   UNL     1       2.038   9.059  17.931  0.00  0.00    +0.000 A 
ATOM     24  C   UNL     1       1.438  10.240  18.371  0.00  0.00    +0.000 A 
ATOM     25  C   UNL     1       0.936  10.314  19.665  0.00  0.00    +0.000 A 
ATOM     26  C   UNL     1       1.059   9.213  20.522  0.00  0.00    +0.000 A 
ATOM     27  C   UNL     1       1.650   8.031  20.081  0.00  0.00    +0.000 A 
ENDBRANCH  21  22
ENDBRANCH   9  21
TORSDOF 6
ENDMDL
MODEL 4
REMARK VINA RESULT:      -8.3      3.760      8.000
REMARK  Name = 
REMARK  7 active torsions:
REMARK  status: ('A' for Active; 'I' for Inactive)
REMARK    1  A    between atoms: C_1  and  C_2
REMARK    2  A    between atoms: C_4  and  O_5
REMARK    3  A    between atoms: C_7  and  S_8
REMARK    4  A    between atoms: S_8  and  C_9
REMARK    5  A    between atoms: C_9  and  C_10
REMARK    6  A    between atoms: N_18  and  C_19
REMARK    7  A    between atoms: C_19  and  C_20
REMARK                            x       y       z     vdW  Elec       q    Type
REMARK                         _______ _______ _______ _____ _____    ______ ____
ROOT
ATOM      1  C   UNL     1       3.687   6.819  17.800  0.00  0.00    +0.000 A 
ATOM      2  N   UNL     1       4.169   6.994  16.572  0.00  0.00    +0.000 NA
ATOM      3  C   UNL     1       5.221   6.117  16.465  0.00  0.00    +0.000 A 
ATOM      4  C   UNL     1       5.988   5.719  15.364  0.00  0.00    +0.000 A 
ATOM      5  C   UNL     1       7.045   4.825  15.582  0.00  0.00    +0.000 A 
ATOM      6  C   UNL     1       7.378   4.408  16.878  0.00  0.00    +0.000 A 
ATOM      7  C   UNL     1       6.575   4.732  17.979  0.00  0.00    +0.000 A 
ATOM      8  C   UNL     1       5.451   5.515  17.701  0.00  0.00    +0.000 A 
ATOM      9  N   UNL     1       4.153   5.571  18.257  0.00  0.00    +0.000 N 
ENDROOT
BRANCH   1  10
ATOM     10  C   UNL     1       2.552   7.596  18.399  0.00  0.00    +0.000 C 
BRANCH  10  11
ATOM     11  S   UNL     1       2.095   7.094  20.081  0.00  0.00    +0.000 S 
BRANCH  11  17
ATOM     12  C   UNL     1      -0.224  11.460  18.924  0.00  0.00    +0.000 C 
ATOM     13  C   UNL     1       0.184  10.519  20.018  0.00  0.00    +0.000 A 
ATOM     14  C   UNL     1      -0.117  10.785  21.335  0.00  0.00    +0.000 A 
ATOM     15  C   UNL     1       0.326   9.844  22.234  0.00  0.00    +0.000 A 
ATOM     16  N   UNL     1       0.996   8.740  21.913  0.00  0.00    +0.000 NA
ATOM     17  C   UNL     1       1.242   8.557  20.610  0.00  0.00    +0.000 A 
ATOM     18  N   UNL     1       0.864   9.416  19.646  0.00  0.00    +0.000 NA
BRANCH  15  19
ATOM     19  O   UNL     1       0.089   9.995  23.568  0.00  0.00    +0.000 OA
ATOM     20  H   UNL     1      -0.861   9.914  23.736  0.00  0.00    +0.000 HD
ENDBRANCH  15  19
ENDBRANCH  11  17
ENDBRANCH  10  11
ENDBRANCH   1  10
BRANCH   9  21
ATOM     21  C   UNL     1       3.299   4.395  17.929  0.00  0.00    +0.000 C 
BRANCH  21  22
ATOM     22  C   UNL     1       2.594   3.628  19.010  0.00  0.00    +0.000 A 
ATOM     23  C   UNL     1       3.371   3.247  20.116  0.00  0.00    +0.000 A 
ATOM     24  C   UNL     1       2.775   2.793  21.294  0.00  0.00    +0.000 A 
ATOM     25  C   UNL     1       1.390   2.706  21.373  0.00  0.00    +0.000 A 
ATOM     26  C   UNL     1       0.607   3.050  20.264  0.00  0.00    +0.000 A 
ATOM     27  C   UNL     1       1.201   3.512  19.090  0.00  0.00    +0.000 A 
ENDBRANCH  21  22
ENDBRANCH   9  21
TORSDOF 6
ENDMDL
MODEL 5
REMARK VINA RESULT:      -8.3      3.924      7.954
REMARK  Name = 
REMARK  7 active torsions:
REMARK  status: ('A' for Active; 'I' for Inactive)
REMARK    1  A    between atoms: C_1  and  C_2
REMARK    2  A    between atoms: C_4  and  O_5
REMARK    3  A    between atoms: C_7  and  S_8
REMARK    4  A    between atoms: S_8  and  C_9
REMARK    5  A    between atoms: C_9  and  C_10
REMARK    6  A    between atoms: N_18  and  C_19
REMARK    7  A    between atoms: C_19  and  C_20
REMARK                            x       y       z     vdW  Elec       q    Type
REMARK                         _______ _______ _______ _____ _____    ______ ____
ROOT
ATOM      1  C   UNL     1       1.973   6.539  19.807  0.00  0.00    +0.000 A 
ATOM      2  N   UNL     1       1.616   5.632  20.711  0.00  0.00    +0.000 NA
ATOM      3  C   UNL     1       1.720   4.420  20.072  0.00  0.00    +0.000 A 
ATOM      4  C   UNL     1       1.654   3.108  20.556  0.00  0.00    +0.000 A 
ATOM      5  C   UNL     1       1.753   2.057  19.634  0.00  0.00    +0.000 A 
ATOM      6  C   UNL     1       1.828   2.312  18.258  0.00  0.00    +0.000 A 
ATOM      7  C   UNL     1       1.975   3.615  17.764  0.00  0.00    +0.000 A 
ATOM      8  C   UNL     1       2.009   4.629  18.725  0.00  0.00    +0.000 A 
ATOM      9  N   UNL     1       2.690   5.864  18.799  0.00  0.00    +0.000 N 
ENDROOT
BRANCH   1  10
ATOM     10  C   UNL     1       1.973   8.023  20.028  0.00  0.00    +0.000 C 
BRANCH  10  11
ATOM     11  S   UNL     1       1.683   9.012  18.535  0.00  0.00    +0.000 S 
BRANCH  11  17
ATOM     12  C   UNL     1      -0.769  11.103  22.458  0.00  0.00    +0.000 C 
ATOM     13  C   UNL     1      -0.632  11.041  20.966  0.00  0.00    +0.000 A 
ATOM     14  C   UNL     1      -1.421  11.816  20.146  0.00  0.00    +0.000 A 
ATOM     15  C   UNL     1      -1.196  11.652  18.799  0.00  0.00    +0.000 A 
ATOM     16  N   UNL     1      -0.297  10.824  18.272  0.00  0.00    +0.000 NA
ATOM     17  C   UNL     1       0.431  10.113  19.142  0.00  0.00    +0.000 A 
ATOM     18  N   UNL     1       0.290  10.187  20.477  0.00  0.00    +0.000 NA
BRANCH  15  19
ATOM     19  O   UNL     1      -1.915  12.364  17.885  0.00  0.00    +0.000 OA
ATOM     20  H   UNL     1      -2.784  12.572  18.255  0.00  0.00    +0.000 HD
ENDBRANCH  15  19
ENDBRANCH  11  17
ENDBRANCH  10  11
ENDBRANCH   1  10
BRANCH   9  21
ATOM     21  C   UNL     1       4.159   5.738  19.016  0.00  0.00    +0.000 C 
BRANCH  21  22
ATOM     22  C   UNL     1       5.067   5.294  17.906  0.00  0.00    +0.000 A 
ATOM     23  C   UNL     1       4.762   5.767  16.620  0.00  0.00    +0.000 A 
ATOM     24  C   UNL     1       5.682   5.662  15.575  0.00  0.00    +0.000 A 
ATOM     25  C   UNL     1       6.918   5.069  15.806  0.00  0.00    +0.000 A 
ATOM     26  C   UNL     1       7.218   4.562  17.076  0.00  0.00    +0.000 A 
ATOM     27  C   UNL     1       6.304   4.674  18.122  0.00  0.00    +0.000 A 
ENDBRANCH  21  22
ENDBRANCH   9  21
TORSDOF 6
ENDMDL
MODEL 6
REMARK VINA RESULT:      -8.3      3.421      7.932
REMARK  Name = 
REMARK  7 active torsions:
REMARK  status: ('A' for Active; 'I' for Inactive)
REMARK    1  A    between atoms: C_1  and  C_2
REMARK    2  A    between atoms: C_4  and  O_5
REMARK    3  A    between atoms: C_7  and  S_8
REMARK    4  A    between atoms: S_8  and  C_9
REMARK    5  A    between atoms: C_9  and  C_10
REMARK    6  A    between atoms: N_18  and  C_19
REMARK    7  A    between atoms: C_19  and  C_20
REMARK                            x       y       z     vdW  Elec       q    Type
REMARK                         _______ _______ _______ _____ _____    ______ ____
ROOT
ATOM      1  C   UNL     1       3.717   6.926  17.714  0.00  0.00    +0.000 A 
ATOM      2  N   UNL     1       4.316   7.019  16.531  0.00  0.00    +0.000 NA
ATOM      3  C   UNL     1       5.372   6.142  16.586  0.00  0.00    +0.000 A 
ATOM      4  C   UNL     1       6.242   5.675  15.595  0.00  0.00    +0.000 A 
ATOM      5  C   UNL     1       7.272   4.802  15.975  0.00  0.00    +0.000 A 
ATOM      6  C   UNL     1       7.477   4.476  17.323  0.00  0.00    +0.000 A 
ATOM      7  C   UNL     1       6.570   4.871  18.315  0.00  0.00    +0.000 A 
ATOM      8  C   UNL     1       5.480   5.627  17.877  0.00  0.00    +0.000 A 
ATOM      9  N   UNL     1       4.135   5.714  18.299  0.00  0.00    +0.000 N 
ENDROOT
BRANCH   1  10
ATOM     10  C   UNL     1       2.530   7.735  18.146  0.00  0.00    +0.000 C 
BRANCH  10  11
ATOM     11  S   UNL     1       2.027   7.484  19.870  0.00  0.00    +0.000 S 
BRANCH  11  17
ATOM     12  C   UNL     1      -0.752  10.418  22.942  0.00  0.00    +0.000 C 
ATOM     13  C   UNL     1      -0.198  10.236  21.561  0.00  0.00    +0.000 A 
ATOM     14  C   UNL     1      -0.435  11.163  20.571  0.00  0.00    +0.000 A 
ATOM     15  C   UNL     1       0.125  10.866  19.351  0.00  0.00    +0.000 A 
ATOM     16  N   UNL     1       0.852   9.782  19.090  0.00  0.00    +0.000 NA
ATOM     17  C   UNL     1       1.038   8.936  20.111  0.00  0.00    +0.000 A 
ATOM     18  N   UNL     1       0.530   9.123  21.342  0.00  0.00    +0.000 NA
BRANCH  15  19
ATOM     19  O   UNL     1      -0.040  11.707  18.290  0.00  0.00    +0.000 OA
ATOM     20  H   UNL     1      -0.896  12.151  18.364  0.00  0.00    +0.000 HD
ENDBRANCH  15  19
ENDBRANCH  11  17
ENDBRANCH  10  11
ENDBRANCH   1  10
BRANCH   9  21
ATOM     21  C   UNL     1       3.315   4.514  17.970  0.00  0.00    +0.000 C 
BRANCH  21  22
ATOM     22  C   UNL     1       2.617   3.738  19.049  0.00  0.00    +0.000 A 
ATOM     23  C   UNL     1       3.431   3.182  20.048  0.00  0.00    +0.000 A 
ATOM     24  C   UNL     1       2.884   2.696  21.238  0.00  0.00    +0.000 A 
ATOM     25  C   UNL     1       1.510   2.752  21.434  0.00  0.00    +0.000 A 
ATOM     26  C   UNL     1       0.684   3.272  20.429  0.00  0.00    +0.000 A 
ATOM     27  C   UNL     1       1.230   3.765  19.245  0.00  0.00    +0.000 A 
ENDBRANCH  21  22
ENDBRANCH   9  21
TORSDOF 6
ENDMDL
MODEL 7
REMARK VINA RESULT:      -8.2      4.119      7.966
REMARK  Name = 
REMARK  7 active torsions:
REMARK  status: ('A' for Active; 'I' for Inactive)
REMARK    1  A    between atoms: C_1  and  C_2
REMARK    2  A    between atoms: C_4  and  O_5
REMARK    3  A    between atoms: C_7  and  S_8
REMARK    4  A    between atoms: S_8  and  C_9
REMARK    5  A    between atoms: C_9  and  C_10
REMARK    6  A    between atoms: N_18  and  C_19
REMARK    7  A    between atoms: C_19  and  C_20
REMARK                            x       y       z     vdW  Elec       q    Type
REMARK                         _______ _______ _______ _____ _____    ______ ____
ROOT
ATOM      1  C   UNL     1       1.980   6.513  19.877  0.00  0.00    +0.000 A 
ATOM      2  N   UNL     1       1.602   5.569  20.735  0.00  0.00    +0.000 NA
ATOM      3  C   UNL     1       1.725   4.384  20.050  0.00  0.00    +0.000 A 
ATOM      4  C   UNL     1       1.650   3.054  20.479  0.00  0.00    +0.000 A 
ATOM      5  C   UNL     1       1.773   2.041  19.519  0.00  0.00    +0.000 A 
ATOM      6  C   UNL     1       1.882   2.351  18.156  0.00  0.00    +0.000 A 
ATOM      7  C   UNL     1       2.038   3.672  17.719  0.00  0.00    +0.000 A 
ATOM      8  C   UNL     1       2.047   4.647  18.721  0.00  0.00    +0.000 A 
ATOM      9  N   UNL     1       2.723   5.879  18.861  0.00  0.00    +0.000 N 
ENDROOT
BRANCH   1  10
ATOM     10  C   UNL     1       1.971   7.986  20.157  0.00  0.00    +0.000 C 
BRANCH  10  11
ATOM     11  S   UNL     1       0.705   8.526  21.338  0.00  0.00    +0.000 S 
BRANCH  11  17
ATOM     12  C   UNL     1      -1.589  11.677  18.085  0.00  0.00    +0.000 C 
ATOM     13  C   UNL     1      -0.659  11.557  19.255  0.00  0.00    +0.000 A 
ATOM     14  C   UNL     1      -0.090  12.671  19.830  0.00  0.00    +0.000 A 
ATOM     15  C   UNL     1       0.749  12.415  20.888  0.00  0.00    +0.000 A 
ATOM     16  N   UNL     1       1.027  11.203  21.364  0.00  0.00    +0.000 NA
ATOM     17  C   UNL     1       0.428  10.176  20.749  0.00  0.00    +0.000 A 
ATOM     18  N   UNL     1      -0.404  10.310  19.701  0.00  0.00    +0.000 NA
BRANCH  15  19
ATOM     19  O   UNL     1       1.373  13.437  21.541  0.00  0.00    +0.000 OA
ATOM     20  H   UNL     1       2.320  13.410  21.345  0.00  0.00    +0.000 HD
ENDBRANCH  15  19
ENDBRANCH  11  17
ENDBRANCH  10  11
ENDBRANCH   1  10
BRANCH   9  21
ATOM     21  C   UNL     1       4.187   5.746  19.108  0.00  0.00    +0.000 C 
BRANCH  21  22
ATOM     22  C   UNL     1       5.157   5.662  17.967  0.00  0.00    +0.000 A 
ATOM     23  C   UNL     1       6.372   5.007  18.225  0.00  0.00    +0.000 A 
ATOM     24  C   UNL     1       7.217   4.617  17.183  0.00  0.00    +0.000 A 
ATOM     25  C   UNL     1       6.858   4.891  15.869  0.00  0.00    +0.000 A 
ATOM     26  C   UNL     1       5.665   5.575  15.603  0.00  0.00    +0.000 A 
ATOM     27  C   UNL     1       4.817   5.956  16.641  0.00  0.00    +0.000 A 
ENDBRANCH  21  22
ENDBRANCH   9  21
TORSDOF 6
ENDMDL
MODEL 8
REMARK VINA RESULT:      -8.1      3.734      7.886
REMARK  Name = 
REMARK  7 active torsions:
REMARK  status: ('A' for Active; 'I' for Inactive)
REMARK    1  A    between atoms: C_1  and  C_2
REMARK    2  A    between atoms: C_4  and  O_5
REMARK    3  A    between atoms: C_7  and  S_8
REMARK    4  A    between atoms: S_8  and  C_9
REMARK    5  A    between atoms: C_9  and  C_10
REMARK    6  A    between atoms: N_18  and  C_19
REMARK    7  A    between atoms: C_19  and  C_20
REMARK                            x       y       z     vdW  Elec       q    Type
REMARK                         _______ _______ _______ _____ _____    ______ ____
ROOT
ATOM      1  C   UNL     1       2.223   6.306  19.583  0.00  0.00    +0.000 A 
ATOM      2  N   UNL     1       2.094   5.309  20.453  0.00  0.00    +0.000 NA
ATOM      3  C   UNL     1       2.371   4.166  19.742  0.00  0.00    +0.000 A 
ATOM      4  C   UNL     1       2.573   2.844  20.154  0.00  0.00    +0.000 A 
ATOM      5  C   UNL     1       2.797   1.871  19.170  0.00  0.00    +0.000 A 
ATOM      6  C   UNL     1       2.736   2.198  17.808  0.00  0.00    +0.000 A 
ATOM      7  C   UNL     1       2.614   3.527  17.381  0.00  0.00    +0.000 A 
ATOM      8  C   UNL     1       2.530   4.485  18.395  0.00  0.00    +0.000 A 
ATOM      9  N   UNL     1       2.981   5.820  18.501  0.00  0.00    +0.000 N 
ENDROOT
BRANCH   1  10
ATOM     10  C   UNL     1       1.972   7.753  19.887  0.00  0.00    +0.000 C 
BRANCH  10  11
ATOM     11  S   UNL     1       1.870   8.828  18.430  0.00  0.00    +0.000 S 
BRANCH  11  17
ATOM     12  C   UNL     1      -0.731  10.912  22.260  0.00  0.00    +0.000 C 
ATOM     13  C   UNL     1      -0.480  10.910  20.782  0.00  0.00    +0.000 A 
ATOM     14  C   UNL     1      -1.144  11.779  19.945  0.00  0.00    +0.000 A 
ATOM     15  C   UNL     1      -0.825  11.662  18.613  0.00  0.00    +0.000 A 
ATOM     16  N   UNL     1       0.052  10.794  18.113  0.00  0.00    +0.000 NA
ATOM     17  C   UNL     1       0.656   9.991  18.997  0.00  0.00    +0.000 A 
ATOM     18  N   UNL     1       0.414  10.012  20.320  0.00  0.00    +0.000 NA
BRANCH  15  19
ATOM     19  O   UNL     1      -1.417  12.468  17.686  0.00  0.00    +0.000 OA
ATOM     20  H   UNL     1      -1.612  11.952  16.891  0.00  0.00    +0.000 HD
ENDBRANCH  15  19
ENDBRANCH  11  17
ENDBRANCH  10  11
ENDBRANCH   1  10
BRANCH   9  21
ATOM     21  C   UNL     1       4.461   5.953  18.626  0.00  0.00    +0.000 C 
BRANCH  21  22
ATOM     22  C   UNL     1       5.360   5.709  17.450  0.00  0.00    +0.000 A 
ATOM     23  C   UNL     1       6.468   4.876  17.670  0.00  0.00    +0.000 A 
ATOM     24  C   UNL     1       7.200   4.350  16.604  0.00  0.00    +0.000 A 
ATOM     25  C   UNL     1       6.835   4.665  15.300  0.00  0.00    +0.000 A 
ATOM     26  C   UNL     1       5.753   5.524  15.070  0.00  0.00    +0.000 A 
ATOM     27  C   UNL     1       5.016   6.042  16.134  0.00  0.00    +0.000 A 
ENDBRANCH  21  22
ENDBRANCH   9  21
TORSDOF 6
ENDMDL
MODEL 9
REMARK VINA RESULT:      -8.1      3.792      7.477
REMARK  Name = 
REMARK  7 active torsions:
REMARK  status: ('A' for Active; 'I' for Inactive)
REMARK    1  A    between atoms: C_1  and  C_2
REMARK    2  A    between atoms: C_4  and  O_5
REMARK    3  A    between atoms: C_7  and  S_8
REMARK    4  A    between atoms: S_8  and  C_9
REMARK    5  A    between atoms: C_9  and  C_10
REMARK    6  A    between atoms: N_18  and  C_19
REMARK    7  A    between atoms: C_19  and  C_20
REMARK                            x       y       z     vdW  Elec       q    Type
REMARK                         _______ _______ _______ _____ _____    ______ ____
ROOT
ATOM      1  C   UNL     1       1.985   6.651  19.653  0.00  0.00    +0.000 A 
ATOM      2  N   UNL     1       1.658   5.947  20.732  0.00  0.00    +0.000 NA
ATOM      3  C   UNL     1       1.611   4.639  20.314  0.00  0.00    +0.000 A 
ATOM      4  C   UNL     1       1.502   3.440  21.029  0.00  0.00    +0.000 A 
ATOM      5  C   UNL     1       1.433   2.242  20.305  0.00  0.00    +0.000 A 
ATOM      6  C   UNL     1       1.386   2.249  18.904  0.00  0.00    +0.000 A 
ATOM      7  C   UNL     1       1.574   3.430  18.174  0.00  0.00    +0.000 A 
ATOM      8  C   UNL     1       1.777   4.587  18.932  0.00  0.00    +0.000 A 
ATOM      9  N   UNL     1       2.546   5.753  18.724  0.00  0.00    +0.000 N 
ENDROOT
BRANCH   1  10
ATOM     10  C   UNL     1       2.111   8.145  19.604  0.00  0.00    +0.000 C 
BRANCH  10  11
ATOM     11  S   UNL     1       2.008   8.860  17.940  0.00  0.00    +0.000 S 
BRANCH  11  17
ATOM     12  C   UNL     1      -2.913  10.013  17.467  0.00  0.00    +0.000 C 
ATOM     13  C   UNL     1      -1.572  10.464  17.960  0.00  0.00    +0.000 A 
ATOM     14  C   UNL     1      -1.414  11.683  18.583  0.00  0.00    +0.000 A 
ATOM     15  C   UNL     1      -0.129  11.973  18.976  0.00  0.00    +0.000 A 
ATOM     16  N   UNL     1       0.921  11.175  18.796  0.00  0.00    +0.000 NA
ATOM     17  C   UNL     1       0.678  10.008  18.188  0.00  0.00    +0.000 A 
ATOM     18  N   UNL     1      -0.537   9.625  17.755  0.00  0.00    +0.000 NA
BRANCH  15  19
ATOM     19  O   UNL     1       0.154  13.150  19.603  0.00  0.00    +0.000 OA
ATOM     20  H   UNL     1       0.186  13.004  20.559  0.00  0.00    +0.000 HD
ENDBRANCH  15  19
ENDBRANCH  11  17
ENDBRANCH  10  11
ENDBRANCH   1  10
BRANCH   9  21
ATOM     21  C   UNL     1       4.017   5.538  18.830  0.00  0.00    +0.000 C 
BRANCH  21  22
ATOM     22  C   UNL     1       4.867   5.393  17.601  0.00  0.00    +0.000 A 
ATOM     23  C   UNL     1       6.033   6.173  17.551  0.00  0.00    +0.000 A 
ATOM     24  C   UNL     1       7.034   5.915  16.611  0.00  0.00    +0.000 A 
ATOM     25  C   UNL     1       6.870   4.876  15.702  0.00  0.00    +0.000 A 
ATOM     26  C   UNL     1       5.695   4.115  15.721  0.00  0.00    +0.000 A 
ATOM     27  C   UNL     1       4.700   4.366  16.664  0.00  0.00    +0.000 A 
ENDBRANCH  21  22
ENDBRANCH   9  21
TORSDOF 6
ENDMDL
