MODEL 1
REMARK VINA RESULT:      -7.2      0.000      0.000
REMARK  Name = 
REMARK  5 active torsions:
REMARK  status: ('A' for Active; 'I' for Inactive)
REMARK    1  A    between atoms: C_2  and  C_3
REMARK    2  A    between atoms: C_3  and  C_4
REMARK    3  A    between atoms: N_12  and  O_13
REMARK    4  A    between atoms: O_13  and  C_14
REMARK    5  A    between atoms: C_14  and  C_16
REMARK                            x       y       z     vdW  Elec       q    Type
REMARK                         _______ _______ _______ _____ _____    ______ ____
ROOT
ATOM      1  N   UNL     1       8.227   4.113  17.797  0.00  0.00    +0.000 NA
ATOM      2  C   UNL     1       7.483   5.166  17.957  0.00  0.00    +0.000 C 
ATOM      3  N   UNL     1       7.370   6.136  16.990  0.00  0.00    +0.000 N 
ATOM      4  H   UNL     1       8.211   3.512  18.627  0.00  0.00    +0.000 HD
ATOM      5  H   UNL     1       6.592   6.798  17.063  0.00  0.00    +0.000 HD
ENDROOT
BRANCH   2   6
ATOM      6  C   UNL     1       6.698   5.372  19.260  0.00  0.00    +0.000 C 
BRANCH   6   7
ATOM      7  C   UNL     1       5.257   4.895  19.218  0.00  0.00    +0.000 A 
ATOM      8  C   UNL     1       4.182   5.769  19.420  0.00  0.00    +0.000 A 
ATOM      9  C   UNL     1       2.860   5.322  19.309  0.00  0.00    +0.000 A 
ATOM     10  C   UNL     1       2.587   3.992  18.987  0.00  0.00    +0.000 A 
ATOM     11 CL   UNL     1       0.931   3.519  18.854  0.00  0.00    +0.000 Cl
ATOM     12  C   UNL     1       3.645   3.104  18.779  0.00  0.00    +0.000 A 
ATOM     13 CL   UNL     1       3.388   1.438  18.393  0.00  0.00    +0.000 Cl
ATOM     14  C   UNL     1       4.970   3.557  18.884  0.00  0.00    +0.000 A 
ENDBRANCH   6   7
ENDBRANCH   2   6
BRANCH   3  15
ATOM     15  O   UNL     1       7.542   5.649  15.672  0.00  0.00    +0.000 OA
BRANCH  15  16
ATOM     16  C   UNL     1       6.344   5.618  14.994  0.00  0.00    +0.000 C 
ATOM     17  O   UNL     1       5.363   6.255  15.385  0.00  0.00    +0.000 OA
BRANCH  16  18
ATOM     18  C   UNL     1       6.410   4.753  13.835  0.00  0.00    +0.000 A 
ATOM     19  C   UNL     1       5.623   3.677  13.463  0.00  0.00    +0.000 A 
ATOM     20  C   UNL     1       6.042   3.090  12.229  0.00  0.00    +0.000 A 
ATOM     21  C   UNL     1       7.136   3.732  11.698  0.00  0.00    +0.000 A 
ATOM     22  S   UNL     1       7.644   5.041  12.671  0.00  0.00    +0.000 S 
ENDBRANCH  16  18
ENDBRANCH  15  16
ENDBRANCH   3  15
TORSDOF 5
ENDMDL
MODEL 2
REMARK VINA RESULT:      -7.0      4.128      6.373
REMARK  Name = 
REMARK  5 active torsions:
REMARK  status: ('A' for Active; 'I' for Inactive)
REMARK    1  A    between atoms: C_2  and  C_3
REMARK    2  A    between atoms: C_3  and  C_4
REMARK    3  A    between atoms: N_12  and  O_13
REMARK    4  A    between atoms: O_13  and  C_14
REMARK    5  A    between atoms: C_14  and  C_16
REMARK                            x       y       z     vdW  Elec       q    Type
REMARK                         _______ _______ _______ _____ _____    ______ ____
ROOT
ATOM      1  N   UNL     1       7.172   5.321  19.839  0.00  0.00    +0.000 NA
ATOM      2  C   UNL     1       6.383   5.020  18.852  0.00  0.00    +0.000 C 
ATOM      3  N   UNL     1       5.611   3.882  18.852  0.00  0.00    +0.000 N 
ATOM      4  H   UNL     1       7.686   6.189  19.657  0.00  0.00    +0.000 HD
ATOM      5  H   UNL     1       4.839   3.826  18.182  0.00  0.00    +0.000 HD
ENDROOT
BRANCH   2   6
ATOM      6  C   UNL     1       6.290   5.937  17.624  0.00  0.00    +0.000 C 
BRANCH   6   7
ATOM      7  C   UNL     1       6.223   5.213  16.291  0.00  0.00    +0.000 A 
ATOM      8  C   UNL     1       5.234   4.262  16.013  0.00  0.00    +0.000 A 
ATOM      9  C   UNL     1       5.150   3.658  14.753  0.00  0.00    +0.000 A 
ATOM     10  C   UNL     1       6.051   3.998  13.743  0.00  0.00    +0.000 A 
ATOM     11 CL   UNL     1       5.874   3.219  12.211  0.00  0.00    +0.000 Cl
ATOM     12  C   UNL     1       7.044   4.946  13.998  0.00  0.00    +0.000 A 
ATOM     13 CL   UNL     1       8.206   5.409  12.804  0.00  0.00    +0.000 Cl
ATOM     14  C   UNL     1       7.121   5.556  15.260  0.00  0.00    +0.000 A 
ENDBRANCH   6   7
ENDBRANCH   2   6
BRANCH   3  15
ATOM     15  O   UNL     1       5.238   3.448  20.146  0.00  0.00    +0.000 OA
BRANCH  15  16
ATOM     16  C   UNL     1       4.546   2.259  20.090  0.00  0.00    +0.000 C 
ATOM     17  O   UNL     1       5.115   1.173  20.223  0.00  0.00    +0.000 OA
BRANCH  16  18
ATOM     18  C   UNL     1       3.136   2.473  19.842  0.00  0.00    +0.000 A 
ATOM     19  C   UNL     1       2.337   2.096  18.777  0.00  0.00    +0.000 A 
ATOM     20  C   UNL     1       0.981   2.521  18.929  0.00  0.00    +0.000 A 
ATOM     21  C   UNL     1       0.786   3.212  20.102  0.00  0.00    +0.000 A 
ATOM     22  S   UNL     1       2.221   3.333  21.020  0.00  0.00    +0.000 S 
ENDBRANCH  16  18
ENDBRANCH  15  16
ENDBRANCH   3  15
TORSDOF 5
ENDMDL
MODEL 3
REMARK VINA RESULT:      -6.9      1.584      2.129
REMARK  Name = 
REMARK  5 active torsions:
REMARK  status: ('A' for Active; 'I' for Inactive)
REMARK    1  A    between atoms: C_2  and  C_3
REMARK    2  A    between atoms: C_3  and  C_4
REMARK    3  A    between atoms: N_12  and  O_13
REMARK    4  A    between atoms: O_13  and  C_14
REMARK    5  A    between atoms: C_14  and  C_16
REMARK                            x       y       z     vdW  Elec       q    Type
REMARK                         _______ _______ _______ _____ _____    ______ ____
ROOT
ATOM      1  N   UNL     1       7.963   4.232  17.391  0.00  0.00    +0.000 NA
ATOM      2  C   UNL     1       7.180   5.154  16.916  0.00  0.00    +0.000 C 
ATOM      3  N   UNL     1       7.212   5.534  15.595  0.00  0.00    +0.000 N 
ATOM      4  H   UNL     1       7.818   4.097  18.395  0.00  0.00    +0.000 HD
ATOM      5  H   UNL     1       6.419   6.069  15.231  0.00  0.00    +0.000 HD
ENDROOT
BRANCH   2   6
ATOM      6  C   UNL     1       6.179   5.870  17.833  0.00  0.00    +0.000 C 
BRANCH   6   7
ATOM      7  C   UNL     1       4.838   5.173  17.982  0.00  0.00    +0.000 A 
ATOM      8  C   UNL     1       4.401   4.206  17.069  0.00  0.00    +0.000 A 
ATOM      9  C   UNL     1       3.192   3.527  17.263  0.00  0.00    +0.000 A 
ATOM     10  C   UNL     1       2.400   3.797  18.379  0.00  0.00    +0.000 A 
ATOM     11 CL   UNL     1       0.929   2.907  18.556  0.00  0.00    +0.000 Cl
ATOM     12  C   UNL     1       2.818   4.756  19.304  0.00  0.00    +0.000 A 
ATOM     13 CL   UNL     1       1.884   5.157  20.703  0.00  0.00    +0.000 Cl
ATOM     14  C   UNL     1       4.035   5.430  19.110  0.00  0.00    +0.000 A 
ENDBRANCH   6   7
ENDBRANCH   2   6
BRANCH   3  15
ATOM     15  O   UNL     1       7.618   4.502  14.716  0.00  0.00    +0.000 OA
BRANCH  15  16
ATOM     16  C   UNL     1       7.451   4.876  13.401  0.00  0.00    +0.000 C 
ATOM     17  O   UNL     1       8.048   5.843  12.923  0.00  0.00    +0.000 OA
BRANCH  16  18
ATOM     18  C   UNL     1       6.504   4.019  12.720  0.00  0.00    +0.000 A 
ATOM     19  C   UNL     1       5.121   4.048  12.684  0.00  0.00    +0.000 A 
ATOM     20  C   UNL     1       4.569   3.000  11.884  0.00  0.00    +0.000 A 
ATOM     21  C   UNL     1       5.546   2.201  11.336  0.00  0.00    +0.000 A 
ATOM     22  S   UNL     1       7.114   2.720  11.769  0.00  0.00    +0.000 S 
ENDBRANCH  16  18
ENDBRANCH  15  16
ENDBRANCH   3  15
TORSDOF 5
ENDMDL
MODEL 4
REMARK VINA RESULT:      -6.9      3.826      6.407
REMARK  Name = 
REMARK  5 active torsions:
REMARK  status: ('A' for Active; 'I' for Inactive)
REMARK    1  A    between atoms: C_2  and  C_3
REMARK    2  A    between atoms: C_3  and  C_4
REMARK    3  A    between atoms: N_12  and  O_13
REMARK    4  A    between atoms: O_13  and  C_14
REMARK    5  A    between atoms: C_14  and  C_16
REMARK                            x       y       z     vdW  Elec       q    Type
REMARK                         _______ _______ _______ _____ _____    ______ ____
ROOT
ATOM      1  N   UNL     1       5.640   3.689  19.181  0.00  0.00    +0.000 NA
ATOM      2  C   UNL     1       5.733   4.786  18.491  0.00  0.00    +0.000 C 
ATOM      3  N   UNL     1       4.774   5.770  18.546  0.00  0.00    +0.000 N 
ATOM      4  H   UNL     1       6.429   3.063  18.998  0.00  0.00    +0.000 HD
ATOM      5  H   UNL     1       5.018   6.698  18.188  0.00  0.00    +0.000 HD
ENDROOT
BRANCH   2   6
ATOM      6  C   UNL     1       6.934   5.021  17.564  0.00  0.00    +0.000 C 
BRANCH   6   7
ATOM      7  C   UNL     1       6.726   4.583  16.126  0.00  0.00    +0.000 A 
ATOM      8  C   UNL     1       5.745   3.650  15.771  0.00  0.00    +0.000 A 
ATOM      9  C   UNL     1       5.524   3.312  14.430  0.00  0.00    +0.000 A 
ATOM     10  C   UNL     1       6.277   3.907  13.417  0.00  0.00    +0.000 A 
ATOM     11 CL   UNL     1       5.936   3.449  11.786  0.00  0.00    +0.000 Cl
ATOM     12  C   UNL     1       7.259   4.842  13.749  0.00  0.00    +0.000 A 
ATOM     13 CL   UNL     1       8.243   5.610  12.552  0.00  0.00    +0.000 Cl
ATOM     14  C   UNL     1       7.473   5.185  15.094  0.00  0.00    +0.000 A 
ENDBRANCH   6   7
ENDBRANCH   2   6
BRANCH   3  15
ATOM     15  O   UNL     1       4.093   5.831  19.785  0.00  0.00    +0.000 OA
BRANCH  15  16
ATOM     16  C   UNL     1       2.740   6.010  19.598  0.00  0.00    +0.000 C 
ATOM     17  O   UNL     1       2.257   7.127  19.404  0.00  0.00    +0.000 OA
BRANCH  16  18
ATOM     18  C   UNL     1       2.020   4.758  19.684  0.00  0.00    +0.000 A 
ATOM     19  C   UNL     1       1.563   4.050  20.783  0.00  0.00    +0.000 A 
ATOM     20  C   UNL     1       0.896   2.839  20.418  0.00  0.00    +0.000 A 
ATOM     21  C   UNL     1       0.867   2.657  19.056  0.00  0.00    +0.000 A 
ATOM     22  S   UNL     1       1.622   3.941  18.222  0.00  0.00    +0.000 S 
ENDBRANCH  16  18
ENDBRANCH  15  16
ENDBRANCH   3  15
TORSDOF 5
ENDMDL
MODEL 5
REMARK VINA RESULT:      -6.9      4.193      5.855
REMARK  Name = 
REMARK  5 active torsions:
REMARK  status: ('A' for Active; 'I' for Inactive)
REMARK    1  A    between atoms: C_2  and  C_3
REMARK    2  A    between atoms: C_3  and  C_4
REMARK    3  A    between atoms: N_12  and  O_13
REMARK    4  A    between atoms: O_13  and  C_14
REMARK    5  A    between atoms: C_14  and  C_16
REMARK                            x       y       z     vdW  Elec       q    Type
REMARK                         _______ _______ _______ _____ _____    ______ ____
ROOT
ATOM      1  N   UNL     1       8.046   5.872  20.117  0.00  0.00    +0.000 NA
ATOM      2  C   UNL     1       7.715   5.999  18.867  0.00  0.00    +0.000 C 
ATOM      3  N   UNL     1       7.734   7.214  18.223  0.00  0.00    +0.000 N 
ATOM      4  H   UNL     1       7.949   4.903  20.434  0.00  0.00    +0.000 HD
ATOM      5  H   UNL     1       7.711   7.214  17.200  0.00  0.00    +0.000 HD
ENDROOT
BRANCH   2   6
ATOM      6  C   UNL     1       7.274   4.774  18.053  0.00  0.00    +0.000 C 
BRANCH   6   7
ATOM      7  C   UNL     1       5.773   4.555  17.993  0.00  0.00    +0.000 A 
ATOM      8  C   UNL     1       5.149   4.014  16.863  0.00  0.00    +0.000 A 
ATOM      9  C   UNL     1       3.773   3.756  16.855  0.00  0.00    +0.000 A 
ATOM     10  C   UNL     1       2.995   4.028  17.981  0.00  0.00    +0.000 A 
ATOM     11 CL   UNL     1       1.307   3.669  17.899  0.00  0.00    +0.000 Cl
ATOM     12  C   UNL     1       3.598   4.566  19.120  0.00  0.00    +0.000 A 
ATOM     13 CL   UNL     1       2.699   4.945  20.548  0.00  0.00    +0.000 Cl
ATOM     14  C   UNL     1       4.980   4.816  19.127  0.00  0.00    +0.000 A 
ENDBRANCH   6   7
ENDBRANCH   2   6
BRANCH   3  15
ATOM     15  O   UNL     1       8.690   8.118  18.743  0.00  0.00    +0.000 OA
BRANCH  15  16
ATOM     16  C   UNL     1       8.443   9.402  18.313  0.00  0.00    +0.000 C 
ATOM     17  O   UNL     1       7.587   9.645  17.460  0.00  0.00    +0.000 OA
BRANCH  16  18
ATOM     18  C   UNL     1       9.311  10.359  18.967  0.00  0.00    +0.000 A 
ATOM     19  C   UNL     1       9.460  10.677  20.306  0.00  0.00    +0.000 A 
ATOM     20  C   UNL     1      10.436  11.699  20.523  0.00  0.00    +0.000 A 
ATOM     21  C   UNL     1      10.999  12.132  19.345  0.00  0.00    +0.000 A 
ATOM     22  S   UNL     1      10.369  11.304  17.992  0.00  0.00    +0.000 S 
ENDBRANCH  16  18
ENDBRANCH  15  16
ENDBRANCH   3  15
TORSDOF 5
ENDMDL
MODEL 6
REMARK VINA RESULT:      -6.9      1.617      1.901
REMARK  Name = 
REMARK  5 active torsions:
REMARK  status: ('A' for Active; 'I' for Inactive)
REMARK    1  A    between atoms: C_2  and  C_3
REMARK    2  A    between atoms: C_3  and  C_4
REMARK    3  A    between atoms: N_12  and  O_13
REMARK    4  A    between atoms: O_13  and  C_14
REMARK    5  A    between atoms: C_14  and  C_16
REMARK                            x       y       z     vdW  Elec       q    Type
REMARK                         _______ _______ _______ _____ _____    ______ ____
ROOT
ATOM      1  N   UNL     1       6.150   6.117  18.454  0.00  0.00    +0.000 NA
ATOM      2  C   UNL     1       5.548   6.449  17.351  0.00  0.00    +0.000 C 
ATOM      3  N   UNL     1       6.238   6.849  16.231  0.00  0.00    +0.000 N 
ATOM      4  H   UNL     1       5.479   5.870  19.187  0.00  0.00    +0.000 HD
ATOM      5  H   UNL     1       5.740   6.853  15.337  0.00  0.00    +0.000 HD
ENDROOT
BRANCH   2   6
ATOM      6  C   UNL     1       4.016   6.413  17.261  0.00  0.00    +0.000 C 
BRANCH   6   7
ATOM      7  C   UNL     1       3.338   5.519  18.284  0.00  0.00    +0.000 A 
ATOM      8  C   UNL     1       2.712   6.039  19.423  0.00  0.00    +0.000 A 
ATOM      9  C   UNL     1       2.034   5.202  20.317  0.00  0.00    +0.000 A 
ATOM     10  C   UNL     1       1.963   3.828  20.086  0.00  0.00    +0.000 A 
ATOM     11 CL   UNL     1       1.096   2.863  21.227  0.00  0.00    +0.000 Cl
ATOM     12  C   UNL     1       2.579   3.288  18.955  0.00  0.00    +0.000 A 
ATOM     13 CL   UNL     1       2.549   1.594  18.608  0.00  0.00    +0.000 Cl
ATOM     14  C   UNL     1       3.252   4.131  18.056  0.00  0.00    +0.000 A 
ENDBRANCH   6   7
ENDBRANCH   2   6
BRANCH   3  15
ATOM     15  O   UNL     1       7.531   6.284  16.128  0.00  0.00    +0.000 OA
BRANCH  15  16
ATOM     16  C   UNL     1       7.466   4.913  16.007  0.00  0.00    +0.000 C 
ATOM     17  O   UNL     1       7.851   4.166  16.908  0.00  0.00    +0.000 OA
BRANCH  16  18
ATOM     18  C   UNL     1       6.926   4.517  14.724  0.00  0.00    +0.000 A 
ATOM     19  C   UNL     1       5.786   3.799  14.405  0.00  0.00    +0.000 A 
ATOM     20  C   UNL     1       5.626   3.621  12.995  0.00  0.00    +0.000 A 
ATOM     21  C   UNL     1       6.647   4.203  12.282  0.00  0.00    +0.000 A 
ATOM     22  S   UNL     1       7.781   4.973  13.301  0.00  0.00    +0.000 S 
ENDBRANCH  16  18
ENDBRANCH  15  16
ENDBRANCH   3  15
TORSDOF 5
ENDMDL
MODEL 7
REMARK VINA RESULT:      -6.8      4.908      6.503
REMARK  Name = 
REMARK  5 active torsions:
REMARK  status: ('A' for Active; 'I' for Inactive)
REMARK    1  A    between atoms: C_2  and  C_3
REMARK    2  A    between atoms: C_3  and  C_4
REMARK    3  A    between atoms: N_12  and  O_13
REMARK    4  A    between atoms: O_13  and  C_14
REMARK    5  A    between atoms: C_14  and  C_16
REMARK                            x       y       z     vdW  Elec       q    Type
REMARK                         _______ _______ _______ _____ _____    ______ ____
ROOT
ATOM      1  N   UNL     1       8.213   6.677  19.097  0.00  0.00    +0.000 NA
ATOM      2  C   UNL     1       7.786   7.244  18.009  0.00  0.00    +0.000 C 
ATOM      3  N   UNL     1       7.804   8.608  17.838  0.00  0.00    +0.000 N 
ATOM      4  H   UNL     1       8.102   5.659  19.058  0.00  0.00    +0.000 HD
ATOM      5  H   UNL     1       7.697   8.974  16.888  0.00  0.00    +0.000 HD
ENDROOT
BRANCH   2   6
ATOM      6  C   UNL     1       7.228   6.395  16.858  0.00  0.00    +0.000 C 
BRANCH   6   7
ATOM      7  C   UNL     1       5.815   5.883  17.071  0.00  0.00    +0.000 A 
ATOM      8  C   UNL     1       5.499   4.522  16.980  0.00  0.00    +0.000 A 
ATOM      9  C   UNL     1       4.203   4.064  17.247  0.00  0.00    +0.000 A 
ATOM     10  C   UNL     1       3.198   4.959  17.618  0.00  0.00    +0.000 A 
ATOM     11 CL   UNL     1       1.628   4.317  17.946  0.00  0.00    +0.000 Cl
ATOM     12  C   UNL     1       3.493   6.321  17.717  0.00  0.00    +0.000 A 
ATOM     13 CL   UNL     1       2.299   7.493  18.154  0.00  0.00    +0.000 Cl
ATOM     14  C   UNL     1       4.795   6.776  17.455  0.00  0.00    +0.000 A 
ENDBRANCH   6   7
ENDBRANCH   2   6
BRANCH   3  15
ATOM     15  O   UNL     1       8.838   9.257  18.554  0.00  0.00    +0.000 OA
BRANCH  15  16
ATOM     16  C   UNL     1       8.896  10.596  18.236  0.00  0.00    +0.000 C 
ATOM     17  O   UNL     1       8.050  11.126  17.513  0.00  0.00    +0.000 OA
BRANCH  16  18
ATOM     18  C   UNL     1      10.049  11.235  18.833  0.00  0.00    +0.000 A 
ATOM     19  C   UNL     1      10.419  11.378  20.159  0.00  0.00    +0.000 A 
ATOM     20  C   UNL     1      11.647  12.094  20.313  0.00  0.00    +0.000 A 
ATOM     21  C   UNL     1      12.175  12.479  19.102  0.00  0.00    +0.000 A 
ATOM     22  S   UNL     1      11.208  11.967  17.791  0.00  0.00    +0.000 S 
ENDBRANCH  16  18
ENDBRANCH  15  16
ENDBRANCH   3  15
TORSDOF 5
ENDMDL
MODEL 8
REMARK VINA RESULT:      -6.8      1.537      2.193
REMARK  Name = 
REMARK  5 active torsions:
REMARK  status: ('A' for Active; 'I' for Inactive)
REMARK    1  A    between atoms: C_2  and  C_3
REMARK    2  A    between atoms: C_3  and  C_4
REMARK    3  A    between atoms: N_12  and  O_13
REMARK    4  A    between atoms: O_13  and  C_14
REMARK    5  A    between atoms: C_14  and  C_16
REMARK                            x       y       z     vdW  Elec       q    Type
REMARK                         _______ _______ _______ _____ _____    ______ ____
ROOT
ATOM      1  N   UNL     1       8.097   4.139  17.565  0.00  0.00    +0.000 NA
ATOM      2  C   UNL     1       6.949   4.748  17.537  0.00  0.00    +0.000 C 
ATOM      3  N   UNL     1       6.233   4.908  16.375  0.00  0.00    +0.000 N 
ATOM      4  H   UNL     1       8.496   4.134  18.508  0.00  0.00    +0.000 HD
ATOM      5  H   UNL     1       5.244   5.163  16.452  0.00  0.00    +0.000 HD
ENDROOT
BRANCH   2   6
ATOM      6  C   UNL     1       6.347   5.329  18.824  0.00  0.00    +0.000 C 
BRANCH   6   7
ATOM      7  C   UNL     1       5.014   4.728  19.232  0.00  0.00    +0.000 A 
ATOM      8  C   UNL     1       4.807   3.344  19.273  0.00  0.00    +0.000 A 
ATOM      9  C   UNL     1       3.592   2.811  19.719  0.00  0.00    +0.000 A 
ATOM     10  C   UNL     1       2.561   3.652  20.139  0.00  0.00    +0.000 A 
ATOM     11 CL   UNL     1       1.097   2.918  20.689  0.00  0.00    +0.000 Cl
ATOM     12  C   UNL     1       2.747   5.036  20.109  0.00  0.00    +0.000 A 
ATOM     13 CL   UNL     1       1.512   6.143  20.598  0.00  0.00    +0.000 Cl
ATOM     14  C   UNL     1       3.970   5.567  19.669  0.00  0.00    +0.000 A 
ENDBRANCH   6   7
ENDBRANCH   2   6
BRANCH   3  15
ATOM     15  O   UNL     1       6.454   3.883  15.424  0.00  0.00    +0.000 OA
BRANCH  15  16
ATOM     16  C   UNL     1       6.817   4.408  14.204  0.00  0.00    +0.000 C 
ATOM     17  O   UNL     1       7.653   5.309  14.111  0.00  0.00    +0.000 OA
BRANCH  16  18
ATOM     18  C   UNL     1       6.089   3.786  13.119  0.00  0.00    +0.000 A 
ATOM     19  C   UNL     1       4.754   3.869  12.761  0.00  0.00    +0.000 A 
ATOM     20  C   UNL     1       4.444   3.079  11.610  0.00  0.00    +0.000 A 
ATOM     21  C   UNL     1       5.548   2.416  11.127  0.00  0.00    +0.000 A 
ATOM     22  S   UNL     1       6.949   2.755  12.042  0.00  0.00    +0.000 S 
ENDBRANCH  16  18
ENDBRANCH  15  16
ENDBRANCH   3  15
TORSDOF 5
ENDMDL
MODEL 9
REMARK VINA RESULT:      -6.7      4.927      6.360
REMARK  Name = 
REMARK  5 active torsions:
REMARK  status: ('A' for Active; 'I' for Inactive)
REMARK    1  A    between atoms: C_2  and  C_3
REMARK    2  A    between atoms: C_3  and  C_4
REMARK    3  A    between atoms: N_12  and  O_13
REMARK    4  A    between atoms: O_13  and  C_14
REMARK    5  A    between atoms: C_14  and  C_16
REMARK                            x       y       z     vdW  Elec       q    Type
REMARK                         _______ _______ _______ _____ _____    ______ ____
ROOT
ATOM      1  N   UNL     1       5.625   5.969  18.646  0.00  0.00    +0.000 NA
ATOM      2  C   UNL     1       4.604   5.287  18.219  0.00  0.00    +0.000 C 
ATOM      3  N   UNL     1       4.547   3.917  18.313  0.00  0.00    +0.000 N 
ATOM      4  H   UNL     1       5.505   6.971  18.472  0.00  0.00    +0.000 HD
ATOM      5  H   UNL     1       3.635   3.466  18.197  0.00  0.00    +0.000 HD
ENDROOT
BRANCH   2   6
ATOM      6  C   UNL     1       3.409   6.002  17.572  0.00  0.00    +0.000 C 
BRANCH   6   7
ATOM      7  C   UNL     1       2.623   6.903  18.507  0.00  0.00    +0.000 A 
ATOM      8  C   UNL     1       2.290   6.510  19.809  0.00  0.00    +0.000 A 
ATOM      9  C   UNL     1       1.625   7.383  20.677  0.00  0.00    +0.000 A 
ATOM     10  C   UNL     1       1.285   8.672  20.263  0.00  0.00    +0.000 A 
ATOM     11 CL   UNL     1       0.478   9.696  21.396  0.00  0.00    +0.000 Cl
ATOM     12  C   UNL     1       1.610   9.085  18.969  0.00  0.00    +0.000 A 
ATOM     13 CL   UNL     1       1.209  10.660  18.376  0.00  0.00    +0.000 Cl
ATOM     14  C   UNL     1       2.284   8.210  18.103  0.00  0.00    +0.000 A 
ENDBRANCH   6   7
ENDBRANCH   2   6
BRANCH   3  15
ATOM     15  O   UNL     1       5.274   3.391  19.408  0.00  0.00    +0.000 OA
BRANCH  15  16
ATOM     16  C   UNL     1       4.583   2.368  20.017  0.00  0.00    +0.000 C 
ATOM     17  O   UNL     1       5.165   1.413  20.535  0.00  0.00    +0.000 OA
BRANCH  16  18
ATOM     18  C   UNL     1       3.152   2.570  19.938  0.00  0.00    +0.000 A 
ATOM     19  C   UNL     1       2.260   2.328  18.907  0.00  0.00    +0.000 A 
ATOM     20  C   UNL     1       0.917   2.680  19.248  0.00  0.00    +0.000 A 
ATOM     21  C   UNL     1       0.824   3.183  20.525  0.00  0.00    +0.000 A 
ATOM     22  S   UNL     1       2.340   3.215  21.311  0.00  0.00    +0.000 S 
ENDBRANCH  16  18
ENDBRANCH  15  16
ENDBRANCH   3  15
TORSDOF 5
ENDMDL
