MODEL 1
REMARK VINA RESULT:      -8.1      0.000      0.000
REMARK  Name = 
REMARK  4 active torsions:
REMARK  status: ('A' for Active; 'I' for Inactive)
REMARK    1  A    between atoms: C_2  and  C_10
REMARK    2  A    between atoms: N_3  and  C_4
REMARK    3  A    between atoms: C_14  and  S_15
REMARK    4  A    between atoms: S_15  and  N_18
REMARK                            x       y       z     vdW  Elec       q    Type
REMARK                         _______ _______ _______ _____ _____    ______ ____
ROOT
ATOM      1  C   UNL     1       1.996   5.993  20.220  0.00  0.00    +0.000 A 
ATOM      2  C   UNL     1       1.398   4.916  20.889  0.00  0.00    +0.000 A 
ATOM      3  C   UNL     1       1.860   3.614  20.635  0.00  0.00    +0.000 A 
ATOM      4  C   UNL     1       2.915   3.410  19.723  0.00  0.00    +0.000 A 
ATOM      5  C   UNL     1       3.521   4.494  19.070  0.00  0.00    +0.000 A 
ATOM      6  C   UNL     1       3.061   5.779  19.330  0.00  0.00    +0.000 A 
ENDROOT
BRANCH   1   8
ATOM      7  O   UNL     1       2.088   8.221  19.604  0.00  0.00    +0.000 OA
ATOM      8  C   UNL     1       1.517   7.407  20.326  0.00  0.00    +0.000 C 
ATOM      9  N   UNL     1       0.544   7.710  21.267  0.00  0.00    +0.000 N 
ATOM     10  H   UNL     1       0.241   6.979  21.897  0.00  0.00    +0.000 HD
BRANCH   9  11
ATOM     11  C   UNL     1       0.105   9.031  21.560  0.00  0.00    +0.000 A 
ATOM     12  C   UNL     1      -0.231   9.977  20.589  0.00  0.00    +0.000 A 
ATOM     13  C   UNL     1      -0.641  11.258  20.960  0.00  0.00    +0.000 A 
ATOM     14  C   UNL     1      -0.707  11.562  22.307  0.00  0.00    +0.000 A 
ATOM     15  N   UNL     1      -0.393  10.684  23.284  0.00  0.00    +0.000 NA
ATOM     16  C   UNL     1       0.001   9.447  22.886  0.00  0.00    +0.000 A 
ENDBRANCH   9  11
ENDBRANCH   1   8
BRANCH   5  17
ATOM     17  S   UNL     1       4.892   4.179  17.952  0.00  0.00    +0.000 S 
ATOM     18  O   UNL     1       6.071   4.215  18.791  0.00  0.00    +0.000 OA
ATOM     19  O   UNL     1       4.544   2.991  17.201  0.00  0.00    +0.000 OA
BRANCH  17  20
ATOM     20  N   UNL     1       5.002   5.486  16.862  0.00  0.00    +0.000 NA
ATOM     21  C   UNL     1       5.372   5.207  15.440  0.00  0.00    +0.000 C 
ATOM     22  C   UNL     1       6.887   5.021  15.256  0.00  0.00    +0.000 C 
ATOM     23  O   UNL     1       7.667   6.093  15.801  0.00  0.00    +0.000 OA
ATOM     24  C   UNL     1       7.307   6.479  17.132  0.00  0.00    +0.000 C 
ATOM     25  C   UNL     1       5.799   6.677  17.314  0.00  0.00    +0.000 C 
ENDBRANCH  17  20
ENDBRANCH   5  17
TORSDOF 4
ENDMDL
MODEL 2
REMARK VINA RESULT:      -7.8      3.759      7.101
REMARK  Name = 
REMARK  4 active torsions:
REMARK  status: ('A' for Active; 'I' for Inactive)
REMARK    1  A    between atoms: C_2  and  C_10
REMARK    2  A    between atoms: N_3  and  C_4
REMARK    3  A    between atoms: C_14  and  S_15
REMARK    4  A    between atoms: S_15  and  N_18
REMARK                            x       y       z     vdW  Elec       q    Type
REMARK                         _______ _______ _______ _____ _____    ______ ____
ROOT
ATOM      1  C   UNL     1       6.793   6.406  17.160  0.00  0.00    +0.000 A 
ATOM      2  C   UNL     1       7.185   5.618  16.069  0.00  0.00    +0.000 A 
ATOM      3  C   UNL     1       6.304   4.637  15.585  0.00  0.00    +0.000 A 
ATOM      4  C   UNL     1       5.044   4.464  16.193  0.00  0.00    +0.000 A 
ATOM      5  C   UNL     1       4.650   5.269  17.273  0.00  0.00    +0.000 A 
ATOM      6  C   UNL     1       5.526   6.240  17.743  0.00  0.00    +0.000 A 
ENDROOT
BRANCH   1   8
ATOM      7  O   UNL     1       8.348   6.978  18.774  0.00  0.00    +0.000 OA
ATOM      8  C   UNL     1       7.686   7.403  17.830  0.00  0.00    +0.000 C 
ATOM      9  N   UNL     1       7.645   8.722  17.406  0.00  0.00    +0.000 N 
ATOM     10  H   UNL     1       6.964   8.981  16.704  0.00  0.00    +0.000 HD
BRANCH   9  11
ATOM     11  C   UNL     1       8.338   9.786  18.046  0.00  0.00    +0.000 A 
ATOM     12  C   UNL     1       9.126   9.630  19.188  0.00  0.00    +0.000 A 
ATOM     13  C   UNL     1       9.764  10.729  19.765  0.00  0.00    +0.000 A 
ATOM     14  C   UNL     1       9.596  11.969  19.177  0.00  0.00    +0.000 A 
ATOM     15  N   UNL     1       8.844  12.173  18.074  0.00  0.00    +0.000 NA
ATOM     16  C   UNL     1       8.240  11.080  17.539  0.00  0.00    +0.000 A 
ENDBRANCH   9  11
ENDBRANCH   1   8
BRANCH   5  17
ATOM     17  S   UNL     1       3.015   5.036  17.980  0.00  0.00    +0.000 S 
ATOM     18  O   UNL     1       2.430   6.360  18.010  0.00  0.00    +0.000 OA
ATOM     19  O   UNL     1       2.395   3.961  17.234  0.00  0.00    +0.000 OA
BRANCH  17  20
ATOM     20  N   UNL     1       3.200   4.524  19.597  0.00  0.00    +0.000 NA
ATOM     21  C   UNL     1       3.522   3.088  19.864  0.00  0.00    +0.000 C 
ATOM     22  C   UNL     1       2.277   2.189  19.799  0.00  0.00    +0.000 C 
ATOM     23  O   UNL     1       1.195   2.646  20.620  0.00  0.00    +0.000 OA
ATOM     24  C   UNL     1       0.888   4.038  20.486  0.00  0.00    +0.000 C 
ATOM     25  C   UNL     1       2.127   4.937  20.563  0.00  0.00    +0.000 C 
ENDBRANCH  17  20
ENDBRANCH   5  17
TORSDOF 4
ENDMDL
MODEL 3
REMARK VINA RESULT:      -7.8      3.971      7.072
REMARK  Name = 
REMARK  4 active torsions:
REMARK  status: ('A' for Active; 'I' for Inactive)
REMARK    1  A    between atoms: C_2  and  C_10
REMARK    2  A    between atoms: N_3  and  C_4
REMARK    3  A    between atoms: C_14  and  S_15
REMARK    4  A    between atoms: S_15  and  N_18
REMARK                            x       y       z     vdW  Elec       q    Type
REMARK                         _______ _______ _______ _____ _____    ______ ____
ROOT
ATOM      1  C   UNL     1       6.881   6.087  17.211  0.00  0.00    +0.000 A 
ATOM      2  C   UNL     1       7.001   5.763  15.852  0.00  0.00    +0.000 A 
ATOM      3  C   UNL     1       6.268   4.679  15.342  0.00  0.00    +0.000 A 
ATOM      4  C   UNL     1       5.422   3.941  16.194  0.00  0.00    +0.000 A 
ATOM      5  C   UNL     1       5.292   4.281  17.549  0.00  0.00    +0.000 A 
ATOM      6  C   UNL     1       6.017   5.357  18.045  0.00  0.00    +0.000 A 
ENDROOT
BRANCH   1   8
ATOM      7  O   UNL     1       8.257   6.805  18.926  0.00  0.00    +0.000 OA
ATOM      8  C   UNL     1       7.693   7.145  17.889  0.00  0.00    +0.000 C 
ATOM      9  N   UNL     1       7.685   8.428  17.361  0.00  0.00    +0.000 N 
ATOM     10  H   UNL     1       7.077   8.621  16.576  0.00  0.00    +0.000 HD
BRANCH   9  11
ATOM     11  C   UNL     1       8.300   9.549  17.984  0.00  0.00    +0.000 A 
ATOM     12  C   UNL     1       8.256  10.848  17.474  0.00  0.00    +0.000 A 
ATOM     13  C   UNL     1       8.898  11.893  18.141  0.00  0.00    +0.000 A 
ATOM     14  C   UNL     1       9.574  11.607  19.312  0.00  0.00    +0.000 A 
ATOM     15  N   UNL     1       9.648  10.369  19.845  0.00  0.00    +0.000 NA
ATOM     16  C   UNL     1       9.010   9.377  19.171  0.00  0.00    +0.000 A 
ENDBRANCH   9  11
ENDBRANCH   1   8
BRANCH   5  17
ATOM     17  S   UNL     1       4.165   3.334  18.579  0.00  0.00    +0.000 S 
ATOM     18  O   UNL     1       3.672   2.279  17.719  0.00  0.00    +0.000 OA
ATOM     19  O   UNL     1       4.881   3.031  19.800  0.00  0.00    +0.000 OA
BRANCH  17  20
ATOM     20  N   UNL     1       2.838   4.331  18.974  0.00  0.00    +0.000 NA
ATOM     21  C   UNL     1       2.728   4.864  20.367  0.00  0.00    +0.000 C 
ATOM     22  C   UNL     1       2.148   3.829  21.344  0.00  0.00    +0.000 C 
ATOM     23  O   UNL     1       0.912   3.253  20.903  0.00  0.00    +0.000 OA
ATOM     24  C   UNL     1       0.912   2.802  19.545  0.00  0.00    +0.000 C 
ATOM     25  C   UNL     1       1.478   3.837  18.567  0.00  0.00    +0.000 C 
ENDBRANCH  17  20
ENDBRANCH   5  17
TORSDOF 4
ENDMDL
MODEL 4
REMARK VINA RESULT:      -7.7      2.187      2.617
REMARK  Name = 
REMARK  4 active torsions:
REMARK  status: ('A' for Active; 'I' for Inactive)
REMARK    1  A    between atoms: C_2  and  C_10
REMARK    2  A    between atoms: N_3  and  C_4
REMARK    3  A    between atoms: C_14  and  S_15
REMARK    4  A    between atoms: S_15  and  N_18
REMARK                            x       y       z     vdW  Elec       q    Type
REMARK                         _______ _______ _______ _____ _____    ______ ____
ROOT
ATOM      1  C   UNL     1       1.981   7.725  19.300  0.00  0.00    +0.000 A 
ATOM      2  C   UNL     1       1.419   7.213  20.478  0.00  0.00    +0.000 A 
ATOM      3  C   UNL     1       1.733   5.900  20.868  0.00  0.00    +0.000 A 
ATOM      4  C   UNL     1       2.606   5.124  20.080  0.00  0.00    +0.000 A 
ATOM      5  C   UNL     1       3.179   5.649  18.912  0.00  0.00    +0.000 A 
ATOM      6  C   UNL     1       2.867   6.950  18.535  0.00  0.00    +0.000 A 
ENDROOT
BRANCH   1   8
ATOM      7  O   UNL     1       2.034   9.277  17.586  0.00  0.00    +0.000 OA
ATOM      8  C   UNL     1       1.635   9.064  18.728  0.00  0.00    +0.000 C 
ATOM      9  N   UNL     1       0.978   9.981  19.535  0.00  0.00    +0.000 N 
ATOM     10  H   UNL     1       0.816   9.740  20.503  0.00  0.00    +0.000 HD
BRANCH   9  11
ATOM     11  C   UNL     1       0.716  11.328  19.158  0.00  0.00    +0.000 A 
ATOM     12  C   UNL     1       1.671  12.347  19.184  0.00  0.00    +0.000 A 
ATOM     13  C   UNL     1       1.329  13.647  18.811  0.00  0.00    +0.000 A 
ATOM     14  C   UNL     1       0.028  13.897  18.418  0.00  0.00    +0.000 A 
ATOM     15  N   UNL     1      -0.932  12.948  18.377  0.00  0.00    +0.000 NA
ATOM     16  C   UNL     1      -0.563  11.694  18.744  0.00  0.00    +0.000 A 
ENDBRANCH   9  11
ENDBRANCH   1   8
BRANCH   5  17
ATOM     17  S   UNL     1       4.322   4.631  17.970  0.00  0.00    +0.000 S 
ATOM     18  O   UNL     1       5.022   3.843  18.963  0.00  0.00    +0.000 OA
ATOM     19  O   UNL     1       3.543   3.999  16.927  0.00  0.00    +0.000 OA
BRANCH  17  20
ATOM     20  N   UNL     1       5.468   5.657  17.233  0.00  0.00    +0.000 NA
ATOM     21  C   UNL     1       5.736   5.502  15.770  0.00  0.00    +0.000 C 
ATOM     22  C   UNL     1       6.696   4.338  15.473  0.00  0.00    +0.000 C 
ATOM     23  O   UNL     1       7.913   4.390  16.228  0.00  0.00    +0.000 OA
ATOM     24  C   UNL     1       7.739   4.629  17.629  0.00  0.00    +0.000 C 
ATOM     25  C   UNL     1       6.793   5.797  17.927  0.00  0.00    +0.000 C 
ENDBRANCH  17  20
ENDBRANCH   5  17
TORSDOF 4
ENDMDL
MODEL 5
REMARK VINA RESULT:      -7.7      1.758      1.999
REMARK  Name = 
REMARK  4 active torsions:
REMARK  status: ('A' for Active; 'I' for Inactive)
REMARK    1  A    between atoms: C_2  and  C_10
REMARK    2  A    between atoms: N_3  and  C_4
REMARK    3  A    between atoms: C_14  and  S_15
REMARK    4  A    between atoms: S_15  and  N_18
REMARK                            x       y       z     vdW  Elec       q    Type
REMARK                         _______ _______ _______ _____ _____    ______ ____
ROOT
ATOM      1  C   UNL     1       2.024   6.561  20.149  0.00  0.00    +0.000 A 
ATOM      2  C   UNL     1       1.330   5.559  20.841  0.00  0.00    +0.000 A 
ATOM      3  C   UNL     1       1.693   4.216  20.644  0.00  0.00    +0.000 A 
ATOM      4  C   UNL     1       2.747   3.897  19.765  0.00  0.00    +0.000 A 
ATOM      5  C   UNL     1       3.450   4.906  19.088  0.00  0.00    +0.000 A 
ATOM      6  C   UNL     1       3.087   6.231  19.292  0.00  0.00    +0.000 A 
ENDROOT
BRANCH   1   8
ATOM      7  O   UNL     1       1.511   8.492  21.315  0.00  0.00    +0.000 OA
ATOM      8  C   UNL     1       1.655   8.011  20.194  0.00  0.00    +0.000 C 
ATOM      9  N   UNL     1       1.425   8.674  18.998  0.00  0.00    +0.000 N 
ATOM     10  H   UNL     1       1.446   8.139  18.140  0.00  0.00    +0.000 HD
BRANCH   9  11
ATOM     11  C   UNL     1       0.938  10.007  18.909  0.00  0.00    +0.000 A 
ATOM     12  C   UNL     1      -0.407  10.359  19.044  0.00  0.00    +0.000 A 
ATOM     13  C   UNL     1      -0.806  11.691  18.930  0.00  0.00    +0.000 A 
ATOM     14  C   UNL     1       0.161  12.647  18.681  0.00  0.00    +0.000 A 
ATOM     15  N   UNL     1       1.472  12.359  18.540  0.00  0.00    +0.000 NA
ATOM     16  C   UNL     1       1.825  11.053  18.660  0.00  0.00    +0.000 A 
ENDBRANCH   9  11
ENDBRANCH   1   8
BRANCH   5  17
ATOM     17  S   UNL     1       4.815   4.444  18.015  0.00  0.00    +0.000 S 
ATOM     18  O   UNL     1       5.986   4.485  18.864  0.00  0.00    +0.000 OA
ATOM     19  O   UNL     1       4.417   3.223  17.348  0.00  0.00    +0.000 OA
BRANCH  17  20
ATOM     20  N   UNL     1       4.999   5.661  16.833  0.00  0.00    +0.000 NA
ATOM     21  C   UNL     1       5.372   5.260  15.441  0.00  0.00    +0.000 C 
ATOM     22  C   UNL     1       6.878   4.992  15.294  0.00  0.00    +0.000 C 
ATOM     23  O   UNL     1       7.701   6.064  15.771  0.00  0.00    +0.000 OA
ATOM     24  C   UNL     1       7.345   6.564  17.064  0.00  0.00    +0.000 C 
ATOM     25  C   UNL     1       5.845   6.844  17.209  0.00  0.00    +0.000 C 
ENDBRANCH  17  20
ENDBRANCH   5  17
TORSDOF 4
ENDMDL
MODEL 6
REMARK VINA RESULT:      -7.7      2.864      4.336
REMARK  Name = 
REMARK  4 active torsions:
REMARK  status: ('A' for Active; 'I' for Inactive)
REMARK    1  A    between atoms: C_2  and  C_10
REMARK    2  A    between atoms: N_3  and  C_4
REMARK    3  A    between atoms: C_14  and  S_15
REMARK    4  A    between atoms: S_15  and  N_18
REMARK                            x       y       z     vdW  Elec       q    Type
REMARK                         _______ _______ _______ _____ _____    ______ ____
ROOT
ATOM      1  C   UNL     1       1.248   9.427  19.959  0.00  0.00    +0.000 A 
ATOM      2  C   UNL     1       1.396   9.880  18.641  0.00  0.00    +0.000 A 
ATOM      3  C   UNL     1       1.948   9.016  17.681  0.00  0.00    +0.000 A 
ATOM      4  C   UNL     1       2.336   7.712  18.051  0.00  0.00    +0.000 A 
ATOM      5  C   UNL     1       2.169   7.259  19.369  0.00  0.00    +0.000 A 
ATOM      6  C   UNL     1       1.619   8.119  20.311  0.00  0.00    +0.000 A 
ENDROOT
BRANCH   1   8
ATOM      7  O   UNL     1       1.073   9.905  22.216  0.00  0.00    +0.000 OA
ATOM      8  C   UNL     1       0.778  10.291  21.088  0.00  0.00    +0.000 C 
ATOM      9  N   UNL     1      -0.010  11.394  20.795  0.00  0.00    +0.000 N 
ATOM     10  H   UNL     1      -0.298  11.539  19.837  0.00  0.00    +0.000 HD
BRANCH   9  11
ATOM     11  C   UNL     1      -0.631  12.211  21.780  0.00  0.00    +0.000 A 
ATOM     12  C   UNL     1      -1.816  11.878  22.439  0.00  0.00    +0.000 A 
ATOM     13  C   UNL     1      -2.368  12.743  23.385  0.00  0.00    +0.000 A 
ATOM     14  C   UNL     1      -1.714  13.931  23.649  0.00  0.00    +0.000 A 
ATOM     15  N   UNL     1      -0.568  14.300  23.039  0.00  0.00    +0.000 NA
ATOM     16  C   UNL     1      -0.057  13.433  22.126  0.00  0.00    +0.000 A 
ENDBRANCH   9  11
ENDBRANCH   1   8
BRANCH   5  17
ATOM     17  S   UNL     1       2.640   5.573  19.774  0.00  0.00    +0.000 S 
ATOM     18  O   UNL     1       4.083   5.552  19.657  0.00  0.00    +0.000 OA
ATOM     19  O   UNL     1       1.986   5.255  21.026  0.00  0.00    +0.000 OA
BRANCH  17  20
ATOM     20  N   UNL     1       2.015   4.540  18.569  0.00  0.00    +0.000 NA
ATOM     21  C   UNL     1       1.163   3.384  18.984  0.00  0.00    +0.000 C 
ATOM     22  C   UNL     1       1.997   2.189  19.472  0.00  0.00    +0.000 C 
ATOM     23  O   UNL     1       3.017   1.785  18.549  0.00  0.00    +0.000 OA
ATOM     24  C   UNL     1       3.817   2.855  18.035  0.00  0.00    +0.000 C 
ATOM     25  C   UNL     1       2.987   4.042  17.537  0.00  0.00    +0.000 C 
ENDBRANCH  17  20
ENDBRANCH   5  17
TORSDOF 4
ENDMDL
MODEL 7
REMARK VINA RESULT:      -7.7      1.098      1.125
REMARK  Name = 
REMARK  4 active torsions:
REMARK  status: ('A' for Active; 'I' for Inactive)
REMARK    1  A    between atoms: C_2  and  C_10
REMARK    2  A    between atoms: N_3  and  C_4
REMARK    3  A    between atoms: C_14  and  S_15
REMARK    4  A    between atoms: S_15  and  N_18
REMARK                            x       y       z     vdW  Elec       q    Type
REMARK                         _______ _______ _______ _____ _____    ______ ____
ROOT
ATOM      1  C   UNL     1       2.090   6.684  19.915  0.00  0.00    +0.000 A 
ATOM      2  C   UNL     1       1.572   5.848  20.915  0.00  0.00    +0.000 A 
ATOM      3  C   UNL     1       2.013   4.516  20.985  0.00  0.00    +0.000 A 
ATOM      4  C   UNL     1       2.967   4.043  20.063  0.00  0.00    +0.000 A 
ATOM      5  C   UNL     1       3.495   4.890  19.075  0.00  0.00    +0.000 A 
ATOM      6  C   UNL     1       3.056   6.207  19.014  0.00  0.00    +0.000 A 
ENDROOT
BRANCH   1   8
ATOM      7  O   UNL     1       2.102   8.651  18.698  0.00  0.00    +0.000 OA
ATOM      8  C   UNL     1       1.616   8.082  19.672  0.00  0.00    +0.000 C 
ATOM      9  N   UNL     1       0.746   8.657  20.587  0.00  0.00    +0.000 N 
ATOM     10  H   UNL     1       0.516   8.136  21.424  0.00  0.00    +0.000 HD
BRANCH   9  11
ATOM     11  C   UNL     1       0.332  10.017  20.546  0.00  0.00    +0.000 A 
ATOM     12  C   UNL     1      -0.717  10.491  19.756  0.00  0.00    +0.000 A 
ATOM     13  C   UNL     1      -1.053  11.845  19.763  0.00  0.00    +0.000 A 
ATOM     14  C   UNL     1      -0.324  12.699  20.568  0.00  0.00    +0.000 A 
ATOM     15  N   UNL     1       0.699  12.291  21.349  0.00  0.00    +0.000 NA
ATOM     16  C   UNL     1       0.997  10.966  21.320  0.00  0.00    +0.000 A 
ENDBRANCH   9  11
ENDBRANCH   1   8
BRANCH   5  17
ATOM     17  S   UNL     1       4.742   4.246  17.954  0.00  0.00    +0.000 S 
ATOM     18  O   UNL     1       5.968   4.244  18.723  0.00  0.00    +0.000 OA
ATOM     19  O   UNL     1       4.204   3.021  17.401  0.00  0.00    +0.000 OA
BRANCH  17  20
ATOM     20  N   UNL     1       4.941   5.362  16.679  0.00  0.00    +0.000 NA
ATOM     21  C   UNL     1       5.414   4.862  15.352  0.00  0.00    +0.000 C 
ATOM     22  C   UNL     1       6.937   4.658  15.314  0.00  0.00    +0.000 C 
ATOM     23  O   UNL     1       7.681   5.807  15.737  0.00  0.00    +0.000 OA
ATOM     24  C   UNL     1       7.226   6.399  16.959  0.00  0.00    +0.000 C 
ATOM     25  C   UNL     1       5.709   6.615  16.994  0.00  0.00    +0.000 C 
ENDBRANCH  17  20
ENDBRANCH   5  17
TORSDOF 4
ENDMDL
MODEL 8
REMARK VINA RESULT:      -7.7      2.123      2.520
REMARK  Name = 
REMARK  4 active torsions:
REMARK  status: ('A' for Active; 'I' for Inactive)
REMARK    1  A    between atoms: C_2  and  C_10
REMARK    2  A    between atoms: N_3  and  C_4
REMARK    3  A    between atoms: C_14  and  S_15
REMARK    4  A    between atoms: S_15  and  N_18
REMARK                            x       y       z     vdW  Elec       q    Type
REMARK                         _______ _______ _______ _____ _____    ______ ____
ROOT
ATOM      1  C   UNL     1       1.994   7.703  19.230  0.00  0.00    +0.000 A 
ATOM      2  C   UNL     1       1.529   7.200  20.453  0.00  0.00    +0.000 A 
ATOM      3  C   UNL     1       1.838   5.876  20.809  0.00  0.00    +0.000 A 
ATOM      4  C   UNL     1       2.612   5.080  19.942  0.00  0.00    +0.000 A 
ATOM      5  C   UNL     1       3.091   5.595  18.727  0.00  0.00    +0.000 A 
ATOM      6  C   UNL     1       2.784   6.906  18.385  0.00  0.00    +0.000 A 
ENDROOT
BRANCH   1   8
ATOM      7  O   UNL     1       2.076   9.323  17.581  0.00  0.00    +0.000 OA
ATOM      8  C   UNL     1       1.637   9.054  18.696  0.00  0.00    +0.000 C 
ATOM      9  N   UNL     1       0.923   9.921  19.510  0.00  0.00    +0.000 N 
ATOM     10  H   UNL     1       0.727   9.638  20.461  0.00  0.00    +0.000 HD
BRANCH   9  11
ATOM     11  C   UNL     1       0.641  11.275  19.175  0.00  0.00    +0.000 A 
ATOM     12  C   UNL     1      -0.555  11.703  18.594  0.00  0.00    +0.000 A 
ATOM     13  C   UNL     1      -0.749  13.050  18.284  0.00  0.00    +0.000 A 
ATOM     14  C   UNL     1       0.268  13.942  18.567  0.00  0.00    +0.000 A 
ATOM     15  N   UNL     1       1.442  13.579  19.127  0.00  0.00    +0.000 NA
ATOM     16  C   UNL     1       1.595  12.261  19.417  0.00  0.00    +0.000 A 
ENDBRANCH   9  11
ENDBRANCH   1   8
BRANCH   5  17
ATOM     17  S   UNL     1       4.111   4.549  17.681  0.00  0.00    +0.000 S 
ATOM     18  O   UNL     1       4.931   3.790  18.602  0.00  0.00    +0.000 OA
ATOM     19  O   UNL     1       3.212   3.888  16.760  0.00  0.00    +0.000 OA
BRANCH  17  20
ATOM     20  N   UNL     1       5.154   5.553  16.779  0.00  0.00    +0.000 NA
ATOM     21  C   UNL     1       5.578   5.109  15.415  0.00  0.00    +0.000 C 
ATOM     22  C   UNL     1       6.725   4.086  15.464  0.00  0.00    +0.000 C 
ATOM     23  O   UNL     1       7.845   4.516  16.248  0.00  0.00    +0.000 OA
ATOM     24  C   UNL     1       7.507   5.042  17.537  0.00  0.00    +0.000 C 
ATOM     25  C   UNL     1       6.373   6.071  17.488  0.00  0.00    +0.000 C 
ENDBRANCH  17  20
ENDBRANCH   5  17
TORSDOF 4
ENDMDL
MODEL 9
REMARK VINA RESULT:      -7.6      3.503      6.915
REMARK  Name = 
REMARK  4 active torsions:
REMARK  status: ('A' for Active; 'I' for Inactive)
REMARK    1  A    between atoms: C_2  and  C_10
REMARK    2  A    between atoms: N_3  and  C_4
REMARK    3  A    between atoms: C_14  and  S_15
REMARK    4  A    between atoms: S_15  and  N_18
REMARK                            x       y       z     vdW  Elec       q    Type
REMARK                         _______ _______ _______ _____ _____    ______ ____
ROOT
ATOM      1  C   UNL     1       6.763   6.081  17.114  0.00  0.00    +0.000 A 
ATOM      2  C   UNL     1       6.899   5.764  15.755  0.00  0.00    +0.000 A 
ATOM      3  C   UNL     1       6.134   4.715  15.220  0.00  0.00    +0.000 A 
ATOM      4  C   UNL     1       5.242   4.004  16.048  0.00  0.00    +0.000 A 
ATOM      5  C   UNL     1       5.098   4.338  17.404  0.00  0.00    +0.000 A 
ATOM      6  C   UNL     1       5.855   5.380  17.924  0.00  0.00    +0.000 A 
ENDROOT
BRANCH   1   8
ATOM      7  O   UNL     1       8.162   6.718  18.843  0.00  0.00    +0.000 OA
ATOM      8  C   UNL     1       7.603   7.101  17.818  0.00  0.00    +0.000 C 
ATOM      9  N   UNL     1       7.624   8.397  17.327  0.00  0.00    +0.000 N 
ATOM     10  H   UNL     1       7.019   8.627  16.550  0.00  0.00    +0.000 HD
BRANCH   9  11
ATOM     11  C   UNL     1       8.268   9.485  17.978  0.00  0.00    +0.000 A 
ATOM     12  C   UNL     1       9.014   9.362  19.153  0.00  0.00    +0.000 A 
ATOM     13  C   UNL     1       9.604  10.483  19.738  0.00  0.00    +0.000 A 
ATOM     14  C   UNL     1       9.432  11.710  19.126  0.00  0.00    +0.000 A 
ATOM     15  N   UNL     1       8.721  11.882  17.991  0.00  0.00    +0.000 NA
ATOM     16  C   UNL     1       8.162  10.770  17.448  0.00  0.00    +0.000 A 
ENDBRANCH   9  11
ENDBRANCH   1   8
BRANCH   5  17
ATOM     17  S   UNL     1       3.912   3.428  18.402  0.00  0.00    +0.000 S 
ATOM     18  O   UNL     1       3.771   2.149  17.738  0.00  0.00    +0.000 OA
ATOM     19  O   UNL     1       4.378   3.513  19.770  0.00  0.00    +0.000 OA
BRANCH  17  20
ATOM     20  N   UNL     1       2.407   4.224  18.300  0.00  0.00    +0.000 NA
ATOM     21  C   UNL     1       2.387   5.718  18.230  0.00  0.00    +0.000 C 
ATOM     22  C   UNL     1       2.556   6.369  19.612  0.00  0.00    +0.000 C 
ATOM     23  O   UNL     1       1.637   5.877  20.595  0.00  0.00    +0.000 OA
ATOM     24  C   UNL     1       1.533   4.451  20.658  0.00  0.00    +0.000 C 
ATOM     25  C   UNL     1       1.352   3.800  19.282  0.00  0.00    +0.000 C 
ENDBRANCH  17  20
ENDBRANCH   5  17
TORSDOF 4
ENDMDL
