MODEL 1
REMARK VINA RESULT:      -7.4      0.000      0.000
REMARK  Name = 
REMARK  11 active torsions:
REMARK  status: ('A' for Active; 'I' for Inactive)
REMARK    1  A    between atoms: C_1  and  C_2
REMARK    2  A    between atoms: C_3  and  N_4
REMARK    3  A    between atoms: N_4  and  C_5
REMARK    4  A    between atoms: C_5  and  C_6
REMARK    5  A    between atoms: C_5  and  C_7
REMARK    6  A    between atoms: C_7  and  C_8
REMARK    7  A    between atoms: C_7  and  C_9
REMARK    8  A    between atoms: C_13  and  C_14
REMARK    9  A    between atoms: N_16  and  C_17
REMARK   10  A    between atoms: C_17  and  C_18
REMARK   11  A    between atoms: N_22  and  C_23
REMARK                            x       y       z     vdW  Elec       q    Type
REMARK                         _______ _______ _______ _____ _____    ______ ____
ROOT
ATOM      1  C   UNL     1       1.043   8.328  21.476  0.00  0.00    +0.000 C 
ATOM      2  C   UNL     1       1.581   8.222  20.068  0.00  0.00    +0.000 A 
ATOM      3  C   UNL     1       2.309   7.077  19.627  0.00  0.00    +0.000 A 
ATOM      4  C   UNL     1       2.875   7.128  18.332  0.00  0.00    +0.000 A 
ATOM      5  C   UNL     1       2.672   8.189  17.466  0.00  0.00    +0.000 A 
ATOM      6  C   UNL     1       1.870   9.249  17.854  0.00  0.00    +0.000 A 
ATOM      7  C   UNL     1       1.331   9.291  19.152  0.00  0.00    +0.000 A 
ENDROOT
BRANCH   7   8
ATOM      8  C   UNL     1       0.452  10.481  19.478  0.00  0.00    +0.000 C 
ATOM      9  O   UNL     1       0.765  11.308  20.328  0.00  0.00    +0.000 OA
ATOM     10  N   UNL     1      -0.732  10.555  18.780  0.00  0.00    +0.000 N 
ATOM     11  H   UNL     1      -0.937   9.911  18.023  0.00  0.00    +0.000 HD
BRANCH  10  12
ATOM     12  C   UNL     1      -1.749  11.564  18.982  0.00  0.00    +0.000 C 
BRANCH  12  13
ATOM     13  C   UNL     1      -2.731  11.427  17.849  0.00  0.00    +0.000 A 
ATOM     14  N   UNL     1      -2.429  11.040  16.619  0.00  0.00    +0.000 NA
ATOM     15  C   UNL     1      -3.606  11.061  15.917  0.00  0.00    +0.000 A 
ATOM     16  C   UNL     1      -4.646  11.459  16.721  0.00  0.00    +0.000 A 
ATOM     17  N   UNL     1      -4.082  11.685  17.950  0.00  0.00    +0.000 N 
ATOM     18  C   UNL     1      -4.790  12.122  19.124  0.00  0.00    +0.000 C 
ENDBRANCH  12  13
ENDBRANCH  10  12
ENDBRANCH   7   8
BRANCH   3  19
ATOM     19  N   UNL     1       2.538   5.939  20.426  0.00  0.00    +0.000 N 
ATOM     20  H   UNL     1       2.265   6.009  21.399  0.00  0.00    +0.000 HD
BRANCH  19  21
ATOM     21  C   UNL     1       2.430   4.589  19.827  0.00  0.00    +0.000 C 
ATOM     22  C   UNL     1       3.792   3.881  19.894  0.00  0.00    +0.000 C 
BRANCH  21  23
ATOM     23  C   UNL     1       1.301   3.716  20.444  0.00  0.00    +0.000 C 
ATOM     24  C   UNL     1       0.599   2.776  19.462  0.00  0.00    +0.000 C 
ATOM     25  C   UNL     1       1.797   2.926  21.659  0.00  0.00    +0.000 C 
ENDBRANCH  21  23
ENDBRANCH  19  21
ENDBRANCH   3  19
TORSDOF 6
ENDMDL
MODEL 2
REMARK VINA RESULT:      -7.3      4.555      6.766
REMARK  Name = 
REMARK  11 active torsions:
REMARK  status: ('A' for Active; 'I' for Inactive)
REMARK    1  A    between atoms: C_1  and  C_2
REMARK    2  A    between atoms: C_3  and  N_4
REMARK    3  A    between atoms: N_4  and  C_5
REMARK    4  A    between atoms: C_5  and  C_6
REMARK    5  A    between atoms: C_5  and  C_7
REMARK    6  A    between atoms: C_7  and  C_8
REMARK    7  A    between atoms: C_7  and  C_9
REMARK    8  A    between atoms: C_13  and  C_14
REMARK    9  A    between atoms: N_16  and  C_17
REMARK   10  A    between atoms: C_17  and  C_18
REMARK   11  A    between atoms: N_22  and  C_23
REMARK                            x       y       z     vdW  Elec       q    Type
REMARK                         _______ _______ _______ _____ _____    ______ ____
ROOT
ATOM      1  C   UNL     1       3.744   3.537  16.910  0.00  0.00    +0.000 C 
ATOM      2  C   UNL     1       5.056   4.146  17.347  0.00  0.00    +0.000 A 
ATOM      3  C   UNL     1       6.239   4.026  16.559  0.00  0.00    +0.000 A 
ATOM      4  C   UNL     1       7.441   4.523  17.114  0.00  0.00    +0.000 A 
ATOM      5  C   UNL     1       7.487   5.188  18.327  0.00  0.00    +0.000 A 
ATOM      6  C   UNL     1       6.319   5.404  19.038  0.00  0.00    +0.000 A 
ATOM      7  C   UNL     1       5.100   4.878  18.574  0.00  0.00    +0.000 A 
ENDROOT
BRANCH   7   8
ATOM      8  C   UNL     1       3.874   5.183  19.410  0.00  0.00    +0.000 C 
ATOM      9  O   UNL     1       3.367   4.346  20.150  0.00  0.00    +0.000 OA
ATOM     10  N   UNL     1       3.351   6.447  19.260  0.00  0.00    +0.000 N 
ATOM     11  H   UNL     1       3.829   7.152  18.709  0.00  0.00    +0.000 HD
BRANCH  10  12
ATOM     12  C   UNL     1       2.147   6.924  19.905  0.00  0.00    +0.000 C 
BRANCH  12  13
ATOM     13  C   UNL     1       1.815   8.254  19.280  0.00  0.00    +0.000 A 
ATOM     14  N   UNL     1       2.125   8.615  18.045  0.00  0.00    +0.000 NA
ATOM     15  C   UNL     1       1.646   9.890  17.892  0.00  0.00    +0.000 A 
ATOM     16  C   UNL     1       1.030  10.319  19.042  0.00  0.00    +0.000 A 
ATOM     17  N   UNL     1       1.137   9.271  19.919  0.00  0.00    +0.000 N 
ATOM     18  C   UNL     1       0.633   9.255  21.267  0.00  0.00    +0.000 C 
ENDBRANCH  12  13
ENDBRANCH  10  12
ENDBRANCH   7   8
BRANCH   3  19
ATOM     19  N   UNL     1       6.280   3.395  15.300  0.00  0.00    +0.000 N 
ATOM     20  H   UNL     1       5.927   2.446  15.259  0.00  0.00    +0.000 HD
BRANCH  19  21
ATOM     21  C   UNL     1       6.092   4.200  14.070  0.00  0.00    +0.000 C 
ATOM     22  C   UNL     1       7.223   5.232  13.948  0.00  0.00    +0.000 C 
BRANCH  21  23
ATOM     23  C   UNL     1       5.954   3.349  12.777  0.00  0.00    +0.000 C 
ATOM     24  C   UNL     1       4.630   3.516  12.029  0.00  0.00    +0.000 C 
ATOM     25  C   UNL     1       7.127   3.580  11.819  0.00  0.00    +0.000 C 
ENDBRANCH  21  23
ENDBRANCH  19  21
ENDBRANCH   3  19
TORSDOF 6
ENDMDL
MODEL 3
REMARK VINA RESULT:      -7.2      2.668      8.417
REMARK  Name = 
REMARK  11 active torsions:
REMARK  status: ('A' for Active; 'I' for Inactive)
REMARK    1  A    between atoms: C_1  and  C_2
REMARK    2  A    between atoms: C_3  and  N_4
REMARK    3  A    between atoms: N_4  and  C_5
REMARK    4  A    between atoms: C_5  and  C_6
REMARK    5  A    between atoms: C_5  and  C_7
REMARK    6  A    between atoms: C_7  and  C_8
REMARK    7  A    between atoms: C_7  and  C_9
REMARK    8  A    between atoms: C_13  and  C_14
REMARK    9  A    between atoms: N_16  and  C_17
REMARK   10  A    between atoms: C_17  and  C_18
REMARK   11  A    between atoms: N_22  and  C_23
REMARK                            x       y       z     vdW  Elec       q    Type
REMARK                         _______ _______ _______ _____ _____    ______ ____
ROOT
ATOM      1  C   UNL     1       2.502   8.428  17.459  0.00  0.00    +0.000 C 
ATOM      2  C   UNL     1       1.841   8.507  18.815  0.00  0.00    +0.000 A 
ATOM      3  C   UNL     1       1.121   9.666  19.234  0.00  0.00    +0.000 A 
ATOM      4  C   UNL     1       0.646   9.687  20.565  0.00  0.00    +0.000 A 
ATOM      5  C   UNL     1       0.772   8.609  21.424  0.00  0.00    +0.000 A 
ATOM      6  C   UNL     1       1.370   7.442  20.979  0.00  0.00    +0.000 A 
ATOM      7  C   UNL     1       1.923   7.377  19.688  0.00  0.00    +0.000 A 
ENDROOT
BRANCH   7   8
ATOM      8  C   UNL     1       2.538   6.053  19.285  0.00  0.00    +0.000 C 
ATOM      9  O   UNL     1       1.999   5.305  18.476  0.00  0.00    +0.000 OA
ATOM     10  N   UNL     1       3.723   5.733  19.908  0.00  0.00    +0.000 N 
ATOM     11  H   UNL     1       4.197   6.398  20.510  0.00  0.00    +0.000 HD
BRANCH  10  12
ATOM     12  C   UNL     1       4.443   4.491  19.726  0.00  0.00    +0.000 C 
BRANCH  12  13
ATOM     13  C   UNL     1       5.744   4.837  19.050  0.00  0.00    +0.000 A 
ATOM     14  N   UNL     1       6.801   5.362  19.651  0.00  0.00    +0.000 NA
ATOM     15  C   UNL     1       7.751   5.520  18.675  0.00  0.00    +0.000 A 
ATOM     16  C   UNL     1       7.279   5.084  17.461  0.00  0.00    +0.000 A 
ATOM     17  N   UNL     1       6.003   4.646  17.709  0.00  0.00    +0.000 N 
ATOM     18  C   UNL     1       5.105   4.097  16.728  0.00  0.00    +0.000 C 
ENDBRANCH  12  13
ENDBRANCH  10  12
ENDBRANCH   7   8
BRANCH   3  19
ATOM     19  N   UNL     1       0.916  10.796  18.418  0.00  0.00    +0.000 N 
ATOM     20  H   UNL     1       1.040  10.662  17.421  0.00  0.00    +0.000 HD
BRANCH  19  21
ATOM     21  C   UNL     1      -0.098  11.804  18.805  0.00  0.00    +0.000 C 
ATOM     22  C   UNL     1       0.448  13.216  18.545  0.00  0.00    +0.000 C 
BRANCH  21  23
ATOM     23  C   UNL     1      -1.483  11.594  18.131  0.00  0.00    +0.000 C 
ATOM     24  C   UNL     1      -1.687  10.223  17.483  0.00  0.00    +0.000 C 
ATOM     25  C   UNL     1      -2.634  11.891  19.098  0.00  0.00    +0.000 C 
ENDBRANCH  21  23
ENDBRANCH  19  21
ENDBRANCH   3  19
TORSDOF 6
ENDMDL
MODEL 4
REMARK VINA RESULT:      -7.1      2.814      8.633
REMARK  Name = 
REMARK  11 active torsions:
REMARK  status: ('A' for Active; 'I' for Inactive)
REMARK    1  A    between atoms: C_1  and  C_2
REMARK    2  A    between atoms: C_3  and  N_4
REMARK    3  A    between atoms: N_4  and  C_5
REMARK    4  A    between atoms: C_5  and  C_6
REMARK    5  A    between atoms: C_5  and  C_7
REMARK    6  A    between atoms: C_7  and  C_8
REMARK    7  A    between atoms: C_7  and  C_9
REMARK    8  A    between atoms: C_13  and  C_14
REMARK    9  A    between atoms: N_16  and  C_17
REMARK   10  A    between atoms: C_17  and  C_18
REMARK   11  A    between atoms: N_22  and  C_23
REMARK                            x       y       z     vdW  Elec       q    Type
REMARK                         _______ _______ _______ _____ _____    ______ ____
ROOT
ATOM      1  C   UNL     1       2.551   8.413  17.478  0.00  0.00    +0.000 C 
ATOM      2  C   UNL     1       1.873   8.502  18.826  0.00  0.00    +0.000 A 
ATOM      3  C   UNL     1       1.171   9.674  19.237  0.00  0.00    +0.000 A 
ATOM      4  C   UNL     1       0.679   9.702  20.563  0.00  0.00    +0.000 A 
ATOM      5  C   UNL     1       0.773   8.621  21.421  0.00  0.00    +0.000 A 
ATOM      6  C   UNL     1       1.354   7.443  20.982  0.00  0.00    +0.000 A 
ATOM      7  C   UNL     1       1.923   7.370  19.698  0.00  0.00    +0.000 A 
ENDROOT
BRANCH   7   8
ATOM      8  C   UNL     1       2.518   6.035  19.300  0.00  0.00    +0.000 C 
ATOM      9  O   UNL     1       1.937   5.263  18.544  0.00  0.00    +0.000 OA
ATOM     10  N   UNL     1       3.736   5.734  19.866  0.00  0.00    +0.000 N 
ATOM     11  H   UNL     1       4.241   6.418  20.421  0.00  0.00    +0.000 HD
BRANCH  10  12
ATOM     12  C   UNL     1       4.448   4.488  19.680  0.00  0.00    +0.000 C 
BRANCH  12  13
ATOM     13  C   UNL     1       5.768   4.832  19.040  0.00  0.00    +0.000 A 
ATOM     14  N   UNL     1       6.807   5.358  19.669  0.00  0.00    +0.000 NA
ATOM     15  C   UNL     1       7.784   5.512  18.720  0.00  0.00    +0.000 A 
ATOM     16  C   UNL     1       7.347   5.073  17.495  0.00  0.00    +0.000 A 
ATOM     17  N   UNL     1       6.064   4.636  17.707  0.00  0.00    +0.000 N 
ATOM     18  C   UNL     1       5.194   4.084  16.704  0.00  0.00    +0.000 C 
ENDBRANCH  12  13
ENDBRANCH  10  12
ENDBRANCH   7   8
BRANCH   3  19
ATOM     19  N   UNL     1       0.997  10.809  18.421  0.00  0.00    +0.000 N 
ATOM     20  H   UNL     1       0.322  10.727  17.670  0.00  0.00    +0.000 HD
BRANCH  19  21
ATOM     21  C   UNL     1       1.138  12.162  19.008  0.00  0.00    +0.000 C 
ATOM     22  C   UNL     1       2.233  12.940  18.262  0.00  0.00    +0.000 C 
BRANCH  21  23
ATOM     23  C   UNL     1      -0.193  12.963  19.067  0.00  0.00    +0.000 C 
ATOM     24  C   UNL     1      -0.069  14.451  18.730  0.00  0.00    +0.000 C 
ATOM     25  C   UNL     1      -1.279  12.320  18.199  0.00  0.00    +0.000 C 
ENDBRANCH  21  23
ENDBRANCH  19  21
ENDBRANCH   3  19
TORSDOF 6
ENDMDL
MODEL 5
REMARK VINA RESULT:      -6.9      2.901      3.832
REMARK  Name = 
REMARK  11 active torsions:
REMARK  status: ('A' for Active; 'I' for Inactive)
REMARK    1  A    between atoms: C_1  and  C_2
REMARK    2  A    between atoms: C_3  and  N_4
REMARK    3  A    between atoms: N_4  and  C_5
REMARK    4  A    between atoms: C_5  and  C_6
REMARK    5  A    between atoms: C_5  and  C_7
REMARK    6  A    between atoms: C_7  and  C_8
REMARK    7  A    between atoms: C_7  and  C_9
REMARK    8  A    between atoms: C_13  and  C_14
REMARK    9  A    between atoms: N_16  and  C_17
REMARK   10  A    between atoms: C_17  and  C_18
REMARK   11  A    between atoms: N_22  and  C_23
REMARK                            x       y       z     vdW  Elec       q    Type
REMARK                         _______ _______ _______ _____ _____    ______ ____
ROOT
ATOM      1  C   UNL     1       1.722   6.402  20.410  0.00  0.00    +0.000 C 
ATOM      2  C   UNL     1       2.780   6.352  19.334  0.00  0.00    +0.000 A 
ATOM      3  C   UNL     1       3.674   5.246  19.210  0.00  0.00    +0.000 A 
ATOM      4  C   UNL     1       4.706   5.353  18.249  0.00  0.00    +0.000 A 
ATOM      5  C   UNL     1       4.818   6.427  17.384  0.00  0.00    +0.000 A 
ATOM      6  C   UNL     1       3.882   7.446  17.429  0.00  0.00    +0.000 A 
ATOM      7  C   UNL     1       2.869   7.435  18.404  0.00  0.00    +0.000 A 
ENDROOT
BRANCH   7   8
ATOM      8  C   UNL     1       1.881   8.582  18.362  0.00  0.00    +0.000 C 
ATOM      9  O   UNL     1       1.520   9.091  17.306  0.00  0.00    +0.000 OA
ATOM     10  N   UNL     1       1.440   9.033  19.585  0.00  0.00    +0.000 N 
ATOM     11  H   UNL     1       1.683   8.548  20.443  0.00  0.00    +0.000 HD
BRANCH  10  12
ATOM     12  C   UNL     1       0.552  10.159  19.780  0.00  0.00    +0.000 C 
BRANCH  12  13
ATOM     13  C   UNL     1       0.107  10.120  21.218  0.00  0.00    +0.000 A 
ATOM     14  N   UNL     1       0.531   9.255  22.125  0.00  0.00    +0.000 NA
ATOM     15  C   UNL     1      -0.129   9.569  23.285  0.00  0.00    +0.000 A 
ATOM     16  C   UNL     1      -0.964  10.642  23.094  0.00  0.00    +0.000 A 
ATOM     17  N   UNL     1      -0.805  10.990  21.777  0.00  0.00    +0.000 N 
ATOM     18  C   UNL     1      -1.485  12.070  21.112  0.00  0.00    +0.000 C 
ENDBRANCH  12  13
ENDBRANCH  10  12
ENDBRANCH   7   8
BRANCH   3  19
ATOM     19  N   UNL     1       3.616   4.098  20.024  0.00  0.00    +0.000 N 
ATOM     20  H   UNL     1       3.360   4.244  20.993  0.00  0.00    +0.000 HD
BRANCH  19  21
ATOM     21  C   UNL     1       3.190   2.806  19.438  0.00  0.00    +0.000 C 
ATOM     22  C   UNL     1       4.266   1.740  19.693  0.00  0.00    +0.000 C 
BRANCH  21  23
ATOM     23  C   UNL     1       1.790   2.330  19.918  0.00  0.00    +0.000 C 
ATOM     24  C   UNL     1       1.395   2.788  21.323  0.00  0.00    +0.000 C 
ATOM     25  C   UNL     1       0.691   2.705  18.919  0.00  0.00    +0.000 C 
ENDBRANCH  21  23
ENDBRANCH  19  21
ENDBRANCH   3  19
TORSDOF 6
ENDMDL
MODEL 6
REMARK VINA RESULT:      -6.9      5.554      8.255
REMARK  Name = 
REMARK  11 active torsions:
REMARK  status: ('A' for Active; 'I' for Inactive)
REMARK    1  A    between atoms: C_1  and  C_2
REMARK    2  A    between atoms: C_3  and  N_4
REMARK    3  A    between atoms: N_4  and  C_5
REMARK    4  A    between atoms: C_5  and  C_6
REMARK    5  A    between atoms: C_5  and  C_7
REMARK    6  A    between atoms: C_7  and  C_8
REMARK    7  A    between atoms: C_7  and  C_9
REMARK    8  A    between atoms: C_13  and  C_14
REMARK    9  A    between atoms: N_16  and  C_17
REMARK   10  A    between atoms: C_17  and  C_18
REMARK   11  A    between atoms: N_22  and  C_23
REMARK                            x       y       z     vdW  Elec       q    Type
REMARK                         _______ _______ _______ _____ _____    ______ ____
ROOT
ATOM      1  C   UNL     1       4.539   3.046  16.455  0.00  0.00    +0.000 C 
ATOM      2  C   UNL     1       5.502   4.199  16.294  0.00  0.00    +0.000 A 
ATOM      3  C   UNL     1       6.383   4.292  15.176  0.00  0.00    +0.000 A 
ATOM      4  C   UNL     1       7.329   5.343  15.182  0.00  0.00    +0.000 A 
ATOM      5  C   UNL     1       7.364   6.314  16.166  0.00  0.00    +0.000 A 
ATOM      6  C   UNL     1       6.434   6.289  17.191  0.00  0.00    +0.000 A 
ATOM      7  C   UNL     1       5.509   5.234  17.281  0.00  0.00    +0.000 A 
ENDROOT
BRANCH   7   8
ATOM      8  C   UNL     1       4.518   5.303  18.425  0.00  0.00    +0.000 C 
ATOM      9  O   UNL     1       4.845   5.064  19.583  0.00  0.00    +0.000 OA
ATOM     10  N   UNL     1       3.225   5.620  18.075  0.00  0.00    +0.000 N 
ATOM     11  H   UNL     1       2.990   5.896  17.127  0.00  0.00    +0.000 HD
BRANCH  10  12
ATOM     12  C   UNL     1       2.109   5.671  18.995  0.00  0.00    +0.000 C 
BRANCH  12  13
ATOM     13  C   UNL     1       1.600   4.261  19.141  0.00  0.00    +0.000 A 
ATOM     14  N   UNL     1       1.034   3.550  18.180  0.00  0.00    +0.000 NA
ATOM     15  C   UNL     1       0.719   2.339  18.740  0.00  0.00    +0.000 A 
ATOM     16  C   UNL     1       1.099   2.299  20.059  0.00  0.00    +0.000 A 
ATOM     17  N   UNL     1       1.664   3.524  20.306  0.00  0.00    +0.000 N 
ATOM     18  C   UNL     1       2.212   3.951  21.566  0.00  0.00    +0.000 C 
ENDBRANCH  12  13
ENDBRANCH  10  12
ENDBRANCH   7   8
BRANCH   3  19
ATOM     19  N   UNL     1       6.397   3.367  14.112  0.00  0.00    +0.000 N 
ATOM     20  H   UNL     1       6.197   2.403  14.349  0.00  0.00    +0.000 HD
BRANCH  19  21
ATOM     21  C   UNL     1       5.962   3.797  12.763  0.00  0.00    +0.000 C 
ATOM     22  C   UNL     1       7.189   4.177  11.919  0.00  0.00    +0.000 C 
BRANCH  21  23
ATOM     23  C   UNL     1       5.065   2.760  12.032  0.00  0.00    +0.000 C 
ATOM     24  C   UNL     1       4.028   3.358  11.078  0.00  0.00    +0.000 C 
ATOM     25  C   UNL     1       5.900   1.705  11.300  0.00  0.00    +0.000 C 
ENDBRANCH  21  23
ENDBRANCH  19  21
ENDBRANCH   3  19
TORSDOF 6
ENDMDL
MODEL 7
REMARK VINA RESULT:      -6.8      2.938      8.488
REMARK  Name = 
REMARK  11 active torsions:
REMARK  status: ('A' for Active; 'I' for Inactive)
REMARK    1  A    between atoms: C_1  and  C_2
REMARK    2  A    between atoms: C_3  and  N_4
REMARK    3  A    between atoms: N_4  and  C_5
REMARK    4  A    between atoms: C_5  and  C_6
REMARK    5  A    between atoms: C_5  and  C_7
REMARK    6  A    between atoms: C_7  and  C_8
REMARK    7  A    between atoms: C_7  and  C_9
REMARK    8  A    between atoms: C_13  and  C_14
REMARK    9  A    between atoms: N_16  and  C_17
REMARK   10  A    between atoms: C_17  and  C_18
REMARK   11  A    between atoms: N_22  and  C_23
REMARK                            x       y       z     vdW  Elec       q    Type
REMARK                         _______ _______ _______ _____ _____    ______ ____
ROOT
ATOM      1  C   UNL     1       2.687   8.220  17.487  0.00  0.00    +0.000 C 
ATOM      2  C   UNL     1       1.998   8.318  18.828  0.00  0.00    +0.000 A 
ATOM      3  C   UNL     1       1.280   9.487  19.220  0.00  0.00    +0.000 A 
ATOM      4  C   UNL     1       0.777   9.526  20.541  0.00  0.00    +0.000 A 
ATOM      5  C   UNL     1       0.875   8.456  21.412  0.00  0.00    +0.000 A 
ATOM      6  C   UNL     1       1.472   7.279  20.992  0.00  0.00    +0.000 A 
ATOM      7  C   UNL     1       2.052   7.196  19.714  0.00  0.00    +0.000 A 
ENDROOT
BRANCH   7   8
ATOM      8  C   UNL     1       2.664   5.863  19.337  0.00  0.00    +0.000 C 
ATOM      9  O   UNL     1       2.015   4.985  18.777  0.00  0.00    +0.000 OA
ATOM     10  N   UNL     1       3.983   5.692  19.691  0.00  0.00    +0.000 N 
ATOM     11  H   UNL     1       4.527   6.457  20.077  0.00  0.00    +0.000 HD
BRANCH  10  12
ATOM     12  C   UNL     1       4.741   4.476  19.491  0.00  0.00    +0.000 C 
BRANCH  12  13
ATOM     13  C   UNL     1       5.436   4.609  18.162  0.00  0.00    +0.000 A 
ATOM     14  N   UNL     1       4.936   4.225  16.998  0.00  0.00    +0.000 NA
ATOM     15  C   UNL     1       5.892   4.521  16.060  0.00  0.00    +0.000 A 
ATOM     16  C   UNL     1       6.990   5.097  16.650  0.00  0.00    +0.000 A 
ATOM     17  N   UNL     1       6.691   5.154  17.987  0.00  0.00    +0.000 N 
ATOM     18  C   UNL     1       7.549   5.684  19.012  0.00  0.00    +0.000 C 
ENDBRANCH  12  13
ENDBRANCH  10  12
ENDBRANCH   7   8
BRANCH   3  19
ATOM     19  N   UNL     1       1.101  10.611  18.389  0.00  0.00    +0.000 N 
ATOM     20  H   UNL     1       0.414  10.521  17.650  0.00  0.00    +0.000 HD
BRANCH  19  21
ATOM     21  C   UNL     1       1.261  11.971  18.952  0.00  0.00    +0.000 C 
ATOM     22  C   UNL     1       2.334  12.737  18.164  0.00  0.00    +0.000 C 
BRANCH  21  23
ATOM     23  C   UNL     1      -0.066  12.775  19.039  0.00  0.00    +0.000 C 
ATOM     24  C   UNL     1       0.044  14.252  18.654  0.00  0.00    +0.000 C 
ATOM     25  C   UNL     1      -1.186  12.108  18.234  0.00  0.00    +0.000 C 
ENDBRANCH  21  23
ENDBRANCH  19  21
ENDBRANCH   3  19
TORSDOF 6
ENDMDL
MODEL 8
REMARK VINA RESULT:      -6.8      3.222      5.656
REMARK  Name = 
REMARK  11 active torsions:
REMARK  status: ('A' for Active; 'I' for Inactive)
REMARK    1  A    between atoms: C_1  and  C_2
REMARK    2  A    between atoms: C_3  and  N_4
REMARK    3  A    between atoms: N_4  and  C_5
REMARK    4  A    between atoms: C_5  and  C_6
REMARK    5  A    between atoms: C_5  and  C_7
REMARK    6  A    between atoms: C_7  and  C_8
REMARK    7  A    between atoms: C_7  and  C_9
REMARK    8  A    between atoms: C_13  and  C_14
REMARK    9  A    between atoms: N_16  and  C_17
REMARK   10  A    between atoms: C_17  and  C_18
REMARK   11  A    between atoms: N_22  and  C_23
REMARK                            x       y       z     vdW  Elec       q    Type
REMARK                         _______ _______ _______ _____ _____    ______ ____
ROOT
ATOM      1  C   UNL     1       2.963   5.673  17.740  0.00  0.00    +0.000 C 
ATOM      2  C   UNL     1       3.386   4.570  18.682  0.00  0.00    +0.000 A 
ATOM      3  C   UNL     1       4.450   3.675  18.361  0.00  0.00    +0.000 A 
ATOM      4  C   UNL     1       4.684   2.602  19.252  0.00  0.00    +0.000 A 
ATOM      5  C   UNL     1       3.995   2.451  20.442  0.00  0.00    +0.000 A 
ATOM      6  C   UNL     1       3.040   3.385  20.807  0.00  0.00    +0.000 A 
ATOM      7  C   UNL     1       2.711   4.439  19.936  0.00  0.00    +0.000 A 
ENDROOT
BRANCH   7   8
ATOM      8  C   UNL     1       1.670   5.421  20.430  0.00  0.00    +0.000 C 
ATOM      9  O   UNL     1       0.489   5.110  20.555  0.00  0.00    +0.000 OA
ATOM     10  N   UNL     1       2.129   6.690  20.700  0.00  0.00    +0.000 N 
ATOM     11  H   UNL     1       3.120   6.907  20.672  0.00  0.00    +0.000 HD
BRANCH  10  12
ATOM     12  C   UNL     1       1.297   7.799  21.114  0.00  0.00    +0.000 C 
BRANCH  12  13
ATOM     13  C   UNL     1       1.302   8.794  19.983  0.00  0.00    +0.000 A 
ATOM     14  N   UNL     1       1.893   8.615  18.812  0.00  0.00    +0.000 NA
ATOM     15  C   UNL     1       1.657   9.757  18.091  0.00  0.00    +0.000 A 
ATOM     16  C   UNL     1       0.909  10.648  18.822  0.00  0.00    +0.000 A 
ATOM     17  N   UNL     1       0.682  10.025  20.022  0.00  0.00    +0.000 N 
ATOM     18  C   UNL     1      -0.064  10.579  21.121  0.00  0.00    +0.000 C 
ENDBRANCH  12  13
ENDBRANCH  10  12
ENDBRANCH   7   8
BRANCH   3  19
ATOM     19  N   UNL     1       5.226   3.771  17.190  0.00  0.00    +0.000 N 
ATOM     20  H   UNL     1       4.720   3.884  16.320  0.00  0.00    +0.000 HD
BRANCH  19  21
ATOM     21  C   UNL     1       6.556   4.422  17.244  0.00  0.00    +0.000 C 
ATOM     22  C   UNL     1       7.037   4.739  15.820  0.00  0.00    +0.000 C 
BRANCH  21  23
ATOM     23  C   UNL     1       6.603   5.679  18.157  0.00  0.00    +0.000 C 
ATOM     24  C   UNL     1       7.729   5.687  19.193  0.00  0.00    +0.000 C 
ATOM     25  C   UNL     1       6.640   6.972  17.337  0.00  0.00    +0.000 C 
ENDBRANCH  21  23
ENDBRANCH  19  21
ENDBRANCH   3  19
TORSDOF 6
ENDMDL
MODEL 9
REMARK VINA RESULT:      -6.8      1.974      2.995
REMARK  Name = 
REMARK  11 active torsions:
REMARK  status: ('A' for Active; 'I' for Inactive)
REMARK    1  A    between atoms: C_1  and  C_2
REMARK    2  A    between atoms: C_3  and  N_4
REMARK    3  A    between atoms: N_4  and  C_5
REMARK    4  A    between atoms: C_5  and  C_6
REMARK    5  A    between atoms: C_5  and  C_7
REMARK    6  A    between atoms: C_7  and  C_8
REMARK    7  A    between atoms: C_7  and  C_9
REMARK    8  A    between atoms: C_13  and  C_14
REMARK    9  A    between atoms: N_16  and  C_17
REMARK   10  A    between atoms: C_17  and  C_18
REMARK   11  A    between atoms: N_22  and  C_23
REMARK                            x       y       z     vdW  Elec       q    Type
REMARK                         _______ _______ _______ _____ _____    ______ ____
ROOT
ATOM      1  C   UNL     1       1.209   7.708  20.795  0.00  0.00    +0.000 C 
ATOM      2  C   UNL     1       2.122   7.465  19.617  0.00  0.00    +0.000 A 
ATOM      3  C   UNL     1       2.962   6.314  19.543  0.00  0.00    +0.000 A 
ATOM      4  C   UNL     1       3.869   6.242  18.460  0.00  0.00    +0.000 A 
ATOM      5  C   UNL     1       3.900   7.183  17.446  0.00  0.00    +0.000 A 
ATOM      6  C   UNL     1       3.006   8.239  17.459  0.00  0.00    +0.000 A 
ATOM      7  C   UNL     1       2.123   8.406  18.540  0.00  0.00    +0.000 A 
ENDROOT
BRANCH   7   8
ATOM      8  C   UNL     1       1.170   9.580  18.456  0.00  0.00    +0.000 C 
ATOM      9  O   UNL     1       0.100   9.507  17.861  0.00  0.00    +0.000 OA
ATOM     10  N   UNL     1       1.596  10.738  19.065  0.00  0.00    +0.000 N 
ATOM     11  H   UNL     1       2.443  10.757  19.624  0.00  0.00    +0.000 HD
BRANCH  10  12
ATOM     12  C   UNL     1       0.878  11.994  19.046  0.00  0.00    +0.000 C 
BRANCH  12  13
ATOM     13  C   UNL     1       0.014  12.021  20.280  0.00  0.00    +0.000 A 
ATOM     14  N   UNL     1       0.463  12.066  21.525  0.00  0.00    +0.000 NA
ATOM     15  C   UNL     1      -0.649  12.069  22.327  0.00  0.00    +0.000 A 
ATOM     16  C   UNL     1      -1.795  12.033  21.571  0.00  0.00    +0.000 A 
ATOM     17  N   UNL     1      -1.365  12.007  20.269  0.00  0.00    +0.000 N 
ATOM     18  C   UNL     1      -2.216  11.964  19.110  0.00  0.00    +0.000 C 
ENDBRANCH  12  13
ENDBRANCH  10  12
ENDBRANCH   7   8
BRANCH   3  19
ATOM     19  N   UNL     1       2.975   5.291  20.512  0.00  0.00    +0.000 N 
ATOM     20  H   UNL     1       2.663   5.546  21.442  0.00  0.00    +0.000 HD
BRANCH  19  21
ATOM     21  C   UNL     1       2.699   3.894  20.105  0.00  0.00    +0.000 C 
ATOM     22  C   UNL     1       2.409   3.039  21.348  0.00  0.00    +0.000 C 
BRANCH  21  23
ATOM     23  C   UNL     1       1.571   3.760  19.045  0.00  0.00    +0.000 C 
ATOM     24  C   UNL     1       2.049   3.446  17.625  0.00  0.00    +0.000 C 
ATOM     25  C   UNL     1       0.508   2.743  19.474  0.00  0.00    +0.000 C 
ENDBRANCH  21  23
ENDBRANCH  19  21
ENDBRANCH   3  19
TORSDOF 6
ENDMDL
