MODEL 1
REMARK VINA RESULT:      -8.8      0.000      0.000
REMARK  Name = 
REMARK  6 active torsions:
REMARK  status: ('A' for Active; 'I' for Inactive)
REMARK    1  A    between atoms: C_2  and  O_3
REMARK    2  A    between atoms: C_2  and  C_4
REMARK    3  A    between atoms: N_8  and  C_24
REMARK    4  A    between atoms: C_9  and  C_11
REMARK    5  A    between atoms: C_14  and  O_15
REMARK    6  A    between atoms: O_15  and  C_16
REMARK                            x       y       z     vdW  Elec       q    Type
REMARK                         _______ _______ _______ _____ _____    ______ ____
ROOT
ATOM      1  C   UNL     1       5.828   4.943  15.672  0.00  0.00    +0.000 A 
ATOM      2  C   UNL     1       5.400   4.009  16.593  0.00  0.00    +0.000 A 
ATOM      3  N   UNL     1       4.426   4.445  17.451  0.00  0.00    +0.000 NA
ATOM      4  C   UNL     1       4.089   5.694  17.225  0.00  0.00    +0.000 A 
ATOM      5  N   UNL     1       2.985   6.274  17.892  0.00  0.00    +0.000 N 
ATOM      6  C   UNL     1       2.914   7.694  18.050  0.00  0.00    +0.000 C 
ATOM      7  O   UNL     1       3.675   8.484  17.485  0.00  0.00    +0.000 OA
ATOM      8  S   UNL     1       5.017   6.432  15.982  0.00  0.00    +0.000 S 
ENDROOT
BRANCH   5   9
ATOM      9  C   UNL     1       2.002   5.339  18.521  0.00  0.00    +0.000 C 
ATOM     10  C   UNL     1       2.423   4.856  19.924  0.00  0.00    +0.000 C 
ATOM     11  C   UNL     1       3.361   3.682  20.018  0.00  0.00    +0.000 C 
ATOM     12  S   UNL     1       2.784   2.269  19.112  0.00  0.00    +0.000 S 
ATOM     13  O   UNL     1       3.939   1.435  18.836  0.00  0.00    +0.000 OA
ATOM     14  O   UNL     1       1.646   1.745  19.857  0.00  0.00    +0.000 OA
ATOM     15  C   UNL     1       2.154   2.884  17.566  0.00  0.00    +0.000 C 
ATOM     16  C   UNL     1       1.416   4.209  17.649  0.00  0.00    +0.000 C 
ENDBRANCH   5   9
BRANCH   6  17
ATOM     17  C   UNL     1       1.881   8.367  18.949  0.00  0.00    +0.000 A 
ATOM     18  C   UNL     1       1.791   8.206  20.337  0.00  0.00    +0.000 A 
ATOM     19  C   UNL     1       0.885   8.885  21.141  0.00  0.00    +0.000 A 
ATOM     20  C   UNL     1       0.073   9.835  20.574  0.00  0.00    +0.000 A 
ATOM     21  C   UNL     1       0.090  10.018  19.190  0.00  0.00    +0.000 A 
ATOM     22  C   UNL     1       1.000   9.301  18.386  0.00  0.00    +0.000 A 
BRANCH  20  23
ATOM     23  O   UNL     1      -0.708  10.518  21.459  0.00  0.00    +0.000 OA
BRANCH  23  24
ATOM     24  C   UNL     1      -0.387  11.816  21.770  0.00  0.00    +0.000 A 
ATOM     25  C   UNL     1      -1.163  12.373  22.784  0.00  0.00    +0.000 A 
ATOM     26  C   UNL     1      -1.022  13.719  23.107  0.00  0.00    +0.000 A 
ATOM     27  C   UNL     1      -0.093  14.501  22.424  0.00  0.00    +0.000 A 
ATOM     28  C   UNL     1       0.741  13.927  21.466  0.00  0.00    +0.000 A 
ATOM     29  C   UNL     1       0.618  12.573  21.162  0.00  0.00    +0.000 A 
ENDBRANCH  23  24
ENDBRANCH  20  23
ENDBRANCH   6  17
BRANCH   1  31
ATOM     30  O   UNL     1       6.617   3.858  13.729  0.00  0.00    +0.000 OA
ATOM     31  C   UNL     1       6.768   4.697  14.607  0.00  0.00    +0.000 C 
BRANCH  31  32
ATOM     32  O   UNL     1       7.864   5.493  14.647  0.00  0.00    +0.000 OA
ATOM     33  H   UNL     1       7.631   6.438  14.610  0.00  0.00    +0.000 HD
ENDBRANCH  31  32
ENDBRANCH   1  31
TORSDOF 6
ENDMDL
MODEL 2
REMARK VINA RESULT:      -8.7      0.709      1.089
REMARK  Name = 
REMARK  6 active torsions:
REMARK  status: ('A' for Active; 'I' for Inactive)
REMARK    1  A    between atoms: C_2  and  O_3
REMARK    2  A    between atoms: C_2  and  C_4
REMARK    3  A    between atoms: N_8  and  C_24
REMARK    4  A    between atoms: C_9  and  C_11
REMARK    5  A    between atoms: C_14  and  O_15
REMARK    6  A    between atoms: O_15  and  C_16
REMARK                            x       y       z     vdW  Elec       q    Type
REMARK                         _______ _______ _______ _____ _____    ______ ____
ROOT
ATOM      1  C   UNL     1       5.891   4.948  15.774  0.00  0.00    +0.000 A 
ATOM      2  C   UNL     1       5.444   4.022  16.693  0.00  0.00    +0.000 A 
ATOM      3  N   UNL     1       4.448   4.463  17.524  0.00  0.00    +0.000 NA
ATOM      4  C   UNL     1       4.113   5.708  17.279  0.00  0.00    +0.000 A 
ATOM      5  N   UNL     1       2.993   6.290  17.915  0.00  0.00    +0.000 N 
ATOM      6  C   UNL     1       2.914   7.712  18.058  0.00  0.00    +0.000 C 
ATOM      7  O   UNL     1       3.686   8.499  17.504  0.00  0.00    +0.000 OA
ATOM      8  S   UNL     1       5.069   6.438  16.051  0.00  0.00    +0.000 S 
ENDROOT
BRANCH   5   9
ATOM      9  C   UNL     1       1.998   5.359  18.529  0.00  0.00    +0.000 C 
ATOM     10  C   UNL     1       2.397   4.873  19.938  0.00  0.00    +0.000 C 
ATOM     11  C   UNL     1       3.331   3.696  20.044  0.00  0.00    +0.000 C 
ATOM     12  S   UNL     1       2.761   2.286  19.129  0.00  0.00    +0.000 S 
ATOM     13  O   UNL     1       3.917   1.448  18.868  0.00  0.00    +0.000 OA
ATOM     14  O   UNL     1       1.611   1.765  19.857  0.00  0.00    +0.000 OA
ATOM     15  C   UNL     1       2.155   2.903  17.574  0.00  0.00    +0.000 C 
ATOM     16  C   UNL     1       1.421   4.231  17.648  0.00  0.00    +0.000 C 
ENDBRANCH   5   9
BRANCH   6  17
ATOM     17  C   UNL     1       1.858   8.390  18.926  0.00  0.00    +0.000 A 
ATOM     18  C   UNL     1       1.747   8.254  20.315  0.00  0.00    +0.000 A 
ATOM     19  C   UNL     1       0.819   8.938  21.091  0.00  0.00    +0.000 A 
ATOM     20  C   UNL     1       0.006   9.868  20.492  0.00  0.00    +0.000 A 
ATOM     21  C   UNL     1       0.044  10.024  19.105  0.00  0.00    +0.000 A 
ATOM     22  C   UNL     1       0.976   9.302  18.331  0.00  0.00    +0.000 A 
BRANCH  20  23
ATOM     23  O   UNL     1      -0.798  10.559  21.351  0.00  0.00    +0.000 OA
BRANCH  23  24
ATOM     24  C   UNL     1      -0.954  11.910  21.176  0.00  0.00    +0.000 A 
ATOM     25  C   UNL     1       0.171  12.665  21.500  0.00  0.00    +0.000 A 
ATOM     26  C   UNL     1       0.102  14.055  21.486  0.00  0.00    +0.000 A 
ATOM     27  C   UNL     1      -1.089  14.686  21.134  0.00  0.00    +0.000 A 
ATOM     28  C   UNL     1      -2.190  13.934  20.731  0.00  0.00    +0.000 A 
ATOM     29  C   UNL     1      -2.114  12.543  20.719  0.00  0.00    +0.000 A 
ENDBRANCH  23  24
ENDBRANCH  20  23
ENDBRANCH   6  17
BRANCH   1  31
ATOM     30  O   UNL     1       7.848   5.383  14.527  0.00  0.00    +0.000 OA
ATOM     31  C   UNL     1       6.856   4.696  14.734  0.00  0.00    +0.000 C 
BRANCH  31  32
ATOM     32  O   UNL     1       6.580   3.604  13.981  0.00  0.00    +0.000 OA
ATOM     33  H   UNL     1       7.058   3.614  13.133  0.00  0.00    +0.000 HD
ENDBRANCH  31  32
ENDBRANCH   1  31
TORSDOF 6
ENDMDL
MODEL 3
REMARK VINA RESULT:      -8.5      1.220      1.335
REMARK  Name = 
REMARK  6 active torsions:
REMARK  status: ('A' for Active; 'I' for Inactive)
REMARK    1  A    between atoms: C_2  and  O_3
REMARK    2  A    between atoms: C_2  and  C_4
REMARK    3  A    between atoms: N_8  and  C_24
REMARK    4  A    between atoms: C_9  and  C_11
REMARK    5  A    between atoms: C_14  and  O_15
REMARK    6  A    between atoms: O_15  and  C_16
REMARK                            x       y       z     vdW  Elec       q    Type
REMARK                         _______ _______ _______ _____ _____    ______ ____
ROOT
ATOM      1  C   UNL     1       6.109   5.060  17.133  0.00  0.00    +0.000 A 
ATOM      2  C   UNL     1       5.499   4.285  18.096  0.00  0.00    +0.000 A 
ATOM      3  N   UNL     1       4.349   4.812  18.622  0.00  0.00    +0.000 NA
ATOM      4  C   UNL     1       4.052   5.978  18.097  0.00  0.00    +0.000 A 
ATOM      5  N   UNL     1       2.818   6.604  18.385  0.00  0.00    +0.000 N 
ATOM      6  C   UNL     1       2.691   8.024  18.252  0.00  0.00    +0.000 C 
ATOM      7  O   UNL     1       3.548   8.742  17.730  0.00  0.00    +0.000 OA
ATOM      8  S   UNL     1       5.226   6.533  16.971  0.00  0.00    +0.000 S 
ENDROOT
BRANCH   5   9
ATOM      9  C   UNL     1       1.732   5.744  18.948  0.00  0.00    +0.000 C 
ATOM     10  C   UNL     1       1.755   5.654  20.488  0.00  0.00    +0.000 C 
ATOM     11  C   UNL     1       2.672   4.644  21.125  0.00  0.00    +0.000 C 
ATOM     12  S   UNL     1       2.430   3.003  20.493  0.00  0.00    +0.000 S 
ATOM     13  O   UNL     1       3.646   2.258  20.757  0.00  0.00    +0.000 OA
ATOM     14  O   UNL     1       1.147   2.549  21.018  0.00  0.00    +0.000 OA
ATOM     15  C   UNL     1       2.243   3.164  18.731  0.00  0.00    +0.000 C 
ATOM     16  C   UNL     1       1.462   4.384  18.272  0.00  0.00    +0.000 C 
ENDBRANCH   5   9
BRANCH   6  17
ATOM     17  C   UNL     1       1.471   8.787  18.760  0.00  0.00    +0.000 A 
ATOM     18  C   UNL     1       1.129   8.958  20.107  0.00  0.00    +0.000 A 
ATOM     19  C   UNL     1       0.051   9.717  20.545  0.00  0.00    +0.000 A 
ATOM     20  C   UNL     1      -0.689  10.417  19.624  0.00  0.00    +0.000 A 
ATOM     21  C   UNL     1      -0.419  10.260  18.262  0.00  0.00    +0.000 A 
ATOM     22  C   UNL     1       0.665   9.465  17.836  0.00  0.00    +0.000 A 
BRANCH  20  23
ATOM     23  O   UNL     1      -1.659  11.212  20.159  0.00  0.00    +0.000 OA
BRANCH  23  24
ATOM     24  C   UNL     1      -1.301  12.201  21.039  0.00  0.00    +0.000 A 
ATOM     25  C   UNL     1      -1.785  12.020  22.334  0.00  0.00    +0.000 A 
ATOM     26  C   UNL     1      -1.597  13.014  23.289  0.00  0.00    +0.000 A 
ATOM     27  C   UNL     1      -0.914  14.180  22.952  0.00  0.00    +0.000 A 
ATOM     28  C   UNL     1      -0.359  14.328  21.682  0.00  0.00    +0.000 A 
ATOM     29  C   UNL     1      -0.523  13.321  20.733  0.00  0.00    +0.000 A 
ENDBRANCH  23  24
ENDBRANCH  20  23
ENDBRANCH   6  17
BRANCH   1  31
ATOM     30  O   UNL     1       7.421   4.923  15.175  0.00  0.00    +0.000 OA
ATOM     31  C   UNL     1       7.269   4.682  16.366  0.00  0.00    +0.000 C 
BRANCH  31  32
ATOM     32  O   UNL     1       8.211   4.023  17.083  0.00  0.00    +0.000 OA
ATOM     33  H   UNL     1       8.110   3.056  17.017  0.00  0.00    +0.000 HD
ENDBRANCH  31  32
ENDBRANCH   1  31
TORSDOF 6
ENDMDL
MODEL 4
REMARK VINA RESULT:      -8.5      1.720      2.032
REMARK  Name = 
REMARK  6 active torsions:
REMARK  status: ('A' for Active; 'I' for Inactive)
REMARK    1  A    between atoms: C_2  and  O_3
REMARK    2  A    between atoms: C_2  and  C_4
REMARK    3  A    between atoms: N_8  and  C_24
REMARK    4  A    between atoms: C_9  and  C_11
REMARK    5  A    between atoms: C_14  and  O_15
REMARK    6  A    between atoms: O_15  and  C_16
REMARK                            x       y       z     vdW  Elec       q    Type
REMARK                         _______ _______ _______ _____ _____    ______ ____
ROOT
ATOM      1  C   UNL     1       6.230   4.996  17.517  0.00  0.00    +0.000 A 
ATOM      2  C   UNL     1       5.558   4.279  18.484  0.00  0.00    +0.000 A 
ATOM      3  N   UNL     1       4.367   4.823  18.888  0.00  0.00    +0.000 NA
ATOM      4  C   UNL     1       4.099   5.946  18.264  0.00  0.00    +0.000 A 
ATOM      5  N   UNL     1       2.840   6.573  18.419  0.00  0.00    +0.000 N 
ATOM      6  C   UNL     1       2.710   7.977  18.181  0.00  0.00    +0.000 C 
ATOM      7  O   UNL     1       3.596   8.671  17.674  0.00  0.00    +0.000 OA
ATOM      8  S   UNL     1       5.347   6.441  17.191  0.00  0.00    +0.000 S 
ENDROOT
BRANCH   5   9
ATOM      9  C   UNL     1       1.725   5.736  18.959  0.00  0.00    +0.000 C 
ATOM     10  C   UNL     1       1.674   5.700  20.500  0.00  0.00    +0.000 C 
ATOM     11  C   UNL     1       2.555   4.709  21.215  0.00  0.00    +0.000 C 
ATOM     12  S   UNL     1       2.334   3.048  20.629  0.00  0.00    +0.000 S 
ATOM     13  O   UNL     1       3.533   2.307  20.976  0.00  0.00    +0.000 OA
ATOM     14  O   UNL     1       1.026   2.618  21.107  0.00  0.00    +0.000 OA
ATOM     15  C   UNL     1       2.231   3.148  18.855  0.00  0.00    +0.000 C 
ATOM     16  C   UNL     1       1.480   4.355  18.318  0.00  0.00    +0.000 C 
ENDBRANCH   5   9
BRANCH   6  17
ATOM     17  C   UNL     1       1.449   8.756  18.546  0.00  0.00    +0.000 A 
ATOM     18  C   UNL     1       1.156   9.268  19.815  0.00  0.00    +0.000 A 
ATOM     19  C   UNL     1       0.033  10.034  20.103  0.00  0.00    +0.000 A 
ATOM     20  C   UNL     1      -0.812  10.389  19.081  0.00  0.00    +0.000 A 
ATOM     21  C   UNL     1      -0.593   9.881  17.799  0.00  0.00    +0.000 A 
ATOM     22  C   UNL     1       0.540   9.084  17.530  0.00  0.00    +0.000 A 
BRANCH  20  23
ATOM     23  O   UNL     1      -1.826  11.225  19.445  0.00  0.00    +0.000 OA
BRANCH  23  24
ATOM     24  C   UNL     1      -1.543  12.539  19.719  0.00  0.00    +0.000 A 
ATOM     25  C   UNL     1      -0.770  13.174  18.749  0.00  0.00    +0.000 A 
ATOM     26  C   UNL     1      -0.310  14.469  18.967  0.00  0.00    +0.000 A 
ATOM     27  C   UNL     1      -0.636  15.131  20.149  0.00  0.00    +0.000 A 
ATOM     28  C   UNL     1      -1.476  14.528  21.083  0.00  0.00    +0.000 A 
ATOM     29  C   UNL     1      -1.959  13.242  20.853  0.00  0.00    +0.000 A 
ENDBRANCH  23  24
ENDBRANCH  20  23
ENDBRANCH   6  17
BRANCH   1  31
ATOM     30  O   UNL     1       7.675   4.729  15.670  0.00  0.00    +0.000 OA
ATOM     31  C   UNL     1       7.446   4.583  16.863  0.00  0.00    +0.000 C 
BRANCH  31  32
ATOM     32  O   UNL     1       8.348   4.008  17.694  0.00  0.00    +0.000 OA
ATOM     33  H   UNL     1       9.088   3.603  17.207  0.00  0.00    +0.000 HD
ENDBRANCH  31  32
ENDBRANCH   1  31
TORSDOF 6
ENDMDL
MODEL 5
REMARK VINA RESULT:      -8.5      2.482      3.039
REMARK  Name = 
REMARK  6 active torsions:
REMARK  status: ('A' for Active; 'I' for Inactive)
REMARK    1  A    between atoms: C_2  and  O_3
REMARK    2  A    between atoms: C_2  and  C_4
REMARK    3  A    between atoms: N_8  and  C_24
REMARK    4  A    between atoms: C_9  and  C_11
REMARK    5  A    between atoms: C_14  and  O_15
REMARK    6  A    between atoms: O_15  and  C_16
REMARK                            x       y       z     vdW  Elec       q    Type
REMARK                         _______ _______ _______ _____ _____    ______ ____
ROOT
ATOM      1  C   UNL     1       6.201   5.011  17.518  0.00  0.00    +0.000 A 
ATOM      2  C   UNL     1       5.533   4.300  18.492  0.00  0.00    +0.000 A 
ATOM      3  N   UNL     1       4.346   4.850  18.900  0.00  0.00    +0.000 NA
ATOM      4  C   UNL     1       4.077   5.971  18.273  0.00  0.00    +0.000 A 
ATOM      5  N   UNL     1       2.822   6.602  18.431  0.00  0.00    +0.000 N 
ATOM      6  C   UNL     1       2.694   8.006  18.187  0.00  0.00    +0.000 C 
ATOM      7  O   UNL     1       3.579   8.694  17.672  0.00  0.00    +0.000 OA
ATOM      8  S   UNL     1       5.321   6.457  17.190  0.00  0.00    +0.000 S 
ENDROOT
BRANCH   5   9
ATOM      9  C   UNL     1       1.707   5.771  18.981  0.00  0.00    +0.000 C 
ATOM     10  C   UNL     1       1.680   5.722  20.523  0.00  0.00    +0.000 C 
ATOM     11  C   UNL     1       2.562   4.717  21.216  0.00  0.00    +0.000 C 
ATOM     12  S   UNL     1       2.316   3.064  20.620  0.00  0.00    +0.000 S 
ATOM     13  O   UNL     1       3.514   2.309  20.943  0.00  0.00    +0.000 OA
ATOM     14  O   UNL     1       1.012   2.641  21.115  0.00  0.00    +0.000 OA
ATOM     15  C   UNL     1       2.188   3.179  18.849  0.00  0.00    +0.000 C 
ATOM     16  C   UNL     1       1.440   4.397  18.334  0.00  0.00    +0.000 C 
ENDBRANCH   5   9
BRANCH   6  17
ATOM     17  C   UNL     1       1.437   8.789  18.556  0.00  0.00    +0.000 A 
ATOM     18  C   UNL     1       1.111   9.233  19.843  0.00  0.00    +0.000 A 
ATOM     19  C   UNL     1      -0.005  10.005  20.139  0.00  0.00    +0.000 A 
ATOM     20  C   UNL     1      -0.807  10.439  19.112  0.00  0.00    +0.000 A 
ATOM     21  C   UNL     1      -0.554  10.001  17.810  0.00  0.00    +0.000 A 
ATOM     22  C   UNL     1       0.571   9.197  17.532  0.00  0.00    +0.000 A 
BRANCH  20  23
ATOM     23  O   UNL     1      -1.816  11.274  19.491  0.00  0.00    +0.000 OA
BRANCH  23  24
ATOM     24  C   UNL     1      -2.891  11.444  18.655  0.00  0.00    +0.000 A 
ATOM     25  C   UNL     1      -3.992  12.053  19.253  0.00  0.00    +0.000 A 
ATOM     26  C   UNL     1      -5.187  12.170  18.549  0.00  0.00    +0.000 A 
ATOM     27  C   UNL     1      -5.272  11.691  17.243  0.00  0.00    +0.000 A 
ATOM     28  C   UNL     1      -4.149  11.156  16.616  0.00  0.00    +0.000 A 
ATOM     29  C   UNL     1      -2.945  11.063  17.312  0.00  0.00    +0.000 A 
ENDBRANCH  23  24
ENDBRANCH  20  23
ENDBRANCH   6  17
BRANCH   1  31
ATOM     30  O   UNL     1       7.636   4.731  15.663  0.00  0.00    +0.000 OA
ATOM     31  C   UNL     1       7.412   4.592  16.859  0.00  0.00    +0.000 C 
BRANCH  31  32
ATOM     32  O   UNL     1       8.318   4.018  17.688  0.00  0.00    +0.000 OA
ATOM     33  H   UNL     1       9.163   4.503  17.697  0.00  0.00    +0.000 HD
ENDBRANCH  31  32
ENDBRANCH   1  31
TORSDOF 6
ENDMDL
MODEL 6
REMARK VINA RESULT:      -8.1      0.955      1.116
REMARK  Name = 
REMARK  6 active torsions:
REMARK  status: ('A' for Active; 'I' for Inactive)
REMARK    1  A    between atoms: C_2  and  O_3
REMARK    2  A    between atoms: C_2  and  C_4
REMARK    3  A    between atoms: N_8  and  C_24
REMARK    4  A    between atoms: C_9  and  C_11
REMARK    5  A    between atoms: C_14  and  O_15
REMARK    6  A    between atoms: O_15  and  C_16
REMARK                            x       y       z     vdW  Elec       q    Type
REMARK                         _______ _______ _______ _____ _____    ______ ____
ROOT
ATOM      1  C   UNL     1       5.885   4.927  16.135  0.00  0.00    +0.000 A 
ATOM      2  C   UNL     1       5.431   4.110  17.149  0.00  0.00    +0.000 A 
ATOM      3  N   UNL     1       4.396   4.622  17.887  0.00  0.00    +0.000 NA
ATOM      4  C   UNL     1       4.037   5.816  17.476  0.00  0.00    +0.000 A 
ATOM      5  N   UNL     1       2.880   6.439  17.998  0.00  0.00    +0.000 N 
ATOM      6  C   UNL     1       2.760   7.865  17.957  0.00  0.00    +0.000 C 
ATOM      7  O   UNL     1       3.530   8.599  17.332  0.00  0.00    +0.000 OA
ATOM      8  S   UNL     1       5.015   6.414  16.195  0.00  0.00    +0.000 S 
ENDROOT
BRANCH   5   9
ATOM      9  C   UNL     1       1.889   5.563  18.694  0.00  0.00    +0.000 C 
ATOM     10  C   UNL     1       2.195   5.358  20.192  0.00  0.00    +0.000 C 
ATOM     11  C   UNL     1       3.179   4.283  20.574  0.00  0.00    +0.000 C 
ATOM     12  S   UNL     1       2.765   2.700  19.886  0.00  0.00    +0.000 S 
ATOM     13  O   UNL     1       3.983   1.911  19.864  0.00  0.00    +0.000 OA
ATOM     14  O   UNL     1       1.588   2.236  20.610  0.00  0.00    +0.000 OA
ATOM     15  C   UNL     1       2.259   2.996  18.206  0.00  0.00    +0.000 C 
ATOM     16  C   UNL     1       1.450   4.263  17.988  0.00  0.00    +0.000 C 
ENDBRANCH   5   9
BRANCH   6  17
ATOM     17  C   UNL     1       1.657   8.614  18.700  0.00  0.00    +0.000 A 
ATOM     18  C   UNL     1       1.524   8.682  20.091  0.00  0.00    +0.000 A 
ATOM     19  C   UNL     1       0.551   9.430  20.743  0.00  0.00    +0.000 A 
ATOM     20  C   UNL     1      -0.290  10.221  20.001  0.00  0.00    +0.000 A 
ATOM     21  C   UNL     1      -0.230  10.170  18.606  0.00  0.00    +0.000 A 
ATOM     22  C   UNL     1       0.749   9.386  17.962  0.00  0.00    +0.000 A 
BRANCH  20  23
ATOM     23  O   UNL     1      -1.141  10.993  20.735  0.00  0.00    +0.000 OA
BRANCH  23  24
ATOM     24  C   UNL     1      -0.943  12.351  20.776  0.00  0.00    +0.000 A 
ATOM     25  C   UNL     1      -2.116  13.101  20.819  0.00  0.00    +0.000 A 
ATOM     26  C   UNL     1      -2.056  14.489  20.737  0.00  0.00    +0.000 A 
ATOM     27  C   UNL     1      -0.821  15.123  20.627  0.00  0.00    +0.000 A 
ATOM     28  C   UNL     1       0.358  14.380  20.666  0.00  0.00    +0.000 A 
ATOM     29  C   UNL     1       0.299  12.992  20.775  0.00  0.00    +0.000 A 
ENDBRANCH  23  24
ENDBRANCH  20  23
ENDBRANCH   6  17
BRANCH   1  31
ATOM     30  O   UNL     1       8.035   5.011  15.164  0.00  0.00    +0.000 OA
ATOM     31  C   UNL     1       6.891   4.575  15.165  0.00  0.00    +0.000 C 
BRANCH  31  32
ATOM     32  O   UNL     1       6.467   3.692  14.229  0.00  0.00    +0.000 OA
ATOM     33  H   UNL     1       5.495   3.633  14.196  0.00  0.00    +0.000 HD
ENDBRANCH  31  32
ENDBRANCH   1  31
TORSDOF 6
ENDMDL
MODEL 7
REMARK VINA RESULT:      -7.9      2.452      3.175
REMARK  Name = 
REMARK  6 active torsions:
REMARK  status: ('A' for Active; 'I' for Inactive)
REMARK    1  A    between atoms: C_2  and  O_3
REMARK    2  A    between atoms: C_2  and  C_4
REMARK    3  A    between atoms: N_8  and  C_24
REMARK    4  A    between atoms: C_9  and  C_11
REMARK    5  A    between atoms: C_14  and  O_15
REMARK    6  A    between atoms: O_15  and  C_16
REMARK                            x       y       z     vdW  Elec       q    Type
REMARK                         _______ _______ _______ _____ _____    ______ ____
ROOT
ATOM      1  C   UNL     1       6.210   5.057  17.507  0.00  0.00    +0.000 A 
ATOM      2  C   UNL     1       5.536   4.338  18.471  0.00  0.00    +0.000 A 
ATOM      3  N   UNL     1       4.346   4.884  18.876  0.00  0.00    +0.000 NA
ATOM      4  C   UNL     1       4.081   6.010  18.256  0.00  0.00    +0.000 A 
ATOM      5  N   UNL     1       2.824   6.638  18.412  0.00  0.00    +0.000 N 
ATOM      6  C   UNL     1       2.697   8.044  18.178  0.00  0.00    +0.000 C 
ATOM      7  O   UNL     1       3.585   8.738  17.675  0.00  0.00    +0.000 OA
ATOM      8  S   UNL     1       5.331   6.505  17.186  0.00  0.00    +0.000 S 
ENDROOT
BRANCH   5   9
ATOM      9  C   UNL     1       1.706   5.803  18.948  0.00  0.00    +0.000 C 
ATOM     10  C   UNL     1       1.668   5.741  20.489  0.00  0.00    +0.000 C 
ATOM     11  C   UNL     1       2.546   4.732  21.180  0.00  0.00    +0.000 C 
ATOM     12  S   UNL     1       2.306   3.083  20.569  0.00  0.00    +0.000 S 
ATOM     13  O   UNL     1       3.502   2.327  20.893  0.00  0.00    +0.000 OA
ATOM     14  O   UNL     1       0.999   2.655  21.052  0.00  0.00    +0.000 OA
ATOM     15  C   UNL     1       2.189   3.213  18.798  0.00  0.00    +0.000 C 
ATOM     16  C   UNL     1       1.444   4.434  18.287  0.00  0.00    +0.000 C 
ENDBRANCH   5   9
BRANCH   6  17
ATOM     17  C   UNL     1       1.437   8.824  18.545  0.00  0.00    +0.000 A 
ATOM     18  C   UNL     1       1.111   9.272  19.830  0.00  0.00    +0.000 A 
ATOM     19  C   UNL     1      -0.008  10.041  20.124  0.00  0.00    +0.000 A 
ATOM     20  C   UNL     1      -0.813  10.467  19.097  0.00  0.00    +0.000 A 
ATOM     21  C   UNL     1      -0.561  10.024  17.796  0.00  0.00    +0.000 A 
ATOM     22  C   UNL     1       0.567   9.224  17.521  0.00  0.00    +0.000 A 
BRANCH  20  23
ATOM     23  O   UNL     1      -1.826  11.299  19.474  0.00  0.00    +0.000 OA
BRANCH  23  24
ATOM     24  C   UNL     1      -2.945  11.389  18.685  0.00  0.00    +0.000 A 
ATOM     25  C   UNL     1      -2.764  10.938  17.378  0.00  0.00    +0.000 A 
ATOM     26  C   UNL     1      -3.783  11.091  16.444  0.00  0.00    +0.000 A 
ATOM     27  C   UNL     1      -4.988  11.680  16.823  0.00  0.00    +0.000 A 
ATOM     28  C   UNL     1      -5.200  12.057  18.147  0.00  0.00    +0.000 A 
ATOM     29  C   UNL     1      -4.189  11.880  19.089  0.00  0.00    +0.000 A 
ENDBRANCH  23  24
ENDBRANCH  20  23
ENDBRANCH   6  17
BRANCH   1  31
ATOM     30  O   UNL     1       8.354   4.074  17.411  0.00  0.00    +0.000 OA
ATOM     31  C   UNL     1       7.426   4.644  16.853  0.00  0.00    +0.000 C 
BRANCH  31  32
ATOM     32  O   UNL     1       7.464   4.936  15.530  0.00  0.00    +0.000 OA
ATOM     33  H   UNL     1       7.559   5.892  15.370  0.00  0.00    +0.000 HD
ENDBRANCH  31  32
ENDBRANCH   1  31
TORSDOF 6
ENDMDL
MODEL 8
REMARK VINA RESULT:      -7.9      1.801      2.272
REMARK  Name = 
REMARK  6 active torsions:
REMARK  status: ('A' for Active; 'I' for Inactive)
REMARK    1  A    between atoms: C_2  and  O_3
REMARK    2  A    between atoms: C_2  and  C_4
REMARK    3  A    between atoms: N_8  and  C_24
REMARK    4  A    between atoms: C_9  and  C_11
REMARK    5  A    between atoms: C_14  and  O_15
REMARK    6  A    between atoms: O_15  and  C_16
REMARK                            x       y       z     vdW  Elec       q    Type
REMARK                         _______ _______ _______ _____ _____    ______ ____
ROOT
ATOM      1  C   UNL     1       6.283   4.992  17.662  0.00  0.00    +0.000 A 
ATOM      2  C   UNL     1       5.554   4.326  18.625  0.00  0.00    +0.000 A 
ATOM      3  N   UNL     1       4.364   4.915  18.962  0.00  0.00    +0.000 NA
ATOM      4  C   UNL     1       4.151   6.023  18.292  0.00  0.00    +0.000 A 
ATOM      5  N   UNL     1       2.905   6.686  18.374  0.00  0.00    +0.000 N 
ATOM      6  C   UNL     1       2.822   8.085  18.085  0.00  0.00    +0.000 C 
ATOM      7  O   UNL     1       3.746   8.738  17.591  0.00  0.00    +0.000 OA
ATOM      8  S   UNL     1       5.453   6.448  17.253  0.00  0.00    +0.000 S 
ENDROOT
BRANCH   5   9
ATOM      9  C   UNL     1       1.747   5.898  18.897  0.00  0.00    +0.000 C 
ATOM     10  C   UNL     1       1.670   5.865  20.438  0.00  0.00    +0.000 C 
ATOM     11  C   UNL     1       2.497   4.839  21.167  0.00  0.00    +0.000 C 
ATOM     12  S   UNL     1       2.216   3.189  20.578  0.00  0.00    +0.000 S 
ATOM     13  O   UNL     1       3.377   2.399  20.945  0.00  0.00    +0.000 OA
ATOM     14  O   UNL     1       0.884   2.814  21.036  0.00  0.00    +0.000 OA
ATOM     15  C   UNL     1       2.146   3.291  18.804  0.00  0.00    +0.000 C 
ATOM     16  C   UNL     1       1.455   4.527  18.254  0.00  0.00    +0.000 C 
ENDBRANCH   5   9
BRANCH   6  17
ATOM     17  C   UNL     1       1.569   8.907  18.373  0.00  0.00    +0.000 A 
ATOM     18  C   UNL     1       0.557   9.186  17.448  0.00  0.00    +0.000 A 
ATOM     19  C   UNL     1      -0.608   9.879  17.756  0.00  0.00    +0.000 A 
ATOM     20  C   UNL     1      -0.838  10.251  19.057  0.00  0.00    +0.000 A 
ATOM     21  C   UNL     1       0.150  10.032  20.020  0.00  0.00    +0.000 A 
ATOM     22  C   UNL     1       1.337   9.349  19.683  0.00  0.00    +0.000 A 
BRANCH  20  23
ATOM     23  O   UNL     1      -2.051  10.833  19.277  0.00  0.00    +0.000 OA
BRANCH  23  24
ATOM     24  C   UNL     1      -2.098  12.117  19.759  0.00  0.00    +0.000 A 
ATOM     25  C   UNL     1      -1.131  12.966  19.224  0.00  0.00    +0.000 A 
ATOM     26  C   UNL     1      -0.992  14.258  19.721  0.00  0.00    +0.000 A 
ATOM     27  C   UNL     1      -1.830  14.703  20.741  0.00  0.00    +0.000 A 
ATOM     28  C   UNL     1      -2.850  13.883  21.220  0.00  0.00    +0.000 A 
ATOM     29  C   UNL     1      -3.007  12.598  20.704  0.00  0.00    +0.000 A 
ENDBRANCH  23  24
ENDBRANCH  20  23
ENDBRANCH   6  17
BRANCH   1  31
ATOM     30  O   UNL     1       8.449   4.055  17.702  0.00  0.00    +0.000 OA
ATOM     31  C   UNL     1       7.512   4.526  17.071  0.00  0.00    +0.000 C 
BRANCH  31  32
ATOM     32  O   UNL     1       7.553   4.646  15.722  0.00  0.00    +0.000 OA
ATOM     33  H   UNL     1       7.425   3.790  15.275  0.00  0.00    +0.000 HD
ENDBRANCH  31  32
ENDBRANCH   1  31
TORSDOF 6
ENDMDL
MODEL 9
REMARK VINA RESULT:      -7.7      1.386      1.775
REMARK  Name = 
REMARK  6 active torsions:
REMARK  status: ('A' for Active; 'I' for Inactive)
REMARK    1  A    between atoms: C_2  and  O_3
REMARK    2  A    between atoms: C_2  and  C_4
REMARK    3  A    between atoms: N_8  and  C_24
REMARK    4  A    between atoms: C_9  and  C_11
REMARK    5  A    between atoms: C_14  and  O_15
REMARK    6  A    between atoms: O_15  and  C_16
REMARK                            x       y       z     vdW  Elec       q    Type
REMARK                         _______ _______ _______ _____ _____    ______ ____
ROOT
ATOM      1  C   UNL     1       6.120   5.022  17.125  0.00  0.00    +0.000 A 
ATOM      2  C   UNL     1       5.462   4.283  18.085  0.00  0.00    +0.000 A 
ATOM      3  N   UNL     1       4.325   4.861  18.585  0.00  0.00    +0.000 NA
ATOM      4  C   UNL     1       4.084   6.031  18.042  0.00  0.00    +0.000 A 
ATOM      5  N   UNL     1       2.871   6.709  18.301  0.00  0.00    +0.000 N 
ATOM      6  C   UNL     1       2.803   8.131  18.151  0.00  0.00    +0.000 C 
ATOM      7  O   UNL     1       3.697   8.808  17.636  0.00  0.00    +0.000 OA
ATOM      8  S   UNL     1       5.299   6.526  16.931  0.00  0.00    +0.000 S 
ENDROOT
BRANCH   5   9
ATOM      9  C   UNL     1       1.743   5.899  18.854  0.00  0.00    +0.000 C 
ATOM     10  C   UNL     1       1.800   5.729  20.386  0.00  0.00    +0.000 C 
ATOM     11  C   UNL     1       2.660   4.626  20.946  0.00  0.00    +0.000 C 
ATOM     12  S   UNL     1       2.285   3.041  20.242  0.00  0.00    +0.000 S 
ATOM     13  O   UNL     1       3.452   2.200  20.432  0.00  0.00    +0.000 OA
ATOM     14  O   UNL     1       0.988   2.651  20.782  0.00  0.00    +0.000 OA
ATOM     15  C   UNL     1       2.063   3.304  18.496  0.00  0.00    +0.000 C 
ATOM     16  C   UNL     1       1.359   4.597  18.121  0.00  0.00    +0.000 C 
ENDBRANCH   5   9
BRANCH   6  17
ATOM     17  C   UNL     1       1.606   8.948  18.629  0.00  0.00    +0.000 A 
ATOM     18  C   UNL     1       0.629   9.510  17.799  0.00  0.00    +0.000 A 
ATOM     19  C   UNL     1      -0.489  10.190  18.265  0.00  0.00    +0.000 A 
ATOM     20  C   UNL     1      -0.712  10.257  19.618  0.00  0.00    +0.000 A 
ATOM     21  C   UNL     1       0.243   9.746  20.499  0.00  0.00    +0.000 A 
ATOM     22  C   UNL     1       1.385   9.080  20.007  0.00  0.00    +0.000 A 
BRANCH  20  23
ATOM     23  O   UNL     1      -1.886  10.855  19.972  0.00  0.00    +0.000 OA
BRANCH  23  24
ATOM     24  C   UNL     1      -1.854  11.952  20.796  0.00  0.00    +0.000 A 
ATOM     25  C   UNL     1      -2.460  13.088  20.263  0.00  0.00    +0.000 A 
ATOM     26  C   UNL     1      -2.385  14.298  20.944  0.00  0.00    +0.000 A 
ATOM     27  C   UNL     1      -1.717  14.366  22.165  0.00  0.00    +0.000 A 
ATOM     28  C   UNL     1      -1.182  13.215  22.739  0.00  0.00    +0.000 A 
ATOM     29  C   UNL     1      -1.279  11.997  22.069  0.00  0.00    +0.000 A 
ENDBRANCH  23  24
ENDBRANCH  20  23
ENDBRANCH   6  17
BRANCH   1  31
ATOM     30  O   UNL     1       7.412   4.718  15.172  0.00  0.00    +0.000 OA
ATOM     31  C   UNL     1       7.276   4.588  16.382  0.00  0.00    +0.000 C 
BRANCH  31  32
ATOM     32  O   UNL     1       8.236   4.014  17.146  0.00  0.00    +0.000 OA
ATOM     33  H   UNL     1       8.031   4.072  18.096  0.00  0.00    +0.000 HD
ENDBRANCH  31  32
ENDBRANCH   1  31
TORSDOF 6
ENDMDL
