MODEL 1
REMARK VINA RESULT:      -7.6      0.000      0.000
REMARK  Name = 
REMARK  4 active torsions:
REMARK  status: ('A' for Active; 'I' for Inactive)
REMARK    1  A    between atoms: C_2  and  C_3
REMARK    2  A    between atoms: C_3  and  N_4
REMARK    3  A    between atoms: C_9  and  C_10
REMARK    4  A    between atoms: N_19  and  C_20
REMARK                            x       y       z     vdW  Elec       q    Type
REMARK                         _______ _______ _______ _____ _____    ______ ____
ROOT
ATOM      1  N   UNL     1       1.440   9.626  19.877  0.00  0.00    +0.000 N 
ATOM      2  C   UNL     1       1.493   8.586  20.777  0.00  0.00    +0.000 C 
ATOM      3  O   UNL     1       1.175   8.621  21.955  0.00  0.00    +0.000 OA
ATOM      4  N   UNL     1       1.930   7.460  20.098  0.00  0.00    +0.000 N 
ATOM      5  C   UNL     1       2.129   7.759  18.783  0.00  0.00    +0.000 C 
ATOM      6  C   UNL     1       2.517   6.930  17.810  0.00  0.00    +0.000 C 
ATOM      7  C   UNL     1       1.802   9.211  18.619  0.00  0.00    +0.000 C 
ATOM      8  O   UNL     1       1.803   9.835  17.573  0.00  0.00    +0.000 OA
ATOM      9  H   UNL     1       2.043   6.555  20.530  0.00  0.00    +0.000 HD
ENDROOT
BRANCH   6  10
ATOM     10  C   UNL     1       2.836   5.519  18.041  0.00  0.00    +0.000 A 
ATOM     11  C   UNL     1       4.128   5.123  18.385  0.00  0.00    +0.000 A 
ATOM     12  C   UNL     1       4.432   3.764  18.541  0.00  0.00    +0.000 A 
ATOM     13  C   UNL     1       3.433   2.808  18.358  0.00  0.00    +0.000 A 
ATOM     14 CL   UNL     1       3.807   1.138  18.521  0.00  0.00    +0.000 Cl
ATOM     15  C   UNL     1       2.134   3.195  18.030  0.00  0.00    +0.000 A 
ATOM     16  C   UNL     1       1.838   4.554  17.872  0.00  0.00    +0.000 A 
ENDBRANCH   6  10
BRANCH   1  17
ATOM     17  C   UNL     1       1.019  10.967  20.225  0.00  0.00    +0.000 C 
BRANCH  17  19
ATOM     18  O   UNL     1      -1.108  10.986  21.352  0.00  0.00    +0.000 OA
ATOM     19  C   UNL     1      -0.509  11.053  20.281  0.00  0.00    +0.000 C 
ATOM     20  N   UNL     1      -1.109  11.236  19.036  0.00  0.00    +0.000 N 
ATOM     21  H   UNL     1      -0.553  11.025  18.214  0.00  0.00    +0.000 HD
BRANCH  20  22
ATOM     22  C   UNL     1      -2.494  11.434  18.811  0.00  0.00    +0.000 A 
ATOM     23  C   UNL     1      -3.268  12.340  19.545  0.00  0.00    +0.000 A 
ATOM     24  C   UNL     1      -4.651  12.422  19.354  0.00  0.00    +0.000 A 
ATOM     25  C   UNL     1      -5.268  11.617  18.403  0.00  0.00    +0.000 A 
ATOM     26 CL   UNL     1      -6.975  11.679  18.206  0.00  0.00    +0.000 Cl
ATOM     27  C   UNL     1      -4.505  10.759  17.615  0.00  0.00    +0.000 A 
ATOM     28  C   UNL     1      -3.120  10.675  17.812  0.00  0.00    +0.000 A 
ENDBRANCH  20  22
ENDBRANCH  17  19
ENDBRANCH   1  17
TORSDOF 4
ENDMDL
MODEL 2
REMARK VINA RESULT:      -7.6      3.962      9.366
REMARK  Name = 
REMARK  4 active torsions:
REMARK  status: ('A' for Active; 'I' for Inactive)
REMARK    1  A    between atoms: C_2  and  C_3
REMARK    2  A    between atoms: C_3  and  N_4
REMARK    3  A    between atoms: C_9  and  C_10
REMARK    4  A    between atoms: N_19  and  C_20
REMARK                            x       y       z     vdW  Elec       q    Type
REMARK                         _______ _______ _______ _____ _____    ______ ____
ROOT
ATOM      1  N   UNL     1       3.040   4.731  19.790  0.00  0.00    +0.000 N 
ATOM      2  C   UNL     1       2.132   4.716  20.825  0.00  0.00    +0.000 C 
ATOM      3  O   UNL     1       1.843   3.765  21.530  0.00  0.00    +0.000 OA
ATOM      4  N   UNL     1       1.628   6.000  20.964  0.00  0.00    +0.000 N 
ATOM      5  C   UNL     1       2.217   6.831  20.058  0.00  0.00    +0.000 C 
ATOM      6  C   UNL     1       2.016   8.143  19.906  0.00  0.00    +0.000 C 
ATOM      7  C   UNL     1       3.170   5.992  19.262  0.00  0.00    +0.000 C 
ATOM      8  O   UNL     1       3.925   6.389  18.394  0.00  0.00    +0.000 OA
ATOM      9  H   UNL     1       0.950   6.262  21.664  0.00  0.00    +0.000 HD
ENDROOT
BRANCH   6  10
ATOM     10  C   UNL     1       1.056   8.903  20.710  0.00  0.00    +0.000 A 
ATOM     11  C   UNL     1       0.092   9.708  20.103  0.00  0.00    +0.000 A 
ATOM     12  C   UNL     1      -0.779  10.478  20.887  0.00  0.00    +0.000 A 
ATOM     13  C   UNL     1      -0.682  10.430  22.277  0.00  0.00    +0.000 A 
ATOM     14 CL   UNL     1      -1.728  11.394  23.242  0.00  0.00    +0.000 Cl
ATOM     15  C   UNL     1       0.269   9.616  22.893  0.00  0.00    +0.000 A 
ATOM     16  C   UNL     1       1.137   8.852  22.105  0.00  0.00    +0.000 A 
ENDBRANCH   6  10
BRANCH   1  17
ATOM     17  C   UNL     1       3.778   3.563  19.354  0.00  0.00    +0.000 C 
BRANCH  17  19
ATOM     18  O   UNL     1       3.063   3.347  17.065  0.00  0.00    +0.000 OA
ATOM     19  C   UNL     1       3.987   3.597  17.837  0.00  0.00    +0.000 C 
ATOM     20  N   UNL     1       5.278   3.956  17.454  0.00  0.00    +0.000 N 
ATOM     21  H   UNL     1       6.008   3.891  18.155  0.00  0.00    +0.000 HD
BRANCH  20  22
ATOM     22  C   UNL     1       5.717   4.148  16.120  0.00  0.00    +0.000 A 
ATOM     23  C   UNL     1       5.059   3.607  15.010  0.00  0.00    +0.000 A 
ATOM     24  C   UNL     1       5.591   3.739  13.724  0.00  0.00    +0.000 A 
ATOM     25  C   UNL     1       6.776   4.442  13.535  0.00  0.00    +0.000 A 
ATOM     26 CL   UNL     1       7.460   4.559  11.960  0.00  0.00    +0.000 Cl
ATOM     27  C   UNL     1       7.409   5.046  14.617  0.00  0.00    +0.000 A 
ATOM     28  C   UNL     1       6.876   4.909  15.905  0.00  0.00    +0.000 A 
ENDBRANCH  20  22
ENDBRANCH  17  19
ENDBRANCH   1  17
TORSDOF 4
ENDMDL
MODEL 3
REMARK VINA RESULT:      -7.4      1.968      2.439
REMARK  Name = 
REMARK  4 active torsions:
REMARK  status: ('A' for Active; 'I' for Inactive)
REMARK    1  A    between atoms: C_2  and  C_3
REMARK    2  A    between atoms: C_3  and  N_4
REMARK    3  A    between atoms: C_9  and  C_10
REMARK    4  A    between atoms: N_19  and  C_20
REMARK                            x       y       z     vdW  Elec       q    Type
REMARK                         _______ _______ _______ _____ _____    ______ ____
ROOT
ATOM      1  N   UNL     1       1.467   9.740  19.735  0.00  0.00    +0.000 N 
ATOM      2  C   UNL     1       1.461   8.713  20.651  0.00  0.00    +0.000 C 
ATOM      3  O   UNL     1       1.108   8.775  21.817  0.00  0.00    +0.000 OA
ATOM      4  N   UNL     1       1.886   7.564  20.002  0.00  0.00    +0.000 N 
ATOM      5  C   UNL     1       2.136   7.837  18.691  0.00  0.00    +0.000 C 
ATOM      6  C   UNL     1       2.530   6.983  17.742  0.00  0.00    +0.000 C 
ATOM      7  C   UNL     1       1.857   9.296  18.495  0.00  0.00    +0.000 C 
ATOM      8  O   UNL     1       1.910   9.903  17.441  0.00  0.00    +0.000 OA
ATOM      9  H   UNL     1       1.959   6.662  20.450  0.00  0.00    +0.000 HD
ENDROOT
BRANCH   6  10
ATOM     10  C   UNL     1       2.799   5.567  18.003  0.00  0.00    +0.000 A 
ATOM     11  C   UNL     1       4.057   5.144  18.431  0.00  0.00    +0.000 A 
ATOM     12  C   UNL     1       4.318   3.779  18.616  0.00  0.00    +0.000 A 
ATOM     13  C   UNL     1       3.310   2.845  18.377  0.00  0.00    +0.000 A 
ATOM     14 CL   UNL     1       3.632   1.168  18.575  0.00  0.00    +0.000 Cl
ATOM     15  C   UNL     1       2.043   3.260  17.964  0.00  0.00    +0.000 A 
ATOM     16  C   UNL     1       1.791   4.624  17.778  0.00  0.00    +0.000 A 
ENDBRANCH   6  10
BRANCH   1  17
ATOM     17  C   UNL     1       1.076  11.098  20.051  0.00  0.00    +0.000 C 
BRANCH  17  19
ATOM     18  O   UNL     1      -1.218  10.452  19.709  0.00  0.00    +0.000 OA
ATOM     19  C   UNL     1      -0.430  11.173  20.319  0.00  0.00    +0.000 C 
ATOM     20  N   UNL     1      -0.781  12.090  21.308  0.00  0.00    +0.000 N 
ATOM     21  H   UNL     1      -0.097  12.795  21.555  0.00  0.00    +0.000 HD
BRANCH  20  22
ATOM     22  C   UNL     1      -2.091  12.296  21.812  0.00  0.00    +0.000 A 
ATOM     23  C   UNL     1      -3.146  12.778  21.030  0.00  0.00    +0.000 A 
ATOM     24  C   UNL     1      -4.391  13.062  21.600  0.00  0.00    +0.000 A 
ATOM     25  C   UNL     1      -4.599  12.837  22.956  0.00  0.00    +0.000 A 
ATOM     26 CL   UNL     1      -6.112  13.237  23.668  0.00  0.00    +0.000 Cl
ATOM     27  C   UNL     1      -3.582  12.292  23.736  0.00  0.00    +0.000 A 
ATOM     28  C   UNL     1      -2.334  12.013  23.163  0.00  0.00    +0.000 A 
ENDBRANCH  20  22
ENDBRANCH  17  19
ENDBRANCH   1  17
TORSDOF 4
ENDMDL
MODEL 4
REMARK VINA RESULT:      -7.4      2.247      3.065
REMARK  Name = 
REMARK  4 active torsions:
REMARK  status: ('A' for Active; 'I' for Inactive)
REMARK    1  A    between atoms: C_2  and  C_3
REMARK    2  A    between atoms: C_3  and  N_4
REMARK    3  A    between atoms: C_9  and  C_10
REMARK    4  A    between atoms: N_19  and  C_20
REMARK                            x       y       z     vdW  Elec       q    Type
REMARK                         _______ _______ _______ _____ _____    ______ ____
ROOT
ATOM      1  N   UNL     1       1.267   9.776  19.633  0.00  0.00    +0.000 N 
ATOM      2  C   UNL     1       1.756   9.135  18.517  0.00  0.00    +0.000 C 
ATOM      3  O   UNL     1       2.001   9.638  17.433  0.00  0.00    +0.000 OA
ATOM      4  N   UNL     1       1.972   7.808  18.851  0.00  0.00    +0.000 N 
ATOM      5  C   UNL     1       1.656   7.601  20.161  0.00  0.00    +0.000 C 
ATOM      6  C   UNL     1       1.761   6.464  20.855  0.00  0.00    +0.000 C 
ATOM      7  C   UNL     1       1.182   8.916  20.701  0.00  0.00    +0.000 C 
ATOM      8  O   UNL     1       0.864   9.148  21.853  0.00  0.00    +0.000 OA
ATOM      9  H   UNL     1       2.342   7.121  18.210  0.00  0.00    +0.000 HD
ENDROOT
BRANCH   6  10
ATOM     10  C   UNL     1       2.220   5.206  20.262  0.00  0.00    +0.000 A 
ATOM     11  C   UNL     1       3.537   5.057  19.826  0.00  0.00    +0.000 A 
ATOM     12  C   UNL     1       3.945   3.869  19.204  0.00  0.00    +0.000 A 
ATOM     13  C   UNL     1       3.028   2.832  19.028  0.00  0.00    +0.000 A 
ATOM     14 CL   UNL     1       3.516   1.385  18.240  0.00  0.00    +0.000 Cl
ATOM     15  C   UNL     1       1.713   2.966  19.474  0.00  0.00    +0.000 A 
ATOM     16  C   UNL     1       1.312   4.156  20.092  0.00  0.00    +0.000 A 
ENDBRANCH   6  10
BRANCH   1  17
ATOM     17  C   UNL     1       0.927  11.183  19.665  0.00  0.00    +0.000 C 
BRANCH  17  19
ATOM     18  O   UNL     1      -1.433  10.875  19.298  0.00  0.00    +0.000 OA
ATOM     19  C   UNL     1      -0.556  11.368  20.004  0.00  0.00    +0.000 C 
ATOM     20  N   UNL     1      -0.780  12.102  21.168  0.00  0.00    +0.000 N 
ATOM     21  H   UNL     1      -0.013  12.665  21.520  0.00  0.00    +0.000 HD
BRANCH  20  22
ATOM     22  C   UNL     1      -2.047  12.346  21.756  0.00  0.00    +0.000 A 
ATOM     23  C   UNL     1      -3.097  12.977  21.079  0.00  0.00    +0.000 A 
ATOM     24  C   UNL     1      -4.291  13.287  21.737  0.00  0.00    +0.000 A 
ATOM     25  C   UNL     1      -4.455  12.942  23.074  0.00  0.00    +0.000 A 
ATOM     26 CL   UNL     1      -5.902  13.371  23.899  0.00  0.00    +0.000 Cl
ATOM     27  C   UNL     1      -3.447  12.253  23.745  0.00  0.00    +0.000 A 
ATOM     28  C   UNL     1      -2.250  11.947  23.084  0.00  0.00    +0.000 A 
ENDBRANCH  20  22
ENDBRANCH  17  19
ENDBRANCH   1  17
TORSDOF 4
ENDMDL
MODEL 5
REMARK VINA RESULT:      -7.4      0.221      1.357
REMARK  Name = 
REMARK  4 active torsions:
REMARK  status: ('A' for Active; 'I' for Inactive)
REMARK    1  A    between atoms: C_2  and  C_3
REMARK    2  A    between atoms: C_3  and  N_4
REMARK    3  A    between atoms: C_9  and  C_10
REMARK    4  A    between atoms: N_19  and  C_20
REMARK                            x       y       z     vdW  Elec       q    Type
REMARK                         _______ _______ _______ _____ _____    ______ ____
ROOT
ATOM      1  N   UNL     1       1.405   9.572  19.936  0.00  0.00    +0.000 N 
ATOM      2  C   UNL     1       1.477   8.501  20.797  0.00  0.00    +0.000 C 
ATOM      3  O   UNL     1       1.173   8.490  21.978  0.00  0.00    +0.000 OA
ATOM      4  N   UNL     1       1.917   7.404  20.073  0.00  0.00    +0.000 N 
ATOM      5  C   UNL     1       2.099   7.752  18.768  0.00  0.00    +0.000 C 
ATOM      6  C   UNL     1       2.484   6.963  17.761  0.00  0.00    +0.000 C 
ATOM      7  C   UNL     1       1.757   9.206  18.660  0.00  0.00    +0.000 C 
ATOM      8  O   UNL     1       1.741   9.867  17.637  0.00  0.00    +0.000 OA
ATOM      9  H   UNL     1       2.044   6.485  20.471  0.00  0.00    +0.000 HD
ENDROOT
BRANCH   6  10
ATOM     10  C   UNL     1       2.818   5.547  17.938  0.00  0.00    +0.000 A 
ATOM     11  C   UNL     1       1.843   4.559  17.803  0.00  0.00    +0.000 A 
ATOM     12  C   UNL     1       2.165   3.214  18.036  0.00  0.00    +0.000 A 
ATOM     13  C   UNL     1       3.467   2.869  18.398  0.00  0.00    +0.000 A 
ATOM     14 CL   UNL     1       3.859   1.225  18.713  0.00  0.00    +0.000 Cl
ATOM     15  C   UNL     1       4.452   3.849  18.520  0.00  0.00    +0.000 A 
ATOM     16  C   UNL     1       4.124   5.190  18.289  0.00  0.00    +0.000 A 
ENDBRANCH   6  10
BRANCH   1  17
ATOM     17  C   UNL     1       0.976  10.896  20.337  0.00  0.00    +0.000 C 
BRANCH  17  19
ATOM     18  O   UNL     1      -1.200  11.040  21.356  0.00  0.00    +0.000 OA
ATOM     19  C   UNL     1      -0.552  10.995  20.312  0.00  0.00    +0.000 C 
ATOM     20  N   UNL     1      -1.092  11.054  19.029  0.00  0.00    +0.000 N 
ATOM     21  H   UNL     1      -0.502  10.757  18.260  0.00  0.00    +0.000 HD
BRANCH  20  22
ATOM     22  C   UNL     1      -2.464  11.236  18.720  0.00  0.00    +0.000 A 
ATOM     23  C   UNL     1      -3.117  10.546  17.693  0.00  0.00    +0.000 A 
ATOM     24  C   UNL     1      -4.444  10.837  17.363  0.00  0.00    +0.000 A 
ATOM     25  C   UNL     1      -5.139  11.805  18.079  0.00  0.00    +0.000 A 
ATOM     26 CL   UNL     1      -6.754  12.202  17.638  0.00  0.00    +0.000 Cl
ATOM     27  C   UNL     1      -4.528  12.453  19.150  0.00  0.00    +0.000 A 
ATOM     28  C   UNL     1      -3.197  12.162  19.476  0.00  0.00    +0.000 A 
ENDBRANCH  20  22
ENDBRANCH  17  19
ENDBRANCH   1  17
TORSDOF 4
ENDMDL
MODEL 6
REMARK VINA RESULT:      -7.3      1.137      2.069
REMARK  Name = 
REMARK  4 active torsions:
REMARK  status: ('A' for Active; 'I' for Inactive)
REMARK    1  A    between atoms: C_2  and  C_3
REMARK    2  A    between atoms: C_3  and  N_4
REMARK    3  A    between atoms: C_9  and  C_10
REMARK    4  A    between atoms: N_19  and  C_20
REMARK                            x       y       z     vdW  Elec       q    Type
REMARK                         _______ _______ _______ _____ _____    ______ ____
ROOT
ATOM      1  N   UNL     1       1.302   9.509  19.529  0.00  0.00    +0.000 N 
ATOM      2  C   UNL     1       1.807   8.858  18.425  0.00  0.00    +0.000 C 
ATOM      3  O   UNL     1       2.040   9.347  17.333  0.00  0.00    +0.000 OA
ATOM      4  N   UNL     1       2.053   7.543  18.785  0.00  0.00    +0.000 N 
ATOM      5  C   UNL     1       1.740   7.354  20.098  0.00  0.00    +0.000 C 
ATOM      6  C   UNL     1       1.872   6.233  20.813  0.00  0.00    +0.000 C 
ATOM      7  C   UNL     1       1.236   8.667  20.613  0.00  0.00    +0.000 C 
ATOM      8  O   UNL     1       0.912   8.914  21.760  0.00  0.00    +0.000 OA
ATOM      9  H   UNL     1       2.440   6.854  18.157  0.00  0.00    +0.000 HD
ENDROOT
BRANCH   6  10
ATOM     10  C   UNL     1       2.361   4.975  20.244  0.00  0.00    +0.000 A 
ATOM     11  C   UNL     1       3.685   4.843  19.828  0.00  0.00    +0.000 A 
ATOM     12  C   UNL     1       4.122   3.654  19.228  0.00  0.00    +0.000 A 
ATOM     13  C   UNL     1       3.226   2.599  19.055  0.00  0.00    +0.000 A 
ATOM     14 CL   UNL     1       3.748   1.149  18.294  0.00  0.00    +0.000 Cl
ATOM     15  C   UNL     1       1.903   2.716  19.482  0.00  0.00    +0.000 A 
ATOM     16  C   UNL     1       1.473   3.907  20.077  0.00  0.00    +0.000 A 
ENDBRANCH   6  10
BRANCH   1  17
ATOM     17  C   UNL     1       0.929  10.908  19.534  0.00  0.00    +0.000 C 
BRANCH  17  19
ATOM     18  O   UNL     1      -1.175  11.144  20.681  0.00  0.00    +0.000 OA
ATOM     19  C   UNL     1      -0.594  11.056  19.601  0.00  0.00    +0.000 C 
ATOM     20  N   UNL     1      -1.210  11.109  18.352  0.00  0.00    +0.000 N 
ATOM     21  H   UNL     1      -0.679  10.778  17.555  0.00  0.00    +0.000 HD
BRANCH  20  22
ATOM     22  C   UNL     1      -2.592  11.330  18.124  0.00  0.00    +0.000 A 
ATOM     23  C   UNL     1      -3.243  10.959  16.942  0.00  0.00    +0.000 A 
ATOM     24  C   UNL     1      -4.584  11.293  16.727  0.00  0.00    +0.000 A 
ATOM     25  C   UNL     1      -5.294  11.977  17.707  0.00  0.00    +0.000 A 
ATOM     26 CL   UNL     1      -6.927  12.435  17.420  0.00  0.00    +0.000 Cl
ATOM     27  C   UNL     1      -4.683  12.293  18.917  0.00  0.00    +0.000 A 
ATOM     28  C   UNL     1      -3.338  11.961  19.130  0.00  0.00    +0.000 A 
ENDBRANCH  20  22
ENDBRANCH  17  19
ENDBRANCH   1  17
TORSDOF 4
ENDMDL
MODEL 7
REMARK VINA RESULT:      -7.3      2.204      3.092
REMARK  Name = 
REMARK  4 active torsions:
REMARK  status: ('A' for Active; 'I' for Inactive)
REMARK    1  A    between atoms: C_2  and  C_3
REMARK    2  A    between atoms: C_3  and  N_4
REMARK    3  A    between atoms: C_9  and  C_10
REMARK    4  A    between atoms: N_19  and  C_20
REMARK                            x       y       z     vdW  Elec       q    Type
REMARK                         _______ _______ _______ _____ _____    ______ ____
ROOT
ATOM      1  N   UNL     1       1.337   9.634  19.581  0.00  0.00    +0.000 N 
ATOM      2  C   UNL     1       1.770   8.999  18.438  0.00  0.00    +0.000 C 
ATOM      3  O   UNL     1       1.969   9.510  17.349  0.00  0.00    +0.000 OA
ATOM      4  N   UNL     1       1.989   7.667  18.751  0.00  0.00    +0.000 N 
ATOM      5  C   UNL     1       1.731   7.452  20.072  0.00  0.00    +0.000 C 
ATOM      6  C   UNL     1       1.858   6.308  20.750  0.00  0.00    +0.000 C 
ATOM      7  C   UNL     1       1.293   8.765  20.644  0.00  0.00    +0.000 C 
ATOM      8  O   UNL     1       1.029   8.990  21.811  0.00  0.00    +0.000 OA
ATOM      9  H   UNL     1       2.325   6.984  18.088  0.00  0.00    +0.000 HD
ENDROOT
BRANCH   6  10
ATOM     10  C   UNL     1       2.280   5.051  20.126  0.00  0.00    +0.000 A 
ATOM     11  C   UNL     1       1.370   4.014  19.918  0.00  0.00    +0.000 A 
ATOM     12  C   UNL     1       1.802   2.795  19.378  0.00  0.00    +0.000 A 
ATOM     13  C   UNL     1       3.146   2.625  19.043  0.00  0.00    +0.000 A 
ATOM     14 CL   UNL     1       3.685   1.123  18.407  0.00  0.00    +0.000 Cl
ATOM     15  C   UNL     1       4.059   3.662  19.234  0.00  0.00    +0.000 A 
ATOM     16  C   UNL     1       3.623   4.876  19.776  0.00  0.00    +0.000 A 
ENDBRANCH   6  10
BRANCH   1  17
ATOM     17  C   UNL     1       1.010  11.043  19.640  0.00  0.00    +0.000 C 
BRANCH  17  19
ATOM     18  O   UNL     1      -1.357  10.632  19.486  0.00  0.00    +0.000 OA
ATOM     19  C   UNL     1      -0.452  11.238  20.055  0.00  0.00    +0.000 C 
ATOM     20  N   UNL     1      -0.622  12.117  21.123  0.00  0.00    +0.000 N 
ATOM     21  H   UNL     1       0.147  12.740  21.342  0.00  0.00    +0.000 HD
BRANCH  20  22
ATOM     22  C   UNL     1      -1.854  12.408  21.761  0.00  0.00    +0.000 A 
ATOM     23  C   UNL     1      -2.147  12.023  23.074  0.00  0.00    +0.000 A 
ATOM     24  C   UNL     1      -3.415  12.244  23.621  0.00  0.00    +0.000 A 
ATOM     25  C   UNL     1      -4.393  12.881  22.865  0.00  0.00    +0.000 A 
ATOM     26 CL   UNL     1      -5.969  13.104  23.518  0.00  0.00    +0.000 Cl
ATOM     27  C   UNL     1      -4.099  13.332  21.581  0.00  0.00    +0.000 A 
ATOM     28  C   UNL     1      -2.829  13.106  21.035  0.00  0.00    +0.000 A 
ENDBRANCH  20  22
ENDBRANCH  17  19
ENDBRANCH   1  17
TORSDOF 4
ENDMDL
MODEL 8
REMARK VINA RESULT:      -7.3      1.025      1.397
REMARK  Name = 
REMARK  4 active torsions:
REMARK  status: ('A' for Active; 'I' for Inactive)
REMARK    1  A    between atoms: C_2  and  C_3
REMARK    2  A    between atoms: C_3  and  N_4
REMARK    3  A    between atoms: C_9  and  C_10
REMARK    4  A    between atoms: N_19  and  C_20
REMARK                            x       y       z     vdW  Elec       q    Type
REMARK                         _______ _______ _______ _____ _____    ______ ____
ROOT
ATOM      1  N   UNL     1       1.221  10.271  19.719  0.00  0.00    +0.000 N 
ATOM      2  C   UNL     1       1.004   9.231  20.595  0.00  0.00    +0.000 C 
ATOM      3  O   UNL     1       0.443   9.292  21.677  0.00  0.00    +0.000 OA
ATOM      4  N   UNL     1       1.494   8.075  20.010  0.00  0.00    +0.000 N 
ATOM      5  C   UNL     1       1.993   8.355  18.773  0.00  0.00    +0.000 C 
ATOM      6  C   UNL     1       2.521   7.498  17.895  0.00  0.00    +0.000 C 
ATOM      7  C   UNL     1       1.815   9.828  18.562  0.00  0.00    +0.000 C 
ATOM      8  O   UNL     1       2.087  10.447  17.550  0.00  0.00    +0.000 OA
ATOM      9  H   UNL     1       1.447   7.164  20.444  0.00  0.00    +0.000 HD
ENDROOT
BRANCH   6  10
ATOM     10  C   UNL     1       2.680   6.068  18.169  0.00  0.00    +0.000 A 
ATOM     11  C   UNL     1       3.859   5.572  18.724  0.00  0.00    +0.000 A 
ATOM     12  C   UNL     1       4.020   4.193  18.923  0.00  0.00    +0.000 A 
ATOM     13  C   UNL     1       2.991   3.320  18.569  0.00  0.00    +0.000 A 
ATOM     14 CL   UNL     1       3.194   1.627  18.784  0.00  0.00    +0.000 Cl
ATOM     15  C   UNL     1       1.802   3.809  18.028  0.00  0.00    +0.000 A 
ATOM     16  C   UNL     1       1.649   5.186  17.829  0.00  0.00    +0.000 A 
ENDBRANCH   6  10
BRANCH   1  17
ATOM     17  C   UNL     1       0.834  11.640  19.987  0.00  0.00    +0.000 C 
BRANCH  17  19
ATOM     18  O   UNL     1      -0.346  12.649  18.147  0.00  0.00    +0.000 OA
ATOM     19  C   UNL     1      -0.423  12.007  19.192  0.00  0.00    +0.000 C 
ATOM     20  N   UNL     1      -1.605  11.523  19.752  0.00  0.00    +0.000 N 
ATOM     21  H   UNL     1      -1.578  11.235  20.724  0.00  0.00    +0.000 HD
BRANCH  20  22
ATOM     22  C   UNL     1      -2.896  11.643  19.179  0.00  0.00    +0.000 A 
ATOM     23  C   UNL     1      -3.264  11.017  17.983  0.00  0.00    +0.000 A 
ATOM     24  C   UNL     1      -4.517  11.250  17.406  0.00  0.00    +0.000 A 
ATOM     25  C   UNL     1      -5.424  12.092  18.040  0.00  0.00    +0.000 A 
ATOM     26 CL   UNL     1      -6.944  12.422  17.304  0.00  0.00    +0.000 Cl
ATOM     27  C   UNL     1      -5.102  12.669  19.265  0.00  0.00    +0.000 A 
ATOM     28  C   UNL     1      -3.844  12.437  19.838  0.00  0.00    +0.000 A 
ENDBRANCH  20  22
ENDBRANCH  17  19
ENDBRANCH   1  17
TORSDOF 4
ENDMDL
MODEL 9
REMARK VINA RESULT:      -7.2      3.925      5.254
REMARK  Name = 
REMARK  4 active torsions:
REMARK  status: ('A' for Active; 'I' for Inactive)
REMARK    1  A    between atoms: C_2  and  C_3
REMARK    2  A    between atoms: C_3  and  N_4
REMARK    3  A    between atoms: C_9  and  C_10
REMARK    4  A    between atoms: N_19  and  C_20
REMARK                            x       y       z     vdW  Elec       q    Type
REMARK                         _______ _______ _______ _____ _____    ______ ____
ROOT
ATOM      1  N   UNL     1       0.973   9.951  19.641  0.00  0.00    +0.000 N 
ATOM      2  C   UNL     1       0.974   8.965  20.602  0.00  0.00    +0.000 C 
ATOM      3  O   UNL     1       0.434   9.009  21.695  0.00  0.00    +0.000 OA
ATOM      4  N   UNL     1       1.663   7.877  20.092  0.00  0.00    +0.000 N 
ATOM      5  C   UNL     1       2.076   8.143  18.820  0.00  0.00    +0.000 C 
ATOM      6  C   UNL     1       2.739   7.330  17.993  0.00  0.00    +0.000 C 
ATOM      7  C   UNL     1       1.617   9.533  18.502  0.00  0.00    +0.000 C 
ATOM      8  O   UNL     1       1.746  10.107  17.437  0.00  0.00    +0.000 OA
ATOM      9  H   UNL     1       1.798   7.012  20.596  0.00  0.00    +0.000 HD
ENDROOT
BRANCH   6  10
ATOM     10  C   UNL     1       3.172   5.983  18.372  0.00  0.00    +0.000 A 
ATOM     11  C   UNL     1       2.297   4.900  18.289  0.00  0.00    +0.000 A 
ATOM     12  C   UNL     1       2.706   3.628  18.714  0.00  0.00    +0.000 A 
ATOM     13  C   UNL     1       3.995   3.450  19.215  0.00  0.00    +0.000 A 
ATOM     14 CL   UNL     1       4.492   1.899  19.764  0.00  0.00    +0.000 Cl
ATOM     15  C   UNL     1       4.882   4.524  19.287  0.00  0.00    +0.000 A 
ATOM     16  C   UNL     1       4.467   5.792  18.864  0.00  0.00    +0.000 A 
ENDBRANCH   6  10
BRANCH   1  17
ATOM     17  C   UNL     1       0.338  11.240  19.816  0.00  0.00    +0.000 C 
BRANCH  17  19
ATOM     18  O   UNL     1       1.919  12.493  21.132  0.00  0.00    +0.000 OA
ATOM     19  C   UNL     1       1.392  12.332  20.033  0.00  0.00    +0.000 C 
ATOM     20  N   UNL     1       1.688  13.064  18.885  0.00  0.00    +0.000 N 
ATOM     21  H   UNL     1       1.026  13.019  18.118  0.00  0.00    +0.000 HD
BRANCH  20  22
ATOM     22  C   UNL     1       2.684  14.069  18.784  0.00  0.00    +0.000 A 
ATOM     23  C   UNL     1       3.908  13.872  18.135  0.00  0.00    +0.000 A 
ATOM     24  C   UNL     1       4.897  14.861  18.154  0.00  0.00    +0.000 A 
ATOM     25  C   UNL     1       4.656  16.069  18.798  0.00  0.00    +0.000 A 
ATOM     26 CL   UNL     1       5.892  17.263  18.867  0.00  0.00    +0.000 Cl
ATOM     27  C   UNL     1       3.419  16.309  19.390  0.00  0.00    +0.000 A 
ATOM     28  C   UNL     1       2.431  15.315  19.373  0.00  0.00    +0.000 A 
ENDBRANCH  20  22
ENDBRANCH  17  19
ENDBRANCH   1  17
TORSDOF 4
ENDMDL
