MODEL 1
REMARK VINA RESULT:      -9.7      0.000      0.000
REMARK  Name = 
REMARK  7 active torsions:
REMARK  status: ('A' for Active; 'I' for Inactive)
REMARK    1  A    between atoms: C_1  and  C_2
REMARK    2  A    between atoms: C_5  and  C_6
REMARK    3  A    between atoms: C_6  and  O_7
REMARK    4  A    between atoms: O_7  and  C_8
REMARK    5  A    between atoms: C_11  and  N_12
REMARK    6  A    between atoms: N_12  and  C_13
REMARK    7  A    between atoms: C_20  and  C_21
REMARK                            x       y       z     vdW  Elec       q    Type
REMARK                         _______ _______ _______ _____ _____    ______ ____
ROOT
ATOM      1  N   UNL     1       2.798   6.103  20.190  0.00  0.00    +0.000 N 
ATOM      2  H   UNL     1       3.347   6.084  21.040  0.00  0.00    +0.000 HD
ENDROOT
BRANCH   1   3
ATOM      3  C   UNL     1       2.331   4.833  19.841  0.00  0.00    +0.000 A 
ATOM      4  N   UNL     1       1.172   4.396  20.388  0.00  0.00    +0.000 NA
ATOM      5  C   UNL     1       0.721   3.167  20.100  0.00  0.00    +0.000 A 
ATOM      6  N   UNL     1       1.279   2.275  19.281  0.00  0.00    +0.000 NA
ATOM      7  C   UNL     1       2.414   2.745  18.744  0.00  0.00    +0.000 A 
ATOM      8  O   UNL     1       3.172   2.036  17.869  0.00  0.00    +0.000 OA
ATOM      9  N   UNL     1       4.274   2.777  17.498  0.00  0.00    +0.000 NA
ATOM     10  C   UNL     1       4.175   3.954  18.143  0.00  0.00    +0.000 A 
ATOM     11  C   UNL     1       3.004   3.973  18.967  0.00  0.00    +0.000 A 
BRANCH  10  12
ATOM     12  C   UNL     1       5.187   4.993  17.927  0.00  0.00    +0.000 A 
ATOM     13  C   UNL     1       6.356   5.047  18.698  0.00  0.00    +0.000 A 
ATOM     14  C   UNL     1       7.321   6.029  18.489  0.00  0.00    +0.000 A 
ATOM     15  C   UNL     1       7.106   7.015  17.535  0.00  0.00    +0.000 A 
ATOM     16  C   UNL     1       5.939   6.998  16.772  0.00  0.00    +0.000 A 
ATOM     17  C   UNL     1       4.989   5.989  16.959  0.00  0.00    +0.000 A 
ENDBRANCH  10  12
ENDBRANCH   1   3
BRANCH   1  21
ATOM     18  C   UNL     1       0.908   9.776  19.333  0.00  0.00    +0.000 A 
ATOM     19  C   UNL     1       1.690   9.125  18.384  0.00  0.00    +0.000 A 
ATOM     20  C   UNL     1       2.290   7.901  18.662  0.00  0.00    +0.000 A 
ATOM     21  C   UNL     1       2.168   7.333  19.931  0.00  0.00    +0.000 A 
ATOM     22  C   UNL     1       1.366   7.982  20.884  0.00  0.00    +0.000 A 
ATOM     23  C   UNL     1       0.745   9.205  20.597  0.00  0.00    +0.000 A 
BRANCH  18  24
ATOM     24  O   UNL     1       0.245  10.948  19.086  0.00  0.00    +0.000 OA
BRANCH  24  25
ATOM     25  C   UNL     1      -1.157  10.874  19.365  0.00  0.00    +0.000 C 
BRANCH  25  30
ATOM     26  C   UNL     1      -4.057  10.209  14.384  0.00  0.00    +0.000 C 
ATOM     27  C   UNL     1      -3.317  10.387  15.678  0.00  0.00    +0.000 A 
ATOM     28  C   UNL     1      -3.719  11.351  16.607  0.00  0.00    +0.000 A 
ATOM     29  C   UNL     1      -3.020  11.509  17.803  0.00  0.00    +0.000 A 
ATOM     30  C   UNL     1      -1.914  10.701  18.082  0.00  0.00    +0.000 A 
ATOM     31  C   UNL     1      -1.512   9.738  17.150  0.00  0.00    +0.000 A 
ATOM     32  C   UNL     1      -2.208   9.582  15.955  0.00  0.00    +0.000 A 
ENDBRANCH  25  30
ENDBRANCH  24  25
ENDBRANCH  18  24
ENDBRANCH   1  21
TORSDOF 6
ENDMDL
MODEL 2
REMARK VINA RESULT:      -9.6      0.951      1.488
REMARK  Name = 
REMARK  7 active torsions:
REMARK  status: ('A' for Active; 'I' for Inactive)
REMARK    1  A    between atoms: C_1  and  C_2
REMARK    2  A    between atoms: C_5  and  C_6
REMARK    3  A    between atoms: C_6  and  O_7
REMARK    4  A    between atoms: O_7  and  C_8
REMARK    5  A    between atoms: C_11  and  N_12
REMARK    6  A    between atoms: N_12  and  C_13
REMARK    7  A    between atoms: C_20  and  C_21
REMARK                            x       y       z     vdW  Elec       q    Type
REMARK                         _______ _______ _______ _____ _____    ______ ____
ROOT
ATOM      1  N   UNL     1       2.821   6.160  20.168  0.00  0.00    +0.000 N 
ATOM      2  H   UNL     1       3.297   6.185  21.062  0.00  0.00    +0.000 HD
ENDROOT
BRANCH   1   3
ATOM      3  C   UNL     1       2.363   4.877  19.858  0.00  0.00    +0.000 A 
ATOM      4  N   UNL     1       1.200   4.453  20.409  0.00  0.00    +0.000 NA
ATOM      5  C   UNL     1       0.756   3.214  20.157  0.00  0.00    +0.000 A 
ATOM      6  N   UNL     1       1.325   2.297  19.373  0.00  0.00    +0.000 NA
ATOM      7  C   UNL     1       2.463   2.754  18.831  0.00  0.00    +0.000 A 
ATOM      8  O   UNL     1       3.232   2.020  17.987  0.00  0.00    +0.000 OA
ATOM      9  N   UNL     1       4.334   2.752  17.601  0.00  0.00    +0.000 NA
ATOM     10  C   UNL     1       4.225   3.950  18.206  0.00  0.00    +0.000 A 
ATOM     11  C   UNL     1       3.046   3.991  19.018  0.00  0.00    +0.000 A 
BRANCH  10  12
ATOM     12  C   UNL     1       5.235   4.985  17.965  0.00  0.00    +0.000 A 
ATOM     13  C   UNL     1       6.405   5.059  18.734  0.00  0.00    +0.000 A 
ATOM     14  C   UNL     1       7.368   6.038  18.501  0.00  0.00    +0.000 A 
ATOM     15  C   UNL     1       7.150   7.000  17.524  0.00  0.00    +0.000 A 
ATOM     16  C   UNL     1       5.983   6.964  16.763  0.00  0.00    +0.000 A 
ATOM     17  C   UNL     1       5.034   5.958  16.974  0.00  0.00    +0.000 A 
ENDBRANCH  10  12
ENDBRANCH   1   3
BRANCH   1  21
ATOM     18  C   UNL     1       1.067   9.794  18.940  0.00  0.00    +0.000 A 
ATOM     19  C   UNL     1       1.801   9.009  18.056  0.00  0.00    +0.000 A 
ATOM     20  C   UNL     1       2.356   7.798  18.459  0.00  0.00    +0.000 A 
ATOM     21  C   UNL     1       2.237   7.380  19.785  0.00  0.00    +0.000 A 
ATOM     22  C   UNL     1       1.482   8.164  20.673  0.00  0.00    +0.000 A 
ATOM     23  C   UNL     1       0.907   9.373  20.262  0.00  0.00    +0.000 A 
BRANCH  18  24
ATOM     24  O   UNL     1       0.447  10.959  18.576  0.00  0.00    +0.000 OA
BRANCH  24  25
ATOM     25  C   UNL     1      -0.412  11.484  19.592  0.00  0.00    +0.000 C 
BRANCH  25  30
ATOM     26  C   UNL     1      -5.925  11.306  17.792  0.00  0.00    +0.000 C 
ATOM     27  C   UNL     1      -4.495  11.347  18.247  0.00  0.00    +0.000 A 
ATOM     28  C   UNL     1      -3.535  10.507  17.672  0.00  0.00    +0.000 A 
ATOM     29  C   UNL     1      -2.212  10.552  18.106  0.00  0.00    +0.000 A 
ATOM     30  C   UNL     1      -1.834  11.440  19.118  0.00  0.00    +0.000 A 
ATOM     31  C   UNL     1      -2.797  12.277  19.694  0.00  0.00    +0.000 A 
ATOM     32  C   UNL     1      -4.118  12.231  19.262  0.00  0.00    +0.000 A 
ENDBRANCH  25  30
ENDBRANCH  24  25
ENDBRANCH  18  24
ENDBRANCH   1  21
TORSDOF 6
ENDMDL
MODEL 3
REMARK VINA RESULT:      -9.6      0.094      1.226
REMARK  Name = 
REMARK  7 active torsions:
REMARK  status: ('A' for Active; 'I' for Inactive)
REMARK    1  A    between atoms: C_1  and  C_2
REMARK    2  A    between atoms: C_5  and  C_6
REMARK    3  A    between atoms: C_6  and  O_7
REMARK    4  A    between atoms: O_7  and  C_8
REMARK    5  A    between atoms: C_11  and  N_12
REMARK    6  A    between atoms: N_12  and  C_13
REMARK    7  A    between atoms: C_20  and  C_21
REMARK                            x       y       z     vdW  Elec       q    Type
REMARK                         _______ _______ _______ _____ _____    ______ ____
ROOT
ATOM      1  N   UNL     1       2.774   6.046  20.226  0.00  0.00    +0.000 N 
ATOM      2  H   UNL     1       3.278   6.033  21.105  0.00  0.00    +0.000 HD
ENDROOT
BRANCH   1   3
ATOM      3  C   UNL     1       2.338   4.771  19.856  0.00  0.00    +0.000 A 
ATOM      4  N   UNL     1       1.185   4.300  20.387  0.00  0.00    +0.000 NA
ATOM      5  C   UNL     1       0.764   3.066  20.077  0.00  0.00    +0.000 A 
ATOM      6  N   UNL     1       1.349   2.198  19.250  0.00  0.00    +0.000 NA
ATOM      7  C   UNL     1       2.477   2.702  18.729  0.00  0.00    +0.000 A 
ATOM      8  O   UNL     1       3.257   2.023  17.850  0.00  0.00    +0.000 OA
ATOM      9  N   UNL     1       4.345   2.793  17.498  0.00  0.00    +0.000 NA
ATOM     10  C   UNL     1       4.214   3.958  18.160  0.00  0.00    +0.000 A 
ATOM     11  C   UNL     1       3.037   3.939  18.974  0.00  0.00    +0.000 A 
BRANCH  10  12
ATOM     12  C   UNL     1       5.205   5.023  17.967  0.00  0.00    +0.000 A 
ATOM     13  C   UNL     1       5.023   6.025  17.004  0.00  0.00    +0.000 A 
ATOM     14  C   UNL     1       5.960   7.040  16.825  0.00  0.00    +0.000 A 
ATOM     15  C   UNL     1       7.129   7.038  17.573  0.00  0.00    +0.000 A 
ATOM     16  C   UNL     1       7.346   6.038  18.519  0.00  0.00    +0.000 A 
ATOM     17  C   UNL     1       6.386   5.041  18.723  0.00  0.00    +0.000 A 
ENDBRANCH  10  12
ENDBRANCH   1   3
BRANCH   1  21
ATOM     18  C   UNL     1       0.889   9.734  19.428  0.00  0.00    +0.000 A 
ATOM     19  C   UNL     1       0.750   9.102  20.659  0.00  0.00    +0.000 A 
ATOM     20  C   UNL     1       1.394   7.897  20.927  0.00  0.00    +0.000 A 
ATOM     21  C   UNL     1       2.146   7.269  19.933  0.00  0.00    +0.000 A 
ATOM     22  C   UNL     1       2.300   7.916  18.696  0.00  0.00    +0.000 A 
ATOM     23  C   UNL     1       1.667   9.138  18.433  0.00  0.00    +0.000 A 
BRANCH  18  24
ATOM     24  O   UNL     1       0.328  10.949  19.139  0.00  0.00    +0.000 OA
BRANCH  24  25
ATOM     25  C   UNL     1      -1.073  11.007  19.423  0.00  0.00    +0.000 C 
BRANCH  25  30
ATOM     26  C   UNL     1      -4.049  10.194  14.509  0.00  0.00    +0.000 C 
ATOM     27  C   UNL     1      -3.289  10.411  15.785  0.00  0.00    +0.000 A 
ATOM     28  C   UNL     1      -3.689  11.389  16.701  0.00  0.00    +0.000 A 
ATOM     29  C   UNL     1      -2.973  11.582  17.881  0.00  0.00    +0.000 A 
ATOM     30  C   UNL     1      -1.850  10.796  18.157  0.00  0.00    +0.000 A 
ATOM     31  C   UNL     1      -1.449   9.819  17.238  0.00  0.00    +0.000 A 
ATOM     32  C   UNL     1      -2.163   9.628  16.060  0.00  0.00    +0.000 A 
ENDBRANCH  25  30
ENDBRANCH  24  25
ENDBRANCH  18  24
ENDBRANCH   1  21
TORSDOF 6
ENDMDL
MODEL 4
REMARK VINA RESULT:      -9.6      0.875      1.893
REMARK  Name = 
REMARK  7 active torsions:
REMARK  status: ('A' for Active; 'I' for Inactive)
REMARK    1  A    between atoms: C_1  and  C_2
REMARK    2  A    between atoms: C_5  and  C_6
REMARK    3  A    between atoms: C_6  and  O_7
REMARK    4  A    between atoms: O_7  and  C_8
REMARK    5  A    between atoms: C_11  and  N_12
REMARK    6  A    between atoms: N_12  and  C_13
REMARK    7  A    between atoms: C_20  and  C_21
REMARK                            x       y       z     vdW  Elec       q    Type
REMARK                         _______ _______ _______ _____ _____    ______ ____
ROOT
ATOM      1  N   UNL     1       2.774   6.093  20.136  0.00  0.00    +0.000 N 
ATOM      2  H   UNL     1       3.197   6.114  21.056  0.00  0.00    +0.000 HD
ENDROOT
BRANCH   1   3
ATOM      3  C   UNL     1       2.334   4.812  19.793  0.00  0.00    +0.000 A 
ATOM      4  N   UNL     1       1.167   4.366  20.316  0.00  0.00    +0.000 NA
ATOM      5  C   UNL     1       0.740   3.127  20.033  0.00  0.00    +0.000 A 
ATOM      6  N   UNL     1       1.332   2.232  19.241  0.00  0.00    +0.000 NA
ATOM      7  C   UNL     1       2.474   2.711  18.727  0.00  0.00    +0.000 A 
ATOM      8  O   UNL     1       3.264   2.002  17.882  0.00  0.00    +0.000 OA
ATOM      9  N   UNL     1       4.365   2.752  17.529  0.00  0.00    +0.000 NA
ATOM     10  C   UNL     1       4.233   3.936  18.155  0.00  0.00    +0.000 A 
ATOM     11  C   UNL     1       3.041   3.950  18.948  0.00  0.00    +0.000 A 
BRANCH  10  12
ATOM     12  C   UNL     1       5.237   4.987  17.951  0.00  0.00    +0.000 A 
ATOM     13  C   UNL     1       5.080   5.965  16.960  0.00  0.00    +0.000 A 
ATOM     14  C   UNL     1       6.029   6.966  16.769  0.00  0.00    +0.000 A 
ATOM     15  C   UNL     1       7.186   6.974  17.537  0.00  0.00    +0.000 A 
ATOM     16  C   UNL     1       7.377   5.997  18.512  0.00  0.00    +0.000 A 
ATOM     17  C   UNL     1       6.405   5.014  18.726  0.00  0.00    +0.000 A 
ENDBRANCH  10  12
ENDBRANCH   1   3
BRANCH   1  21
ATOM     18  C   UNL     1       1.091   9.785  18.982  0.00  0.00    +0.000 A 
ATOM     19  C   UNL     1       0.926   9.285  20.270  0.00  0.00    +0.000 A 
ATOM     20  C   UNL     1       1.504   8.078  20.654  0.00  0.00    +0.000 A 
ATOM     21  C   UNL     1       2.213   7.315  19.725  0.00  0.00    +0.000 A 
ATOM     22  C   UNL     1       2.394   7.828  18.430  0.00  0.00    +0.000 A 
ATOM     23  C   UNL     1       1.828   9.052  18.050  0.00  0.00    +0.000 A 
BRANCH  18  24
ATOM     24  O   UNL     1       0.597  10.996  18.576  0.00  0.00    +0.000 OA
BRANCH  24  25
ATOM     25  C   UNL     1      -0.270  11.603  19.539  0.00  0.00    +0.000 C 
BRANCH  25  30
ATOM     26  C   UNL     1      -5.726  11.565  17.565  0.00  0.00    +0.000 C 
ATOM     27  C   UNL     1      -4.310  11.572  18.064  0.00  0.00    +0.000 A 
ATOM     28  C   UNL     1      -3.294  10.930  17.349  0.00  0.00    +0.000 A 
ATOM     29  C   UNL     1      -1.984  10.940  17.825  0.00  0.00    +0.000 A 
ATOM     30  C   UNL     1      -1.677  11.597  19.021  0.00  0.00    +0.000 A 
ATOM     31  C   UNL     1      -2.696  12.237  19.737  0.00  0.00    +0.000 A 
ATOM     32  C   UNL     1      -4.003  12.224  19.262  0.00  0.00    +0.000 A 
ENDBRANCH  25  30
ENDBRANCH  24  25
ENDBRANCH  18  24
ENDBRANCH   1  21
TORSDOF 6
ENDMDL
MODEL 5
REMARK VINA RESULT:      -9.5      0.895      1.235
REMARK  Name = 
REMARK  7 active torsions:
REMARK  status: ('A' for Active; 'I' for Inactive)
REMARK    1  A    between atoms: C_1  and  C_2
REMARK    2  A    between atoms: C_5  and  C_6
REMARK    3  A    between atoms: C_6  and  O_7
REMARK    4  A    between atoms: O_7  and  C_8
REMARK    5  A    between atoms: C_11  and  N_12
REMARK    6  A    between atoms: N_12  and  C_13
REMARK    7  A    between atoms: C_20  and  C_21
REMARK                            x       y       z     vdW  Elec       q    Type
REMARK                         _______ _______ _______ _____ _____    ______ ____
ROOT
ATOM      1  N   UNL     1       2.820   6.077  20.103  0.00  0.00    +0.000 N 
ATOM      2  H   UNL     1       3.472   6.016  20.876  0.00  0.00    +0.000 HD
ENDROOT
BRANCH   1   3
ATOM      3  C   UNL     1       2.341   4.821  19.723  0.00  0.00    +0.000 A 
ATOM      4  N   UNL     1       1.167   4.390  20.243  0.00  0.00    +0.000 NA
ATOM      5  C   UNL     1       0.703   3.174  19.923  0.00  0.00    +0.000 A 
ATOM      6  N   UNL     1       1.263   2.289  19.096  0.00  0.00    +0.000 NA
ATOM      7  C   UNL     1       2.413   2.753  18.587  0.00  0.00    +0.000 A 
ATOM      8  O   UNL     1       3.176   2.051  17.712  0.00  0.00    +0.000 OA
ATOM      9  N   UNL     1       4.294   2.782  17.373  0.00  0.00    +0.000 NA
ATOM     10  C   UNL     1       4.200   3.948  18.039  0.00  0.00    +0.000 A 
ATOM     11  C   UNL     1       3.016   3.968  18.843  0.00  0.00    +0.000 A 
BRANCH  10  12
ATOM     12  C   UNL     1       5.231   4.976  17.859  0.00  0.00    +0.000 A 
ATOM     13  C   UNL     1       6.490   4.863  18.465  0.00  0.00    +0.000 A 
ATOM     14  C   UNL     1       7.471   5.836  18.290  0.00  0.00    +0.000 A 
ATOM     15  C   UNL     1       7.189   6.973  17.545  0.00  0.00    +0.000 A 
ATOM     16  C   UNL     1       5.936   7.121  16.954  0.00  0.00    +0.000 A 
ATOM     17  C   UNL     1       4.964   6.126  17.101  0.00  0.00    +0.000 A 
ENDBRANCH  10  12
ENDBRANCH   1   3
BRANCH   1  21
ATOM     18  C   UNL     1       0.763   9.744  19.759  0.00  0.00    +0.000 A 
ATOM     19  C   UNL     1       1.508   9.229  18.702  0.00  0.00    +0.000 A 
ATOM     20  C   UNL     1       2.164   8.006  18.812  0.00  0.00    +0.000 A 
ATOM     21  C   UNL     1       2.136   7.302  20.016  0.00  0.00    +0.000 A 
ATOM     22  C   UNL     1       1.371   7.814  21.077  0.00  0.00    +0.000 A 
ATOM     23  C   UNL     1       0.695   9.035  20.961  0.00  0.00    +0.000 A 
BRANCH  18  24
ATOM     24  O   UNL     1       0.049  10.909  19.679  0.00  0.00    +0.000 OA
BRANCH  24  25
ATOM     25  C   UNL     1      -0.407  11.202  18.355  0.00  0.00    +0.000 C 
BRANCH  25  30
ATOM     26  C   UNL     1      -6.201  10.971  18.168  0.00  0.00    +0.000 C 
ATOM     27  C   UNL     1      -4.703  11.037  18.227  0.00  0.00    +0.000 A 
ATOM     28  C   UNL     1      -4.058  11.982  19.031  0.00  0.00    +0.000 A 
ATOM     29  C   UNL     1      -2.666  12.036  19.075  0.00  0.00    +0.000 A 
ATOM     30  C   UNL     1      -1.905  11.141  18.315  0.00  0.00    +0.000 A 
ATOM     31  C   UNL     1      -2.552  10.198  17.509  0.00  0.00    +0.000 A 
ATOM     32  C   UNL     1      -3.942  10.146  17.465  0.00  0.00    +0.000 A 
ENDBRANCH  25  30
ENDBRANCH  24  25
ENDBRANCH  18  24
ENDBRANCH   1  21
TORSDOF 6
ENDMDL
MODEL 6
REMARK VINA RESULT:      -9.4      0.506      1.145
REMARK  Name = 
REMARK  7 active torsions:
REMARK  status: ('A' for Active; 'I' for Inactive)
REMARK    1  A    between atoms: C_1  and  C_2
REMARK    2  A    between atoms: C_5  and  C_6
REMARK    3  A    between atoms: C_6  and  O_7
REMARK    4  A    between atoms: O_7  and  C_8
REMARK    5  A    between atoms: C_11  and  N_12
REMARK    6  A    between atoms: N_12  and  C_13
REMARK    7  A    between atoms: C_20  and  C_21
REMARK                            x       y       z     vdW  Elec       q    Type
REMARK                         _______ _______ _______ _____ _____    ______ ____
ROOT
ATOM      1  N   UNL     1       2.756   6.099  20.170  0.00  0.00    +0.000 N 
ATOM      2  H   UNL     1       3.317   6.050  21.011  0.00  0.00    +0.000 HD
ENDROOT
BRANCH   1   3
ATOM      3  C   UNL     1       2.275   4.843  19.789  0.00  0.00    +0.000 A 
ATOM      4  N   UNL     1       1.106   4.409  20.318  0.00  0.00    +0.000 NA
ATOM      5  C   UNL     1       0.640   3.194  19.998  0.00  0.00    +0.000 A 
ATOM      6  N   UNL     1       1.193   2.312  19.163  0.00  0.00    +0.000 NA
ATOM      7  C   UNL     1       2.338   2.779  18.646  0.00  0.00    +0.000 A 
ATOM      8  O   UNL     1       3.094   2.080  17.761  0.00  0.00    +0.000 OA
ATOM      9  N   UNL     1       4.208   2.814  17.415  0.00  0.00    +0.000 NA
ATOM     10  C   UNL     1       4.120   3.977  18.085  0.00  0.00    +0.000 A 
ATOM     11  C   UNL     1       2.943   3.994  18.900  0.00  0.00    +0.000 A 
BRANCH  10  12
ATOM     12  C   UNL     1       5.148   5.008  17.900  0.00  0.00    +0.000 A 
ATOM     13  C   UNL     1       6.337   4.995  18.642  0.00  0.00    +0.000 A 
ATOM     14  C   UNL     1       7.316   5.970  18.462  0.00  0.00    +0.000 A 
ATOM     15  C   UNL     1       7.097   7.010  17.570  0.00  0.00    +0.000 A 
ATOM     16  C   UNL     1       5.912   7.059  16.839  0.00  0.00    +0.000 A 
ATOM     17  C   UNL     1       4.945   6.059  16.995  0.00  0.00    +0.000 A 
ENDBRANCH  10  12
ENDBRANCH   1   3
BRANCH   1  21
ATOM     18  C   UNL     1       0.886   9.839  19.617  0.00  0.00    +0.000 A 
ATOM     19  C   UNL     1       0.832   9.176  20.839  0.00  0.00    +0.000 A 
ATOM     20  C   UNL     1       1.472   7.954  21.024  0.00  0.00    +0.000 A 
ATOM     21  C   UNL     1       2.131   7.340  19.958  0.00  0.00    +0.000 A 
ATOM     22  C   UNL     1       2.200   8.018  18.730  0.00  0.00    +0.000 A 
ATOM     23  C   UNL     1       1.572   9.257  18.549  0.00  0.00    +0.000 A 
BRANCH  18  24
ATOM     24  O   UNL     1       0.328  11.071  19.404  0.00  0.00    +0.000 OA
BRANCH  24  25
ATOM     25  C   UNL     1      -1.086  11.096  19.621  0.00  0.00    +0.000 C 
BRANCH  25  30
ATOM     26  C   UNL     1      -3.851  10.111  14.616  0.00  0.00    +0.000 C 
ATOM     27  C   UNL     1      -3.135  10.352  15.913  0.00  0.00    +0.000 A 
ATOM     28  C   UNL     1      -3.135   9.386  16.924  0.00  0.00    +0.000 A 
ATOM     29  C   UNL     1      -2.470   9.625  18.125  0.00  0.00    +0.000 A 
ATOM     30  C   UNL     1      -1.796  10.833  18.326  0.00  0.00    +0.000 A 
ATOM     31  C   UNL     1      -1.800  11.801  17.315  0.00  0.00    +0.000 A 
ATOM     32  C   UNL     1      -2.466  11.563  16.117  0.00  0.00    +0.000 A 
ENDBRANCH  25  30
ENDBRANCH  24  25
ENDBRANCH  18  24
ENDBRANCH   1  21
TORSDOF 6
ENDMDL
MODEL 7
REMARK VINA RESULT:      -9.4      0.887      1.683
REMARK  Name = 
REMARK  7 active torsions:
REMARK  status: ('A' for Active; 'I' for Inactive)
REMARK    1  A    between atoms: C_1  and  C_2
REMARK    2  A    between atoms: C_5  and  C_6
REMARK    3  A    between atoms: C_6  and  O_7
REMARK    4  A    between atoms: O_7  and  C_8
REMARK    5  A    between atoms: C_11  and  N_12
REMARK    6  A    between atoms: N_12  and  C_13
REMARK    7  A    between atoms: C_20  and  C_21
REMARK                            x       y       z     vdW  Elec       q    Type
REMARK                         _______ _______ _______ _____ _____    ______ ____
ROOT
ATOM      1  N   UNL     1       2.785   6.163  20.173  0.00  0.00    +0.000 N 
ATOM      2  H   UNL     1       3.418   6.091  20.961  0.00  0.00    +0.000 HD
ENDROOT
BRANCH   1   3
ATOM      3  C   UNL     1       2.309   4.913  19.770  0.00  0.00    +0.000 A 
ATOM      4  N   UNL     1       1.127   4.478  20.268  0.00  0.00    +0.000 NA
ATOM      5  C   UNL     1       0.665   3.267  19.927  0.00  0.00    +0.000 A 
ATOM      6  N   UNL     1       1.233   2.392  19.096  0.00  0.00    +0.000 NA
ATOM      7  C   UNL     1       2.391   2.860  18.608  0.00  0.00    +0.000 A 
ATOM      8  O   UNL     1       3.163   2.167  17.734  0.00  0.00    +0.000 OA
ATOM      9  N   UNL     1       4.287   2.900  17.419  0.00  0.00    +0.000 NA
ATOM     10  C   UNL     1       4.188   4.057  18.099  0.00  0.00    +0.000 A 
ATOM     11  C   UNL     1       2.993   4.070  18.888  0.00  0.00    +0.000 A 
BRANCH  10  12
ATOM     12  C   UNL     1       5.223   5.086  17.946  0.00  0.00    +0.000 A 
ATOM     13  C   UNL     1       5.053   6.170  17.075  0.00  0.00    +0.000 A 
ATOM     14  C   UNL     1       6.033   7.150  16.935  0.00  0.00    +0.000 A 
ATOM     15  C   UNL     1       7.231   7.032  17.627  0.00  0.00    +0.000 A 
ATOM     16  C   UNL     1       7.434   5.949  18.480  0.00  0.00    +0.000 A 
ATOM     17  C   UNL     1       6.434   4.985  18.647  0.00  0.00    +0.000 A 
ENDBRANCH  10  12
ENDBRANCH   1   3
BRANCH   1  21
ATOM     18  C   UNL     1       0.755   9.843  19.811  0.00  0.00    +0.000 A 
ATOM     19  C   UNL     1       1.477   9.307  18.749  0.00  0.00    +0.000 A 
ATOM     20  C   UNL     1       2.124   8.080  18.865  0.00  0.00    +0.000 A 
ATOM     21  C   UNL     1       2.111   7.393  20.079  0.00  0.00    +0.000 A 
ATOM     22  C   UNL     1       1.368   7.926  21.146  0.00  0.00    +0.000 A 
ATOM     23  C   UNL     1       0.701   9.151  21.023  0.00  0.00    +0.000 A 
BRANCH  18  24
ATOM     24  O   UNL     1       0.050  11.013  19.725  0.00  0.00    +0.000 OA
BRANCH  24  25
ATOM     25  C   UNL     1      -0.383  11.316  18.396  0.00  0.00    +0.000 C 
BRANCH  25  30
ATOM     26  C   UNL     1      -6.168  10.954  18.146  0.00  0.00    +0.000 C 
ATOM     27  C   UNL     1      -4.671  11.042  18.199  0.00  0.00    +0.000 A 
ATOM     28  C   UNL     1      -3.875  10.194  17.422  0.00  0.00    +0.000 A 
ATOM     29  C   UNL     1      -2.485  10.283  17.484  0.00  0.00    +0.000 A 
ATOM     30  C   UNL     1      -1.878  11.224  18.322  0.00  0.00    +0.000 A 
ATOM     31  C   UNL     1      -2.677  12.069  19.101  0.00  0.00    +0.000 A 
ATOM     32  C   UNL     1      -4.063  11.978  19.041  0.00  0.00    +0.000 A 
ENDBRANCH  25  30
ENDBRANCH  24  25
ENDBRANCH  18  24
ENDBRANCH   1  21
TORSDOF 6
ENDMDL
MODEL 8
REMARK VINA RESULT:      -9.4      0.878      1.714
REMARK  Name = 
REMARK  7 active torsions:
REMARK  status: ('A' for Active; 'I' for Inactive)
REMARK    1  A    between atoms: C_1  and  C_2
REMARK    2  A    between atoms: C_5  and  C_6
REMARK    3  A    between atoms: C_6  and  O_7
REMARK    4  A    between atoms: O_7  and  C_8
REMARK    5  A    between atoms: C_11  and  N_12
REMARK    6  A    between atoms: N_12  and  C_13
REMARK    7  A    between atoms: C_20  and  C_21
REMARK                            x       y       z     vdW  Elec       q    Type
REMARK                         _______ _______ _______ _____ _____    ______ ____
ROOT
ATOM      1  N   UNL     1       2.766   6.054  20.154  0.00  0.00    +0.000 N 
ATOM      2  H   UNL     1       3.382   5.998  20.957  0.00  0.00    +0.000 HD
ENDROOT
BRANCH   1   3
ATOM      3  C   UNL     1       2.301   4.795  19.766  0.00  0.00    +0.000 A 
ATOM      4  N   UNL     1       1.136   4.344  20.290  0.00  0.00    +0.000 NA
ATOM      5  C   UNL     1       0.686   3.125  19.962  0.00  0.00    +0.000 A 
ATOM      6  N   UNL     1       1.250   2.256  19.123  0.00  0.00    +0.000 NA
ATOM      7  C   UNL     1       2.390   2.739  18.610  0.00  0.00    +0.000 A 
ATOM      8  O   UNL     1       3.155   2.054  17.722  0.00  0.00    +0.000 OA
ATOM      9  N   UNL     1       4.261   2.803  17.381  0.00  0.00    +0.000 NA
ATOM     10  C   UNL     1       4.158   3.961  18.059  0.00  0.00    +0.000 A 
ATOM     11  C   UNL     1       2.980   3.959  18.872  0.00  0.00    +0.000 A 
BRANCH  10  12
ATOM     12  C   UNL     1       5.174   5.005  17.881  0.00  0.00    +0.000 A 
ATOM     13  C   UNL     1       5.063   5.968  16.869  0.00  0.00    +0.000 A 
ATOM     14  C   UNL     1       6.024   6.963  16.704  0.00  0.00    +0.000 A 
ATOM     15  C   UNL     1       7.148   6.977  17.519  0.00  0.00    +0.000 A 
ATOM     16  C   UNL     1       7.294   6.015  18.517  0.00  0.00    +0.000 A 
ATOM     17  C   UNL     1       6.309   5.039  18.704  0.00  0.00    +0.000 A 
ENDBRANCH  10  12
ENDBRANCH   1   3
BRANCH   1  21
ATOM     18  C   UNL     1       0.746   9.743  19.841  0.00  0.00    +0.000 A 
ATOM     19  C   UNL     1       0.719   9.001  21.017  0.00  0.00    +0.000 A 
ATOM     20  C   UNL     1       1.409   7.796  21.124  0.00  0.00    +0.000 A 
ATOM     21  C   UNL     1       2.092   7.280  20.022  0.00  0.00    +0.000 A 
ATOM     22  C   UNL     1       2.132   8.037  18.840  0.00  0.00    +0.000 A 
ATOM     23  C   UNL     1       1.454   9.259  18.739  0.00  0.00    +0.000 A 
BRANCH  18  24
ATOM     24  O   UNL     1       0.138  10.963  19.707  0.00  0.00    +0.000 OA
BRANCH  24  25
ATOM     25  C   UNL     1      -0.296  11.234  18.370  0.00  0.00    +0.000 C 
BRANCH  25  30
ATOM     26  C   UNL     1      -6.087  11.007  18.094  0.00  0.00    +0.000 C 
ATOM     27  C   UNL     1      -4.590  11.072  18.177  0.00  0.00    +0.000 A 
ATOM     28  C   UNL     1      -3.956  12.010  18.997  0.00  0.00    +0.000 A 
ATOM     29  C   UNL     1      -2.565  12.063  19.062  0.00  0.00    +0.000 A 
ATOM     30  C   UNL     1      -1.793  11.174  18.308  0.00  0.00    +0.000 A 
ATOM     31  C   UNL     1      -2.428  10.237  17.484  0.00  0.00    +0.000 A 
ATOM     32  C   UNL     1      -3.817  10.187  17.418  0.00  0.00    +0.000 A 
ENDBRANCH  25  30
ENDBRANCH  24  25
ENDBRANCH  18  24
ENDBRANCH   1  21
TORSDOF 6
ENDMDL
MODEL 9
REMARK VINA RESULT:      -9.4      0.527      1.016
REMARK  Name = 
REMARK  7 active torsions:
REMARK  status: ('A' for Active; 'I' for Inactive)
REMARK    1  A    between atoms: C_1  and  C_2
REMARK    2  A    between atoms: C_5  and  C_6
REMARK    3  A    between atoms: C_6  and  O_7
REMARK    4  A    between atoms: O_7  and  C_8
REMARK    5  A    between atoms: C_11  and  N_12
REMARK    6  A    between atoms: N_12  and  C_13
REMARK    7  A    between atoms: C_20  and  C_21
REMARK                            x       y       z     vdW  Elec       q    Type
REMARK                         _______ _______ _______ _____ _____    ______ ____
ROOT
ATOM      1  N   UNL     1       2.761   6.205  20.151  0.00  0.00    +0.000 N 
ATOM      2  H   UNL     1       3.373   6.139  20.955  0.00  0.00    +0.000 HD
ENDROOT
BRANCH   1   3
ATOM      3  C   UNL     1       2.242   4.960  19.787  0.00  0.00    +0.000 A 
ATOM      4  N   UNL     1       1.060   4.569  20.321  0.00  0.00    +0.000 NA
ATOM      5  C   UNL     1       0.558   3.364  20.017  0.00  0.00    +0.000 A 
ATOM      6  N   UNL     1       1.083   2.455  19.195  0.00  0.00    +0.000 NA
ATOM      7  C   UNL     1       2.242   2.880  18.671  0.00  0.00    +0.000 A 
ATOM      8  O   UNL     1       2.976   2.146  17.796  0.00  0.00    +0.000 OA
ATOM      9  N   UNL     1       4.112   2.841  17.440  0.00  0.00    +0.000 NA
ATOM     10  C   UNL     1       4.059   4.016  18.095  0.00  0.00    +0.000 A 
ATOM     11  C   UNL     1       2.883   4.078  18.910  0.00  0.00    +0.000 A 
BRANCH  10  12
ATOM     12  C   UNL     1       5.118   5.011  17.897  0.00  0.00    +0.000 A 
ATOM     13  C   UNL     1       4.951   6.091  17.019  0.00  0.00    +0.000 A 
ATOM     14  C   UNL     1       5.953   7.041  16.835  0.00  0.00    +0.000 A 
ATOM     15  C   UNL     1       7.169   6.894  17.489  0.00  0.00    +0.000 A 
ATOM     16  C   UNL     1       7.370   5.815  18.347  0.00  0.00    +0.000 A 
ATOM     17  C   UNL     1       6.348   4.883  18.559  0.00  0.00    +0.000 A 
ENDBRANCH  10  12
ENDBRANCH   1   3
BRANCH   1  21
ATOM     18  C   UNL     1       0.889   9.944  19.596  0.00  0.00    +0.000 A 
ATOM     19  C   UNL     1       1.568   9.313  18.558  0.00  0.00    +0.000 A 
ATOM     20  C   UNL     1       2.162   8.067  18.739  0.00  0.00    +0.000 A 
ATOM     21  C   UNL     1       2.139   7.456  19.993  0.00  0.00    +0.000 A 
ATOM     22  C   UNL     1       1.440   8.085  21.036  0.00  0.00    +0.000 A 
ATOM     23  C   UNL     1       0.825   9.330  20.849  0.00  0.00    +0.000 A 
BRANCH  18  24
ATOM     24  O   UNL     1       0.234  11.138  19.451  0.00  0.00    +0.000 OA
BRANCH  24  25
ATOM     25  C   UNL     1      -1.177  11.037  19.663  0.00  0.00    +0.000 C 
BRANCH  25  30
ATOM     26  C   UNL     1      -3.826  10.115  14.584  0.00  0.00    +0.000 C 
ATOM     27  C   UNL     1      -3.141  10.367  15.896  0.00  0.00    +0.000 A 
ATOM     28  C   UNL     1      -2.447  11.559  16.126  0.00  0.00    +0.000 A 
ATOM     29  C   UNL     1      -1.811  11.778  17.347  0.00  0.00    +0.000 A 
ATOM     30  C   UNL     1      -1.866  10.807  18.351  0.00  0.00    +0.000 A 
ATOM     31  C   UNL     1      -2.559   9.613  18.118  0.00  0.00    +0.000 A 
ATOM     32  C   UNL     1      -3.191   9.393  16.899  0.00  0.00    +0.000 A 
ENDBRANCH  25  30
ENDBRANCH  24  25
ENDBRANCH  18  24
ENDBRANCH   1  21
TORSDOF 6
ENDMDL
