MODEL 1
REMARK VINA RESULT:      -7.8      0.000      0.000
REMARK  Name = 
REMARK  5 active torsions:
REMARK  status: ('A' for Active; 'I' for Inactive)
REMARK    1  A    between atoms: C_2  and  C_3
REMARK    2  A    between atoms: C_2  and  C_14
REMARK    3  A    between atoms: C_3  and  O_4
REMARK    4  A    between atoms: O_4  and  C_5
REMARK    5  A    between atoms: C_5  and  C_7
REMARK                            x       y       z     vdW  Elec       q    Type
REMARK                         _______ _______ _______ _____ _____    ______ ____
ROOT
ATOM      1  O   UNL     1       3.870   7.214  17.036  0.00  0.00    +0.000 OA
ATOM      2  C   UNL     1       3.319   6.964  18.111  0.00  0.00    +0.000 C 
ENDROOT
BRANCH   2   3
ATOM      3  C   UNL     1       2.332   7.935  18.672  0.00  0.00    +0.000 A 
ATOM      4  C   UNL     1       1.709   8.904  17.874  0.00  0.00    +0.000 A 
ATOM      5  C   UNL     1       0.787   9.791  18.440  0.00  0.00    +0.000 A 
ATOM      6  C   UNL     1       0.493   9.720  19.800  0.00  0.00    +0.000 A 
ATOM      7  C   UNL     1       1.093   8.742  20.596  0.00  0.00    +0.000 A 
ATOM      8  C   UNL     1       2.015   7.857  20.036  0.00  0.00    +0.000 A 
ATOM      9  O   UNL     1       0.830   8.599  21.934  0.00  0.00    +0.000 OA
ATOM     10  C   UNL     1      -0.348   9.314  22.324  0.00  0.00    +0.000 C 
ATOM     11  C   UNL     1      -0.374  10.704  21.711  0.00  0.00    +0.000 C 
ATOM     12  O   UNL     1      -0.410  10.632  20.281  0.00  0.00    +0.000 OA
ENDBRANCH   2   3
BRANCH   2  13
ATOM     13  C   UNL     1       3.611   5.690  18.897  0.00  0.00    +0.000 C 
BRANCH  13  14
ATOM     14  O   UNL     1       3.991   4.597  18.055  0.00  0.00    +0.000 OA
BRANCH  14  15
ATOM     15  C   UNL     1       5.322   4.339  18.066  0.00  0.00    +0.000 C 
ATOM     16  O   UNL     1       5.989   4.063  19.057  0.00  0.00    +0.000 OA
BRANCH  15  17
ATOM     17  C   UNL     1       5.911   4.489  16.722  0.00  0.00    +0.000 A 
ATOM     18  C   UNL     1       5.461   3.795  15.596  0.00  0.00    +0.000 A 
ATOM     19  C   UNL     1       6.071   4.024  14.362  0.00  0.00    +0.000 A 
ATOM     20  C   UNL     1       7.113   4.935  14.306  0.00  0.00    +0.000 A 
ATOM     21 CL   UNL     1       7.912   5.272  12.828  0.00  0.00    +0.000 Cl
ATOM     22  N   UNL     1       7.573   5.628  15.368  0.00  0.00    +0.000 NA
ATOM     23  C   UNL     1       6.959   5.389  16.553  0.00  0.00    +0.000 A 
ENDBRANCH  15  17
ENDBRANCH  14  15
ENDBRANCH  13  14
ENDBRANCH   2  13
TORSDOF 5
ENDMDL
MODEL 2
REMARK VINA RESULT:      -7.6      3.511      4.814
REMARK  Name = 
REMARK  5 active torsions:
REMARK  status: ('A' for Active; 'I' for Inactive)
REMARK    1  A    between atoms: C_2  and  C_3
REMARK    2  A    between atoms: C_2  and  C_14
REMARK    3  A    between atoms: C_3  and  O_4
REMARK    4  A    between atoms: O_4  and  C_5
REMARK    5  A    between atoms: C_5  and  C_7
REMARK                            x       y       z     vdW  Elec       q    Type
REMARK                         _______ _______ _______ _____ _____    ______ ____
ROOT
ATOM      1  O   UNL     1       7.352   5.555  20.112  0.00  0.00    +0.000 OA
ATOM      2  C   UNL     1       6.778   5.058  19.140  0.00  0.00    +0.000 C 
ENDROOT
BRANCH   2   3
ATOM      3  C   UNL     1       5.299   4.851  19.189  0.00  0.00    +0.000 A 
ATOM      4  C   UNL     1       4.403   5.923  19.290  0.00  0.00    +0.000 A 
ATOM      5  C   UNL     1       3.025   5.683  19.328  0.00  0.00    +0.000 A 
ATOM      6  C   UNL     1       2.541   4.377  19.276  0.00  0.00    +0.000 A 
ATOM      7  C   UNL     1       3.428   3.306  19.152  0.00  0.00    +0.000 A 
ATOM      8  C   UNL     1       4.803   3.541  19.116  0.00  0.00    +0.000 A 
ATOM      9  O   UNL     1       3.020   2.000  19.069  0.00  0.00    +0.000 OA
ATOM     10  C   UNL     1       1.621   1.897  18.781  0.00  0.00    +0.000 C 
ATOM     11  C   UNL     1       0.814   2.870  19.623  0.00  0.00    +0.000 C 
ATOM     12  O   UNL     1       1.180   4.224  19.332  0.00  0.00    +0.000 OA
ENDBRANCH   2   3
BRANCH   2  13
ATOM     13  C   UNL     1       7.529   4.644  17.878  0.00  0.00    +0.000 C 
BRANCH  13  14
ATOM     14  O   UNL     1       7.846   5.755  17.035  0.00  0.00    +0.000 OA
BRANCH  14  15
ATOM     15  C   UNL     1       6.794   6.207  16.310  0.00  0.00    +0.000 C 
ATOM     16  O   UNL     1       6.159   7.231  16.535  0.00  0.00    +0.000 OA
BRANCH  15  17
ATOM     17  C   UNL     1       6.447   5.271  15.223  0.00  0.00    +0.000 A 
ATOM     18  C   UNL     1       5.281   4.501  15.207  0.00  0.00    +0.000 A 
ATOM     19  C   UNL     1       5.033   3.660  14.120  0.00  0.00    +0.000 A 
ATOM     20  C   UNL     1       5.966   3.620  13.097  0.00  0.00    +0.000 A 
ATOM     21 CL   UNL     1       5.733   2.614  11.730  0.00  0.00    +0.000 Cl
ATOM     22  N   UNL     1       7.100   4.350  13.074  0.00  0.00    +0.000 NA
ATOM     23  C   UNL     1       7.313   5.161  14.141  0.00  0.00    +0.000 A 
ENDBRANCH  15  17
ENDBRANCH  14  15
ENDBRANCH  13  14
ENDBRANCH   2  13
TORSDOF 5
ENDMDL
MODEL 3
REMARK VINA RESULT:      -7.5      2.668      3.975
REMARK  Name = 
REMARK  5 active torsions:
REMARK  status: ('A' for Active; 'I' for Inactive)
REMARK    1  A    between atoms: C_2  and  C_3
REMARK    2  A    between atoms: C_2  and  C_14
REMARK    3  A    between atoms: C_3  and  O_4
REMARK    4  A    between atoms: O_4  and  C_5
REMARK    5  A    between atoms: C_5  and  C_7
REMARK                            x       y       z     vdW  Elec       q    Type
REMARK                         _______ _______ _______ _____ _____    ______ ____
ROOT
ATOM      1  O   UNL     1       2.905   8.399  17.178  0.00  0.00    +0.000 OA
ATOM      2  C   UNL     1       3.497   7.360  17.482  0.00  0.00    +0.000 C 
ENDROOT
BRANCH   2   3
ATOM      3  C   UNL     1       2.827   6.368  18.375  0.00  0.00    +0.000 A 
ATOM      4  C   UNL     1       2.516   6.662  19.709  0.00  0.00    +0.000 A 
ATOM      5  C   UNL     1       1.882   5.705  20.508  0.00  0.00    +0.000 A 
ATOM      6  C   UNL     1       1.568   4.453  19.983  0.00  0.00    +0.000 A 
ATOM      7  C   UNL     1       1.855   4.162  18.648  0.00  0.00    +0.000 A 
ATOM      8  C   UNL     1       2.488   5.113  17.848  0.00  0.00    +0.000 A 
ATOM      9  O   UNL     1       1.551   2.961  18.060  0.00  0.00    +0.000 OA
ATOM     10  C   UNL     1       0.625   2.203  18.846  0.00  0.00    +0.000 C 
ATOM     11  C   UNL     1       1.004   2.229  20.317  0.00  0.00    +0.000 C 
ATOM     12  O   UNL     1       0.962   3.565  20.833  0.00  0.00    +0.000 OA
ENDBRANCH   2   3
BRANCH   2  13
ATOM     13  C   UNL     1       4.902   7.049  16.975  0.00  0.00    +0.000 C 
BRANCH  13  14
ATOM     14  O   UNL     1       5.742   6.486  17.986  0.00  0.00    +0.000 OA
BRANCH  14  15
ATOM     15  C   UNL     1       6.055   5.185  17.772  0.00  0.00    +0.000 C 
ATOM     16  O   UNL     1       6.207   4.334  18.641  0.00  0.00    +0.000 OA
BRANCH  15  17
ATOM     17  C   UNL     1       6.258   4.909  16.337  0.00  0.00    +0.000 A 
ATOM     18  C   UNL     1       5.358   4.182  15.552  0.00  0.00    +0.000 A 
ATOM     19  C   UNL     1       5.631   3.994  14.196  0.00  0.00    +0.000 A 
ATOM     20  C   UNL     1       6.798   4.536  13.681  0.00  0.00    +0.000 A 
ATOM     21 CL   UNL     1       7.203   4.349  12.027  0.00  0.00    +0.000 Cl
ATOM     22  N   UNL     1       7.688   5.246  14.404  0.00  0.00    +0.000 NA
ATOM     23  C   UNL     1       7.396   5.417  15.718  0.00  0.00    +0.000 A 
ENDBRANCH  15  17
ENDBRANCH  14  15
ENDBRANCH  13  14
ENDBRANCH   2  13
TORSDOF 5
ENDMDL
MODEL 4
REMARK VINA RESULT:      -7.5      0.931      1.198
REMARK  Name = 
REMARK  5 active torsions:
REMARK  status: ('A' for Active; 'I' for Inactive)
REMARK    1  A    between atoms: C_2  and  C_3
REMARK    2  A    between atoms: C_2  and  C_14
REMARK    3  A    between atoms: C_3  and  O_4
REMARK    4  A    between atoms: O_4  and  C_5
REMARK    5  A    between atoms: C_5  and  C_7
REMARK                            x       y       z     vdW  Elec       q    Type
REMARK                         _______ _______ _______ _____ _____    ______ ____
ROOT
ATOM      1  O   UNL     1       2.349   5.444  20.449  0.00  0.00    +0.000 OA
ATOM      2  C   UNL     1       2.670   6.306  19.626  0.00  0.00    +0.000 C 
ENDROOT
BRANCH   2   3
ATOM      3  C   UNL     1       2.021   7.650  19.681  0.00  0.00    +0.000 A 
ATOM      4  C   UNL     1       1.939   8.481  18.556  0.00  0.00    +0.000 A 
ATOM      5  C   UNL     1       1.318   9.730  18.652  0.00  0.00    +0.000 A 
ATOM      6  C   UNL     1       0.788  10.156  19.868  0.00  0.00    +0.000 A 
ATOM      7  C   UNL     1       0.846   9.323  20.988  0.00  0.00    +0.000 A 
ATOM      8  C   UNL     1       1.467   8.077  20.897  0.00  0.00    +0.000 A 
ATOM      9  O   UNL     1       0.323   9.668  22.207  0.00  0.00    +0.000 OA
ATOM     10  C   UNL     1      -0.565  10.787  22.108  0.00  0.00    +0.000 C 
ATOM     11  C   UNL     1       0.020  11.874  21.222  0.00  0.00    +0.000 C 
ATOM     12  O   UNL     1       0.208  11.398  19.885  0.00  0.00    +0.000 OA
ENDBRANCH   2   3
BRANCH   2  13
ATOM     13  C   UNL     1       3.716   6.046  18.546  0.00  0.00    +0.000 C 
BRANCH  13  14
ATOM     14  O   UNL     1       3.929   4.653  18.307  0.00  0.00    +0.000 OA
BRANCH  14  15
ATOM     15  C   UNL     1       5.238   4.308  18.225  0.00  0.00    +0.000 C 
ATOM     16  O   UNL     1       5.948   3.971  19.165  0.00  0.00    +0.000 OA
BRANCH  15  17
ATOM     17  C   UNL     1       5.746   4.447  16.847  0.00  0.00    +0.000 A 
ATOM     18  C   UNL     1       4.985   4.165  15.709  0.00  0.00    +0.000 A 
ATOM     19  C   UNL     1       5.551   4.349  14.446  0.00  0.00    +0.000 A 
ATOM     20  C   UNL     1       6.859   4.802  14.374  0.00  0.00    +0.000 A 
ATOM     21 CL   UNL     1       7.623   5.053  12.862  0.00  0.00    +0.000 Cl
ATOM     22  N   UNL     1       7.623   5.088  15.448  0.00  0.00    +0.000 NA
ATOM     23  C   UNL     1       7.046   4.904  16.662  0.00  0.00    +0.000 A 
ENDBRANCH  15  17
ENDBRANCH  14  15
ENDBRANCH  13  14
ENDBRANCH   2  13
TORSDOF 5
ENDMDL
MODEL 5
REMARK VINA RESULT:      -7.4      2.799      3.887
REMARK  Name = 
REMARK  5 active torsions:
REMARK  status: ('A' for Active; 'I' for Inactive)
REMARK    1  A    between atoms: C_2  and  C_3
REMARK    2  A    between atoms: C_2  and  C_14
REMARK    3  A    between atoms: C_3  and  O_4
REMARK    4  A    between atoms: O_4  and  C_5
REMARK    5  A    between atoms: C_5  and  C_7
REMARK                            x       y       z     vdW  Elec       q    Type
REMARK                         _______ _______ _______ _____ _____    ______ ____
ROOT
ATOM      1  O   UNL     1       2.649   8.329  17.985  0.00  0.00    +0.000 OA
ATOM      2  C   UNL     1       3.238   7.262  17.790  0.00  0.00    +0.000 C 
ENDROOT
BRANCH   2   3
ATOM      3  C   UNL     1       2.672   5.999  18.351  0.00  0.00    +0.000 A 
ATOM      4  C   UNL     1       2.018   5.057  17.546  0.00  0.00    +0.000 A 
ATOM      5  C   UNL     1       1.508   3.884  18.113  0.00  0.00    +0.000 A 
ATOM      6  C   UNL     1       1.639   3.655  19.481  0.00  0.00    +0.000 A 
ATOM      7  C   UNL     1       2.309   4.580  20.285  0.00  0.00    +0.000 A 
ATOM      8  C   UNL     1       2.818   5.751  19.724  0.00  0.00    +0.000 A 
ATOM      9  O   UNL     1       2.496   4.406  21.632  0.00  0.00    +0.000 OA
ATOM     10  C   UNL     1       2.244   3.054  22.034  0.00  0.00    +0.000 C 
ATOM     11  C   UNL     1       0.977   2.518  21.390  0.00  0.00    +0.000 C 
ATOM     12  O   UNL     1       1.100   2.491  19.963  0.00  0.00    +0.000 OA
ENDBRANCH   2   3
BRANCH   2  13
ATOM     13  C   UNL     1       4.533   7.186  16.988  0.00  0.00    +0.000 C 
BRANCH  13  14
ATOM     14  O   UNL     1       5.634   6.701  17.762  0.00  0.00    +0.000 OA
BRANCH  14  15
ATOM     15  C   UNL     1       5.847   5.369  17.631  0.00  0.00    +0.000 C 
ATOM     16  O   UNL     1       5.888   4.557  18.548  0.00  0.00    +0.000 OA
BRANCH  15  17
ATOM     17  C   UNL     1       6.095   5.000  16.223  0.00  0.00    +0.000 A 
ATOM     18  C   UNL     1       5.197   4.262  15.447  0.00  0.00    +0.000 A 
ATOM     19  C   UNL     1       5.515   3.983  14.116  0.00  0.00    +0.000 A 
ATOM     20  C   UNL     1       6.721   4.448  13.619  0.00  0.00    +0.000 A 
ATOM     21 CL   UNL     1       7.182   4.147  11.997  0.00  0.00    +0.000 Cl
ATOM     22  N   UNL     1       7.611   5.166  14.335  0.00  0.00    +0.000 NA
ATOM     23  C   UNL     1       7.275   5.426  15.623  0.00  0.00    +0.000 A 
ENDBRANCH  15  17
ENDBRANCH  14  15
ENDBRANCH  13  14
ENDBRANCH   2  13
TORSDOF 5
ENDMDL
MODEL 6
REMARK VINA RESULT:      -7.4      4.732      8.763
REMARK  Name = 
REMARK  5 active torsions:
REMARK  status: ('A' for Active; 'I' for Inactive)
REMARK    1  A    between atoms: C_2  and  C_3
REMARK    2  A    between atoms: C_2  and  C_14
REMARK    3  A    between atoms: C_3  and  O_4
REMARK    4  A    between atoms: O_4  and  C_5
REMARK    5  A    between atoms: C_5  and  C_7
REMARK                            x       y       z     vdW  Elec       q    Type
REMARK                         _______ _______ _______ _____ _____    ______ ____
ROOT
ATOM      1  O   UNL     1       1.929   7.600  19.913  0.00  0.00    +0.000 OA
ATOM      2  C   UNL     1       2.350   7.768  18.765  0.00  0.00    +0.000 C 
ENDROOT
BRANCH   2   3
ATOM      3  C   UNL     1       3.083   6.659  18.083  0.00  0.00    +0.000 A 
ATOM      4  C   UNL     1       2.650   5.329  18.157  0.00  0.00    +0.000 A 
ATOM      5  C   UNL     1       3.364   4.323  17.498  0.00  0.00    +0.000 A 
ATOM      6  C   UNL     1       4.512   4.639  16.775  0.00  0.00    +0.000 A 
ATOM      7  C   UNL     1       4.936   5.966  16.679  0.00  0.00    +0.000 A 
ATOM      8  C   UNL     1       4.228   6.972  17.336  0.00  0.00    +0.000 A 
ATOM      9  O   UNL     1       6.041   6.350  15.965  0.00  0.00    +0.000 OA
ATOM     10  C   UNL     1       6.486   5.319  15.076  0.00  0.00    +0.000 C 
ATOM     11  C   UNL     1       6.487   3.965  15.765  0.00  0.00    +0.000 C 
ATOM     12  O   UNL     1       5.164   3.595  16.170  0.00  0.00    +0.000 OA
ENDBRANCH   2   3
BRANCH   2  13
ATOM     13  C   UNL     1       2.149   9.079  18.011  0.00  0.00    +0.000 C 
BRANCH  13  14
ATOM     14  O   UNL     1       0.774   9.341  17.717  0.00  0.00    +0.000 OA
BRANCH  14  15
ATOM     15  C   UNL     1       0.218  10.289  18.510  0.00  0.00    +0.000 C 
ATOM     16  O   UNL     1       0.772  10.850  19.449  0.00  0.00    +0.000 OA
BRANCH  15  17
ATOM     17  C   UNL     1      -1.190  10.537  18.148  0.00  0.00    +0.000 A 
ATOM     18  C   UNL     1      -1.849   9.880  17.105  0.00  0.00    +0.000 A 
ATOM     19  C   UNL     1      -3.192  10.169  16.855  0.00  0.00    +0.000 A 
ATOM     20  C   UNL     1      -3.819  11.111  17.655  0.00  0.00    +0.000 A 
ATOM     21 CL   UNL     1      -5.464  11.521  17.410  0.00  0.00    +0.000 Cl
ATOM     22  N   UNL     1      -3.219  11.763  18.671  0.00  0.00    +0.000 NA
ATOM     23  C   UNL     1      -1.916  11.460  18.895  0.00  0.00    +0.000 A 
ENDBRANCH  15  17
ENDBRANCH  14  15
ENDBRANCH  13  14
ENDBRANCH   2  13
TORSDOF 5
ENDMDL
MODEL 7
REMARK VINA RESULT:      -7.4      1.251      1.594
REMARK  Name = 
REMARK  5 active torsions:
REMARK  status: ('A' for Active; 'I' for Inactive)
REMARK    1  A    between atoms: C_2  and  C_3
REMARK    2  A    between atoms: C_2  and  C_14
REMARK    3  A    between atoms: C_3  and  O_4
REMARK    4  A    between atoms: O_4  and  C_5
REMARK    5  A    between atoms: C_5  and  C_7
REMARK                            x       y       z     vdW  Elec       q    Type
REMARK                         _______ _______ _______ _____ _____    ______ ____
ROOT
ATOM      1  O   UNL     1       1.727   4.400  18.927  0.00  0.00    +0.000 OA
ATOM      2  C   UNL     1       2.531   5.247  19.324  0.00  0.00    +0.000 C 
ENDROOT
BRANCH   2   3
ATOM      3  C   UNL     1       2.130   6.685  19.344  0.00  0.00    +0.000 A 
ATOM      4  C   UNL     1       2.255   7.506  18.215  0.00  0.00    +0.000 A 
ATOM      5  C   UNL     1       1.861   8.847  18.277  0.00  0.00    +0.000 A 
ATOM      6  C   UNL     1       1.354   9.373  19.463  0.00  0.00    +0.000 A 
ATOM      7  C   UNL     1       1.206   8.555  20.585  0.00  0.00    +0.000 A 
ATOM      8  C   UNL     1       1.598   7.217  20.528  0.00  0.00    +0.000 A 
ATOM      9  O   UNL     1       0.690   9.000  21.775  0.00  0.00    +0.000 OA
ATOM     10  C   UNL     1       0.022  10.258  21.628  0.00  0.00    +0.000 C 
ATOM     11  C   UNL     1       0.836  11.214  20.772  0.00  0.00    +0.000 C 
ATOM     12  O   UNL     1       1.004  10.698  19.447  0.00  0.00    +0.000 OA
ENDBRANCH   2   3
BRANCH   2  13
ATOM     13  C   UNL     1       3.932   4.876  19.801  0.00  0.00    +0.000 C 
BRANCH  13  14
ATOM     14  O   UNL     1       4.927   5.807  19.368  0.00  0.00    +0.000 OA
BRANCH  14  15
ATOM     15  C   UNL     1       6.107   5.227  19.034  0.00  0.00    +0.000 C 
ATOM     16  O   UNL     1       7.040   5.014  19.800  0.00  0.00    +0.000 OA
BRANCH  15  17
ATOM     17  C   UNL     1       6.170   4.928  17.591  0.00  0.00    +0.000 A 
ATOM     18  C   UNL     1       5.042   4.750  16.787  0.00  0.00    +0.000 A 
ATOM     19  C   UNL     1       5.207   4.490  15.425  0.00  0.00    +0.000 A 
ATOM     20  C   UNL     1       6.497   4.413  14.925  0.00  0.00    +0.000 A 
ATOM     21 CL   UNL     1       6.783   4.099  13.265  0.00  0.00    +0.000 Cl
ATOM     22  N   UNL     1       7.610   4.583  15.668  0.00  0.00    +0.000 NA
ATOM     23  C   UNL     1       7.420   4.837  16.986  0.00  0.00    +0.000 A 
ENDBRANCH  15  17
ENDBRANCH  14  15
ENDBRANCH  13  14
ENDBRANCH   2  13
TORSDOF 5
ENDMDL
MODEL 8
REMARK VINA RESULT:      -7.3      1.261      1.506
REMARK  Name = 
REMARK  5 active torsions:
REMARK  status: ('A' for Active; 'I' for Inactive)
REMARK    1  A    between atoms: C_2  and  C_3
REMARK    2  A    between atoms: C_2  and  C_14
REMARK    3  A    between atoms: C_3  and  O_4
REMARK    4  A    between atoms: O_4  and  C_5
REMARK    5  A    between atoms: C_5  and  C_7
REMARK                            x       y       z     vdW  Elec       q    Type
REMARK                         _______ _______ _______ _____ _____    ______ ____
ROOT
ATOM      1  O   UNL     1       2.436   5.372  17.758  0.00  0.00    +0.000 OA
ATOM      2  C   UNL     1       2.772   6.032  18.745  0.00  0.00    +0.000 C 
ENDROOT
BRANCH   2   3
ATOM      3  C   UNL     1       2.181   7.387  18.956  0.00  0.00    +0.000 A 
ATOM      4  C   UNL     1       2.051   8.311  17.911  0.00  0.00    +0.000 A 
ATOM      5  C   UNL     1       1.486   9.567  18.154  0.00  0.00    +0.000 A 
ATOM      6  C   UNL     1       1.060   9.907  19.436  0.00  0.00    +0.000 A 
ATOM      7  C   UNL     1       1.166   8.982  20.477  0.00  0.00    +0.000 A 
ATOM      8  C   UNL     1       1.730   7.729  20.240  0.00  0.00    +0.000 A 
ATOM      9  O   UNL     1       0.743   9.241  21.755  0.00  0.00    +0.000 OA
ATOM     10  C   UNL     1      -0.106  10.393  21.813  0.00  0.00    +0.000 C 
ATOM     11  C   UNL     1       0.456  11.530  20.977  0.00  0.00    +0.000 C 
ATOM     12  O   UNL     1       0.531  11.162  19.595  0.00  0.00    +0.000 OA
ENDBRANCH   2   3
BRANCH   2  13
ATOM     13  C   UNL     1       3.779   5.510  19.766  0.00  0.00    +0.000 C 
BRANCH  13  14
ATOM     14  O   UNL     1       4.563   4.425  19.264  0.00  0.00    +0.000 OA
BRANCH  14  15
ATOM     15  C   UNL     1       5.827   4.778  18.923  0.00  0.00    +0.000 C 
ATOM     16  O   UNL     1       6.676   5.221  19.688  0.00  0.00    +0.000 OA
BRANCH  15  17
ATOM     17  C   UNL     1       6.058   4.622  17.474  0.00  0.00    +0.000 A 
ATOM     18  C   UNL     1       7.120   5.219  16.790  0.00  0.00    +0.000 A 
ATOM     19  C   UNL     1       7.264   4.992  15.420  0.00  0.00    +0.000 A 
ATOM     20  C   UNL     1       6.334   4.181  14.789  0.00  0.00    +0.000 A 
ATOM     21 CL   UNL     1       6.443   3.855  13.111  0.00  0.00    +0.000 Cl
ATOM     22  N   UNL     1       5.299   3.585  15.415  0.00  0.00    +0.000 NA
ATOM     23  C   UNL     1       5.185   3.819  16.746  0.00  0.00    +0.000 A 
ENDBRANCH  15  17
ENDBRANCH  14  15
ENDBRANCH  13  14
ENDBRANCH   2  13
TORSDOF 5
ENDMDL
MODEL 9
REMARK VINA RESULT:      -7.3      2.420      3.823
REMARK  Name = 
REMARK  5 active torsions:
REMARK  status: ('A' for Active; 'I' for Inactive)
REMARK    1  A    between atoms: C_2  and  C_3
REMARK    2  A    between atoms: C_2  and  C_14
REMARK    3  A    between atoms: C_3  and  O_4
REMARK    4  A    between atoms: O_4  and  C_5
REMARK    5  A    between atoms: C_5  and  C_7
REMARK                            x       y       z     vdW  Elec       q    Type
REMARK                         _______ _______ _______ _____ _____    ______ ____
ROOT
ATOM      1  O   UNL     1       1.596   2.311  18.100  0.00  0.00    +0.000 OA
ATOM      2  C   UNL     1       2.463   3.183  17.987  0.00  0.00    +0.000 C 
ENDROOT
BRANCH   2   3
ATOM      3  C   UNL     1       2.258   4.509  18.642  0.00  0.00    +0.000 A 
ATOM      4  C   UNL     1       2.088   4.633  20.028  0.00  0.00    +0.000 A 
ATOM      5  C   UNL     1       1.905   5.896  20.600  0.00  0.00    +0.000 A 
ATOM      6  C   UNL     1       1.881   7.033  19.795  0.00  0.00    +0.000 A 
ATOM      7  C   UNL     1       2.073   6.918  18.416  0.00  0.00    +0.000 A 
ATOM      8  C   UNL     1       2.254   5.660  17.841  0.00  0.00    +0.000 A 
ATOM      9  O   UNL     1       2.087   7.995  17.569  0.00  0.00    +0.000 OA
ATOM     10  C   UNL     1       2.229   9.230  18.280  0.00  0.00    +0.000 C 
ATOM     11  C   UNL     1       1.328   9.265  19.503  0.00  0.00    +0.000 C 
ATOM     12  O   UNL     1       1.682   8.231  20.429  0.00  0.00    +0.000 OA
ENDBRANCH   2   3
BRANCH   2  13
ATOM     13  C   UNL     1       3.746   2.953  17.194  0.00  0.00    +0.000 C 
BRANCH  13  14
ATOM     14  O   UNL     1       4.867   3.649  17.745  0.00  0.00    +0.000 OA
BRANCH  14  15
ATOM     15  C   UNL     1       5.748   4.087  16.812  0.00  0.00    +0.000 C 
ATOM     16  O   UNL     1       5.979   3.545  15.737  0.00  0.00    +0.000 OA
BRANCH  15  17
ATOM     17  C   UNL     1       6.466   5.290  17.273  0.00  0.00    +0.000 A 
ATOM     18  C   UNL     1       7.315   5.309  18.383  0.00  0.00    +0.000 A 
ATOM     19  C   UNL     1       7.967   6.495  18.725  0.00  0.00    +0.000 A 
ATOM     20  C   UNL     1       7.736   7.617  17.946  0.00  0.00    +0.000 A 
ATOM     21 CL   UNL     1       8.499   9.109  18.302  0.00  0.00    +0.000 Cl
ATOM     22  N   UNL     1       6.929   7.639  16.867  0.00  0.00    +0.000 NA
ATOM     23  C   UNL     1       6.312   6.471  16.554  0.00  0.00    +0.000 A 
ENDBRANCH  15  17
ENDBRANCH  14  15
ENDBRANCH  13  14
ENDBRANCH   2  13
TORSDOF 5
ENDMDL
