MODEL 1
REMARK VINA RESULT:      -8.5      0.000      0.000
REMARK  Name = 
REMARK  5 active torsions:
REMARK  status: ('A' for Active; 'I' for Inactive)
REMARK    1  A    between atoms: C_1  and  N_2
REMARK    2  A    between atoms: C_7  and  C_8
REMARK    3  A    between atoms: C_11  and  C_12
REMARK    4  A    between atoms: N_14  and  C_15
REMARK    5  A    between atoms: C_20  and  C_21
REMARK                            x       y       z     vdW  Elec       q    Type
REMARK                         _______ _______ _______ _____ _____    ______ ____
ROOT
ATOM      1  C   UNL     1       8.082   7.841  18.157  0.00  0.00    +0.000 C 
ATOM      2  O   UNL     1       8.487   7.045  19.000  0.00  0.00    +0.000 OA
ATOM      3  N   UNL     1       7.207   7.443  17.159  0.00  0.00    +0.000 N 
ATOM      4  H   UNL     1       6.828   8.176  16.577  0.00  0.00    +0.000 HD
ENDROOT
BRANCH   3   5
ATOM      5  C   UNL     1       6.520   6.121  17.177  0.00  0.00    +0.000 C 
ATOM      6  C   UNL     1       7.402   5.033  16.494  0.00  0.00    +0.000 C 
ATOM      7  N   UNL     1       6.705   3.812  16.095  0.00  0.00    +0.000 NA
ATOM      8  C   UNL     1       5.635   4.160  15.165  0.00  0.00    +0.000 C 
ATOM      9  C   UNL     1       4.546   4.905  15.912  0.00  0.00    +0.000 C 
ATOM     10  C   UNL     1       5.046   6.174  16.644  0.00  0.00    +0.000 C 
ATOM     11  H   UNL     1       6.316   3.337  16.910  0.00  0.00    +0.000 HD
BRANCH  10  12
ATOM     12  C   UNL     1       4.050   6.499  17.765  0.00  0.00    +0.000 A 
ATOM     13  C   UNL     1       3.272   7.666  17.708  0.00  0.00    +0.000 A 
ATOM     14  C   UNL     1       2.328   7.943  18.703  0.00  0.00    +0.000 A 
ATOM     15  C   UNL     1       2.152   7.057  19.756  0.00  0.00    +0.000 A 
ATOM     16  F   UNL     1       1.243   7.325  20.704  0.00  0.00    +0.000 F 
ATOM     17  C   UNL     1       2.908   5.894  19.827  0.00  0.00    +0.000 A 
ATOM     18  F   UNL     1       2.730   5.026  20.832  0.00  0.00    +0.000 F 
ATOM     19  C   UNL     1       3.854   5.614  18.844  0.00  0.00    +0.000 A 
ENDBRANCH  10  12
ENDBRANCH   3   5
BRANCH   1  23
ATOM     20  C   UNL     1       9.159  11.294  18.885  0.00  0.00    +0.000 A 
ATOM     21  C   UNL     1       8.328  11.419  17.791  0.00  0.00    +0.000 A 
ATOM     22  O   UNL     1       7.843  10.194  17.401  0.00  0.00    +0.000 OA
ATOM     23  C   UNL     1       8.429   9.256  18.210  0.00  0.00    +0.000 A 
ATOM     24  C   UNL     1       9.315   9.894  19.061  0.00  0.00    +0.000 A 
BRANCH  20  31
ATOM     25  C   UNL     1      11.254  13.698  18.198  0.00  0.00    +0.000 C 
ATOM     26  N   UNL     1      10.560  13.430  19.435  0.00  0.00    +0.000 N 
ATOM     27  N   UNL     1      10.765  14.302  20.448  0.00  0.00    +0.000 NA
ATOM     28  C   UNL     1      10.056  13.793  21.453  0.00  0.00    +0.000 A 
ATOM     29  C   UNL     1       9.406  12.599  21.098  0.00  0.00    +0.000 A 
ATOM     30 CL   UNL     1       8.388  11.764  22.170  0.00  0.00    +0.000 Cl
ATOM     31  C   UNL     1       9.718  12.384  19.761  0.00  0.00    +0.000 A 
ENDBRANCH  20  31
ENDBRANCH   1  23
TORSDOF 4
ENDMDL
MODEL 2
REMARK VINA RESULT:      -8.4      1.218      1.541
REMARK  Name = 
REMARK  5 active torsions:
REMARK  status: ('A' for Active; 'I' for Inactive)
REMARK    1  A    between atoms: C_1  and  N_2
REMARK    2  A    between atoms: C_7  and  C_8
REMARK    3  A    between atoms: C_11  and  C_12
REMARK    4  A    between atoms: N_14  and  C_15
REMARK    5  A    between atoms: C_20  and  C_21
REMARK                            x       y       z     vdW  Elec       q    Type
REMARK                         _______ _______ _______ _____ _____    ______ ____
ROOT
ATOM      1  C   UNL     1       8.083   7.874  18.148  0.00  0.00    +0.000 C 
ATOM      2  O   UNL     1       8.496   7.094  19.001  0.00  0.00    +0.000 OA
ATOM      3  N   UNL     1       7.213   7.454  17.154  0.00  0.00    +0.000 N 
ATOM      4  H   UNL     1       6.827   8.175  16.562  0.00  0.00    +0.000 HD
ENDROOT
BRANCH   3   5
ATOM      5  C   UNL     1       6.540   6.125  17.189  0.00  0.00    +0.000 C 
ATOM      6  C   UNL     1       7.434   5.038  16.521  0.00  0.00    +0.000 C 
ATOM      7  N   UNL     1       6.750   3.804  16.138  0.00  0.00    +0.000 NA
ATOM      8  C   UNL     1       5.677   4.128  15.203  0.00  0.00    +0.000 C 
ATOM      9  C   UNL     1       4.580   4.872  15.939  0.00  0.00    +0.000 C 
ATOM     10  C   UNL     1       5.065   6.156  16.655  0.00  0.00    +0.000 C 
ATOM     11  H   UNL     1       6.366   3.336  16.958  0.00  0.00    +0.000 HD
BRANCH  10  12
ATOM     12  C   UNL     1       4.066   6.485  17.771  0.00  0.00    +0.000 A 
ATOM     13  C   UNL     1       3.275   7.642  17.698  0.00  0.00    +0.000 A 
ATOM     14  C   UNL     1       2.327   7.922  18.690  0.00  0.00    +0.000 A 
ATOM     15  C   UNL     1       2.161   7.048  19.755  0.00  0.00    +0.000 A 
ATOM     16  F   UNL     1       1.249   7.319  20.699  0.00  0.00    +0.000 F 
ATOM     17  C   UNL     1       2.931   5.895  19.842  0.00  0.00    +0.000 A 
ATOM     18  F   UNL     1       2.763   5.039  20.859  0.00  0.00    +0.000 F 
ATOM     19  C   UNL     1       3.880   5.612  18.863  0.00  0.00    +0.000 A 
ENDBRANCH  10  12
ENDBRANCH   3   5
BRANCH   1  23
ATOM     20  C   UNL     1       9.103  11.353  18.837  0.00  0.00    +0.000 A 
ATOM     21  C   UNL     1       8.307  11.446  17.715  0.00  0.00    +0.000 A 
ATOM     22  O   UNL     1       7.847  10.209  17.335  0.00  0.00    +0.000 OA
ATOM     23  C   UNL     1       8.415   9.294  18.182  0.00  0.00    +0.000 A 
ATOM     24  C   UNL     1       9.267   9.958  19.048  0.00  0.00    +0.000 A 
BRANCH  20  31
ATOM     25  C   UNL     1       8.586  11.990  21.994  0.00  0.00    +0.000 C 
ATOM     26  N   UNL     1       9.440  12.684  21.060  0.00  0.00    +0.000 N 
ATOM     27  N   UNL     1      10.158  13.720  21.548  0.00  0.00    +0.000 NA
ATOM     28  C   UNL     1      10.801  14.191  20.482  0.00  0.00    +0.000 A 
ATOM     29  C   UNL     1      10.495  13.473  19.314  0.00  0.00    +0.000 A 
ATOM     30 CL   UNL     1      11.217  13.822  17.817  0.00  0.00    +0.000 Cl
ATOM     31  C   UNL     1       9.623  12.465  19.708  0.00  0.00    +0.000 A 
ENDBRANCH  20  31
ENDBRANCH   1  23
TORSDOF 4
ENDMDL
MODEL 3
REMARK VINA RESULT:      -8.4      0.548      1.280
REMARK  Name = 
REMARK  5 active torsions:
REMARK  status: ('A' for Active; 'I' for Inactive)
REMARK    1  A    between atoms: C_1  and  N_2
REMARK    2  A    between atoms: C_7  and  C_8
REMARK    3  A    between atoms: C_11  and  C_12
REMARK    4  A    between atoms: N_14  and  C_15
REMARK    5  A    between atoms: C_20  and  C_21
REMARK                            x       y       z     vdW  Elec       q    Type
REMARK                         _______ _______ _______ _____ _____    ______ ____
ROOT
ATOM      1  C   UNL     1       8.073   7.867  18.170  0.00  0.00    +0.000 C 
ATOM      2  O   UNL     1       8.499   7.063  18.994  0.00  0.00    +0.000 OA
ATOM      3  N   UNL     1       7.174   7.480  17.190  0.00  0.00    +0.000 N 
ATOM      4  H   UNL     1       6.780   8.219  16.624  0.00  0.00    +0.000 HD
ENDROOT
BRANCH   3   5
ATOM      5  C   UNL     1       6.487   6.157  17.211  0.00  0.00    +0.000 C 
ATOM      6  C   UNL     1       7.396   5.055  16.592  0.00  0.00    +0.000 C 
ATOM      7  N   UNL     1       6.716   3.823  16.193  0.00  0.00    +0.000 NA
ATOM      8  C   UNL     1       5.684   4.147  15.213  0.00  0.00    +0.000 C 
ATOM      9  C   UNL     1       4.566   4.909  15.897  0.00  0.00    +0.000 C 
ATOM     10  C   UNL     1       5.035   6.196  16.618  0.00  0.00    +0.000 C 
ATOM     11  H   UNL     1       6.295   3.368  17.003  0.00  0.00    +0.000 HD
BRANCH  10  12
ATOM     12  C   UNL     1       3.995   6.547  17.689  0.00  0.00    +0.000 A 
ATOM     13  C   UNL     1       3.815   5.713  18.804  0.00  0.00    +0.000 A 
ATOM     14  C   UNL     1       2.902   6.053  19.809  0.00  0.00    +0.000 A 
ATOM     15  C   UNL     1       2.167   7.227  19.708  0.00  0.00    +0.000 A 
ATOM     16  F   UNL     1       1.297   7.549  20.676  0.00  0.00    +0.000 F 
ATOM     17  C   UNL     1       2.334   8.066  18.616  0.00  0.00    +0.000 A 
ATOM     18  F   UNL     1       1.641   9.209  18.522  0.00  0.00    +0.000 F 
ATOM     19  C   UNL     1       3.237   7.733  17.609  0.00  0.00    +0.000 A 
ENDBRANCH  10  12
ENDBRANCH   3   5
BRANCH   1  23
ATOM     20  C   UNL     1       9.149  11.318  18.912  0.00  0.00    +0.000 A 
ATOM     21  C   UNL     1       8.327  11.446  17.813  0.00  0.00    +0.000 A 
ATOM     22  O   UNL     1       7.843  10.223  17.417  0.00  0.00    +0.000 OA
ATOM     23  C   UNL     1       8.422   9.282  18.228  0.00  0.00    +0.000 A 
ATOM     24  C   UNL     1       9.302   9.917  19.087  0.00  0.00    +0.000 A 
BRANCH  20  31
ATOM     25  C   UNL     1      11.245  13.726  18.244  0.00  0.00    +0.000 C 
ATOM     26  N   UNL     1      10.545  13.453  19.477  0.00  0.00    +0.000 N 
ATOM     27  N   UNL     1      10.745  14.321  20.494  0.00  0.00    +0.000 NA
ATOM     28  C   UNL     1      10.032  13.808  21.494  0.00  0.00    +0.000 A 
ATOM     29  C   UNL     1       9.386  12.614  21.131  0.00  0.00    +0.000 A 
ATOM     30 CL   UNL     1       8.364  11.775  22.196  0.00  0.00    +0.000 Cl
ATOM     31  C   UNL     1       9.703  12.404  19.795  0.00  0.00    +0.000 A 
ENDBRANCH  20  31
ENDBRANCH   1  23
TORSDOF 4
ENDMDL
MODEL 4
REMARK VINA RESULT:      -8.3      6.233      7.784
REMARK  Name = 
REMARK  5 active torsions:
REMARK  status: ('A' for Active; 'I' for Inactive)
REMARK    1  A    between atoms: C_1  and  N_2
REMARK    2  A    between atoms: C_7  and  C_8
REMARK    3  A    between atoms: C_11  and  C_12
REMARK    4  A    between atoms: N_14  and  C_15
REMARK    5  A    between atoms: C_20  and  C_21
REMARK                            x       y       z     vdW  Elec       q    Type
REMARK                         _______ _______ _______ _____ _____    ______ ____
ROOT
ATOM      1  C   UNL     1       2.216   6.674  19.446  0.00  0.00    +0.000 C 
ATOM      2  O   UNL     1       2.378   5.891  20.378  0.00  0.00    +0.000 OA
ATOM      3  N   UNL     1       2.425   6.278  18.135  0.00  0.00    +0.000 N 
ATOM      4  H   UNL     1       2.159   6.939  17.419  0.00  0.00    +0.000 HD
ENDROOT
BRANCH   3   5
ATOM      5  C   UNL     1       2.618   4.851  17.750  0.00  0.00    +0.000 C 
ATOM      6  C   UNL     1       1.443   3.976  18.277  0.00  0.00    +0.000 C 
ATOM      7  N   UNL     1       1.693   2.536  18.318  0.00  0.00    +0.000 NA
ATOM      8  C   UNL     1       2.851   2.281  19.171  0.00  0.00    +0.000 C 
ATOM      9  C   UNL     1       4.101   2.792  18.483  0.00  0.00    +0.000 C 
ATOM     10  C   UNL     1       4.040   4.293  18.108  0.00  0.00    +0.000 C 
ATOM     11  H   UNL     1       1.868   2.175  17.380  0.00  0.00    +0.000 HD
BRANCH  10  12
ATOM     12  C   UNL     1       5.046   4.541  16.977  0.00  0.00    +0.000 A 
ATOM     13  C   UNL     1       6.297   5.115  17.252  0.00  0.00    +0.000 A 
ATOM     14  C   UNL     1       7.238   5.299  16.232  0.00  0.00    +0.000 A 
ATOM     15  C   UNL     1       6.937   4.909  14.935  0.00  0.00    +0.000 A 
ATOM     16  F   UNL     1       7.843   5.084  13.963  0.00  0.00    +0.000 F 
ATOM     17  C   UNL     1       5.707   4.334  14.643  0.00  0.00    +0.000 A 
ATOM     18  F   UNL     1       5.418   3.939  13.396  0.00  0.00    +0.000 F 
ATOM     19  C   UNL     1       4.763   4.153  15.652  0.00  0.00    +0.000 A 
ENDBRANCH  10  12
ENDBRANCH   3   5
BRANCH   1  23
ATOM     20  C   UNL     1       0.610   9.838  20.458  0.00  0.00    +0.000 A 
ATOM     21  C   UNL     1       1.093  10.090  19.191  0.00  0.00    +0.000 A 
ATOM     22  O   UNL     1       1.726   8.984  18.678  0.00  0.00    +0.000 OA
ATOM     23  C   UNL     1       1.716   8.027  19.659  0.00  0.00    +0.000 A 
ATOM     24  C   UNL     1       1.127   8.559  20.793  0.00  0.00    +0.000 A 
BRANCH  20  31
ATOM     25  C   UNL     1      -1.344  12.303  19.594  0.00  0.00    +0.000 C 
ATOM     26  N   UNL     1      -1.191  11.681  20.887  0.00  0.00    +0.000 N 
ATOM     27  N   UNL     1      -1.982  12.146  21.881  0.00  0.00    +0.000 NA
ATOM     28  C   UNL     1      -1.601  11.441  22.945  0.00  0.00    +0.000 A 
ATOM     29  C   UNL     1      -0.569  10.537  22.644  0.00  0.00    +0.000 A 
ATOM     30 CL   UNL     1       0.071   9.471  23.802  0.00  0.00    +0.000 Cl
ATOM     31  C   UNL     1      -0.326  10.679  21.284  0.00  0.00    +0.000 A 
ENDBRANCH  20  31
ENDBRANCH   1  23
TORSDOF 4
ENDMDL
MODEL 5
REMARK VINA RESULT:      -8.3      1.328      1.993
REMARK  Name = 
REMARK  5 active torsions:
REMARK  status: ('A' for Active; 'I' for Inactive)
REMARK    1  A    between atoms: C_1  and  N_2
REMARK    2  A    between atoms: C_7  and  C_8
REMARK    3  A    between atoms: C_11  and  C_12
REMARK    4  A    between atoms: N_14  and  C_15
REMARK    5  A    between atoms: C_20  and  C_21
REMARK                            x       y       z     vdW  Elec       q    Type
REMARK                         _______ _______ _______ _____ _____    ______ ____
ROOT
ATOM      1  C   UNL     1       8.100   7.854  18.143  0.00  0.00    +0.000 C 
ATOM      2  O   UNL     1       8.547   7.068  18.972  0.00  0.00    +0.000 OA
ATOM      3  N   UNL     1       7.205   7.438  17.171  0.00  0.00    +0.000 N 
ATOM      4  H   UNL     1       6.792   8.163  16.600  0.00  0.00    +0.000 HD
ENDROOT
BRANCH   3   5
ATOM      5  C   UNL     1       6.548   6.101  17.208  0.00  0.00    +0.000 C 
ATOM      6  C   UNL     1       7.481   5.012  16.599  0.00  0.00    +0.000 C 
ATOM      7  N   UNL     1       6.828   3.761  16.216  0.00  0.00    +0.000 NA
ATOM      8  C   UNL     1       5.788   4.052  15.233  0.00  0.00    +0.000 C 
ATOM      9  C   UNL     1       4.654   4.795  15.910  0.00  0.00    +0.000 C 
ATOM     10  C   UNL     1       5.095   6.101  16.616  0.00  0.00    +0.000 C 
ATOM     11  H   UNL     1       6.418   3.305  17.031  0.00  0.00    +0.000 HD
BRANCH  10  12
ATOM     12  C   UNL     1       4.048   6.440  17.685  0.00  0.00    +0.000 A 
ATOM     13  C   UNL     1       3.865   5.597  18.792  0.00  0.00    +0.000 A 
ATOM     14  C   UNL     1       2.945   5.926  19.795  0.00  0.00    +0.000 A 
ATOM     15  C   UNL     1       2.208   7.099  19.700  0.00  0.00    +0.000 A 
ATOM     16  F   UNL     1       1.333   7.410  20.666  0.00  0.00    +0.000 F 
ATOM     17  C   UNL     1       2.380   7.948  18.615  0.00  0.00    +0.000 A 
ATOM     18  F   UNL     1       1.684   9.090  18.527  0.00  0.00    +0.000 F 
ATOM     19  C   UNL     1       3.288   7.625  17.610  0.00  0.00    +0.000 A 
ENDBRANCH  10  12
ENDBRANCH   3   5
BRANCH   1  23
ATOM     20  C   UNL     1       9.088  11.338  18.854  0.00  0.00    +0.000 A 
ATOM     21  C   UNL     1       8.285  11.432  17.737  0.00  0.00    +0.000 A 
ATOM     22  O   UNL     1       7.835  10.193  17.350  0.00  0.00    +0.000 OA
ATOM     23  C   UNL     1       8.418   9.277  18.187  0.00  0.00    +0.000 A 
ATOM     24  C   UNL     1       9.267   9.944  19.053  0.00  0.00    +0.000 A 
BRANCH  20  31
ATOM     25  C   UNL     1       8.584  11.944  22.019  0.00  0.00    +0.000 C 
ATOM     26  N   UNL     1       9.424  12.655  21.085  0.00  0.00    +0.000 N 
ATOM     27  N   UNL     1      10.134  13.695  21.577  0.00  0.00    +0.000 NA
ATOM     28  C   UNL     1      10.765  14.182  20.510  0.00  0.00    +0.000 A 
ATOM     29  C   UNL     1      10.459  13.469  19.339  0.00  0.00    +0.000 A 
ATOM     30 CL   UNL     1      11.168  13.839  17.840  0.00  0.00    +0.000 Cl
ATOM     31  C   UNL     1       9.601  12.450  19.730  0.00  0.00    +0.000 A 
ENDBRANCH  20  31
ENDBRANCH   1  23
TORSDOF 4
ENDMDL
MODEL 6
REMARK VINA RESULT:      -8.3      6.375      7.828
REMARK  Name = 
REMARK  5 active torsions:
REMARK  status: ('A' for Active; 'I' for Inactive)
REMARK    1  A    between atoms: C_1  and  N_2
REMARK    2  A    between atoms: C_7  and  C_8
REMARK    3  A    between atoms: C_11  and  C_12
REMARK    4  A    between atoms: N_14  and  C_15
REMARK    5  A    between atoms: C_20  and  C_21
REMARK                            x       y       z     vdW  Elec       q    Type
REMARK                         _______ _______ _______ _____ _____    ______ ____
ROOT
ATOM      1  C   UNL     1       2.243   6.536  19.479  0.00  0.00    +0.000 C 
ATOM      2  O   UNL     1       2.433   5.765  20.415  0.00  0.00    +0.000 OA
ATOM      3  N   UNL     1       2.412   6.126  18.167  0.00  0.00    +0.000 N 
ATOM      4  H   UNL     1       2.124   6.779  17.451  0.00  0.00    +0.000 HD
ENDROOT
BRANCH   3   5
ATOM      5  C   UNL     1       2.592   4.694  17.793  0.00  0.00    +0.000 C 
ATOM      6  C   UNL     1       1.394   3.838  18.301  0.00  0.00    +0.000 C 
ATOM      7  N   UNL     1       1.624   2.395  18.354  0.00  0.00    +0.000 NA
ATOM      8  C   UNL     1       2.761   2.128  19.230  0.00  0.00    +0.000 C 
ATOM      9  C   UNL     1       4.032   2.619  18.564  0.00  0.00    +0.000 C 
ATOM     10  C   UNL     1       3.999   4.118  18.180  0.00  0.00    +0.000 C 
ATOM     11  H   UNL     1       1.812   2.027  17.421  0.00  0.00    +0.000 HD
BRANCH  10  12
ATOM     12  C   UNL     1       5.030   4.347  17.068  0.00  0.00    +0.000 A 
ATOM     13  C   UNL     1       6.341   4.737  17.384  0.00  0.00    +0.000 A 
ATOM     14  C   UNL     1       7.299   4.900  16.377  0.00  0.00    +0.000 A 
ATOM     15  C   UNL     1       6.956   4.671  15.052  0.00  0.00    +0.000 A 
ATOM     16  F   UNL     1       7.879   4.824  14.092  0.00  0.00    +0.000 F 
ATOM     17  C   UNL     1       5.666   4.279  14.720  0.00  0.00    +0.000 A 
ATOM     18  F   UNL     1       5.333   4.039  13.444  0.00  0.00    +0.000 F 
ATOM     19  C   UNL     1       4.705   4.120  15.716  0.00  0.00    +0.000 A 
ENDBRANCH  10  12
ENDBRANCH   3   5
BRANCH   1  23
ATOM     20  C   UNL     1       0.685   9.717  20.514  0.00  0.00    +0.000 A 
ATOM     21  C   UNL     1       1.091   9.943  19.216  0.00  0.00    +0.000 A 
ATOM     22  O   UNL     1       1.697   8.828  18.691  0.00  0.00    +0.000 OA
ATOM     23  C   UNL     1       1.750   7.893  19.692  0.00  0.00    +0.000 A 
ATOM     24  C   UNL     1       1.227   8.448  20.847  0.00  0.00    +0.000 A 
BRANCH  20  31
ATOM     25  C   UNL     1      -0.029   9.504  23.690  0.00  0.00    +0.000 C 
ATOM     26  N   UNL     1      -0.447  10.502  22.735  0.00  0.00    +0.000 N 
ATOM     27  N   UNL     1      -1.209  11.514  23.208  0.00  0.00    +0.000 NA
ATOM     28  C   UNL     1      -1.480  12.240  22.125  0.00  0.00    +0.000 A 
ATOM     29  C   UNL     1      -0.907  11.699  20.962  0.00  0.00    +0.000 A 
ATOM     30 CL   UNL     1      -1.045  12.451  19.446  0.00  0.00    +0.000 Cl
ATOM     31  C   UNL     1      -0.204  10.574  21.376  0.00  0.00    +0.000 A 
ENDBRANCH  20  31
ENDBRANCH   1  23
TORSDOF 4
ENDMDL
MODEL 7
REMARK VINA RESULT:      -8.2      5.362      7.031
REMARK  Name = 
REMARK  5 active torsions:
REMARK  status: ('A' for Active; 'I' for Inactive)
REMARK    1  A    between atoms: C_1  and  N_2
REMARK    2  A    between atoms: C_7  and  C_8
REMARK    3  A    between atoms: C_11  and  C_12
REMARK    4  A    between atoms: N_14  and  C_15
REMARK    5  A    between atoms: C_20  and  C_21
REMARK                            x       y       z     vdW  Elec       q    Type
REMARK                         _______ _______ _______ _____ _____    ______ ____
ROOT
ATOM      1  C   UNL     1       1.832   7.388  18.840  0.00  0.00    +0.000 C 
ATOM      2  O   UNL     1       2.118   7.782  17.713  0.00  0.00    +0.000 OA
ATOM      3  N   UNL     1       1.920   6.045  19.173  0.00  0.00    +0.000 N 
ATOM      4  H   UNL     1       1.782   5.814  20.146  0.00  0.00    +0.000 HD
ENDROOT
BRANCH   3   5
ATOM      5  C   UNL     1       2.582   5.043  18.290  0.00  0.00    +0.000 C 
ATOM      6  C   UNL     1       1.581   3.922  17.883  0.00  0.00    +0.000 C 
ATOM      7  N   UNL     1       2.182   2.696  17.360  0.00  0.00    +0.000 NA
ATOM      8  C   UNL     1       3.080   2.142  18.370  0.00  0.00    +0.000 C 
ATOM      9  C   UNL     1       4.291   3.042  18.511  0.00  0.00    +0.000 C 
ATOM     10  C   UNL     1       3.943   4.510  18.860  0.00  0.00    +0.000 C 
ATOM     11  H   UNL     1       2.700   2.886  16.503  0.00  0.00    +0.000 HD
BRANCH  10  12
ATOM     12  C   UNL     1       5.122   5.393  18.432  0.00  0.00    +0.000 A 
ATOM     13  C   UNL     1       4.976   6.312  17.382  0.00  0.00    +0.000 A 
ATOM     14  C   UNL     1       6.033   7.154  17.019  0.00  0.00    +0.000 A 
ATOM     15  C   UNL     1       7.239   7.086  17.704  0.00  0.00    +0.000 A 
ATOM     16  F   UNL     1       8.246   7.898  17.355  0.00  0.00    +0.000 F 
ATOM     17  C   UNL     1       7.400   6.187  18.749  0.00  0.00    +0.000 A 
ATOM     18  F   UNL     1       8.556   6.128  19.426  0.00  0.00    +0.000 F 
ATOM     19  C   UNL     1       6.355   5.341  19.113  0.00  0.00    +0.000 A 
ENDBRANCH  10  12
ENDBRANCH   3   5
BRANCH   1  23
ATOM     20  C   UNL     1       0.866  10.162  21.073  0.00  0.00    +0.000 A 
ATOM     21  C   UNL     1       1.407   9.216  21.918  0.00  0.00    +0.000 A 
ATOM     22  O   UNL     1       1.819   8.109  21.217  0.00  0.00    +0.000 OA
ATOM     23  C   UNL     1       1.469   8.313  19.907  0.00  0.00    +0.000 A 
ATOM     24  C   UNL     1       0.795   9.518  19.809  0.00  0.00    +0.000 A 
BRANCH  20  31
ATOM     25  C   UNL     1       2.104  12.956  19.932  0.00  0.00    +0.000 C 
ATOM     26  N   UNL     1       1.000  12.761  20.841  0.00  0.00    +0.000 N 
ATOM     27  N   UNL     1       0.355  13.873  21.261  0.00  0.00    +0.000 NA
ATOM     28  C   UNL     1      -0.563  13.408  22.105  0.00  0.00    +0.000 A 
ATOM     29  C   UNL     1      -0.507  12.010  22.238  0.00  0.00    +0.000 A 
ATOM     30 CL   UNL     1      -1.600  11.146  23.209  0.00  0.00    +0.000 Cl
ATOM     31  C   UNL     1       0.502  11.590  21.381  0.00  0.00    +0.000 A 
ENDBRANCH  20  31
ENDBRANCH   1  23
TORSDOF 4
ENDMDL
MODEL 8
REMARK VINA RESULT:      -8.1      6.135      7.832
REMARK  Name = 
REMARK  5 active torsions:
REMARK  status: ('A' for Active; 'I' for Inactive)
REMARK    1  A    between atoms: C_1  and  N_2
REMARK    2  A    between atoms: C_7  and  C_8
REMARK    3  A    between atoms: C_11  and  C_12
REMARK    4  A    between atoms: N_14  and  C_15
REMARK    5  A    between atoms: C_20  and  C_21
REMARK                            x       y       z     vdW  Elec       q    Type
REMARK                         _______ _______ _______ _____ _____    ______ ____
ROOT
ATOM      1  C   UNL     1       2.320   6.681  19.403  0.00  0.00    +0.000 C 
ATOM      2  O   UNL     1       2.720   5.988  20.334  0.00  0.00    +0.000 OA
ATOM      3  N   UNL     1       2.311   6.199  18.104  0.00  0.00    +0.000 N 
ATOM      4  H   UNL     1       1.861   6.780  17.412  0.00  0.00    +0.000 HD
ENDROOT
BRANCH   3   5
ATOM      5  C   UNL     1       2.547   4.762  17.782  0.00  0.00    +0.000 C 
ATOM      6  C   UNL     1       1.342   3.890  18.242  0.00  0.00    +0.000 C 
ATOM      7  N   UNL     1       1.603   2.455  18.349  0.00  0.00    +0.000 NA
ATOM      8  C   UNL     1       2.691   2.241  19.298  0.00  0.00    +0.000 C 
ATOM      9  C   UNL     1       3.987   2.746  18.695  0.00  0.00    +0.000 C 
ATOM     10  C   UNL     1       3.942   4.233  18.268  0.00  0.00    +0.000 C 
ATOM     11  H   UNL     1       1.854   2.067  17.440  0.00  0.00    +0.000 HD
BRANCH  10  12
ATOM     12  C   UNL     1       5.032   4.458  17.213  0.00  0.00    +0.000 A 
ATOM     13  C   UNL     1       5.058   3.685  16.042  0.00  0.00    +0.000 A 
ATOM     14  C   UNL     1       6.021   3.919  15.054  0.00  0.00    +0.000 A 
ATOM     15  C   UNL     1       6.960   4.926  15.228  0.00  0.00    +0.000 A 
ATOM     16  F   UNL     1       7.878   5.147  14.276  0.00  0.00    +0.000 F 
ATOM     17  C   UNL     1       6.948   5.705  16.377  0.00  0.00    +0.000 A 
ATOM     18  F   UNL     1       7.841   6.690  16.542  0.00  0.00    +0.000 F 
ATOM     19  C   UNL     1       5.996   5.475  17.368  0.00  0.00    +0.000 A 
ENDBRANCH  10  12
ENDBRANCH   3   5
BRANCH   1  23
ATOM     20  C   UNL     1       0.580   9.766  20.438  0.00  0.00    +0.000 A 
ATOM     21  C   UNL     1       1.019  10.035  19.159  0.00  0.00    +0.000 A 
ATOM     22  O   UNL     1       1.695   8.959  18.636  0.00  0.00    +0.000 OA
ATOM     23  C   UNL     1       1.757   8.009  19.622  0.00  0.00    +0.000 A 
ATOM     24  C   UNL     1       1.169   8.517  20.767  0.00  0.00    +0.000 A 
BRANCH  20  31
ATOM     25  C   UNL     1      -0.136   9.543  23.612  0.00  0.00    +0.000 C 
ATOM     26  N   UNL     1      -0.623  10.493  22.641  0.00  0.00    +0.000 N 
ATOM     27  N   UNL     1      -1.463  11.449  23.095  0.00  0.00    +0.000 NA
ATOM     28  C   UNL     1      -1.782  12.137  22.001  0.00  0.00    +0.000 A 
ATOM     29  C   UNL     1      -1.162  11.625  20.849  0.00  0.00    +0.000 A 
ATOM     30 CL   UNL     1      -1.348  12.344  19.321  0.00  0.00    +0.000 Cl
ATOM     31  C   UNL     1      -0.378  10.564  21.283  0.00  0.00    +0.000 A 
ENDBRANCH  20  31
ENDBRANCH   1  23
TORSDOF 4
ENDMDL
MODEL 9
REMARK VINA RESULT:      -8.1      5.401      7.159
REMARK  Name = 
REMARK  5 active torsions:
REMARK  status: ('A' for Active; 'I' for Inactive)
REMARK    1  A    between atoms: C_1  and  N_2
REMARK    2  A    between atoms: C_7  and  C_8
REMARK    3  A    between atoms: C_11  and  C_12
REMARK    4  A    between atoms: N_14  and  C_15
REMARK    5  A    between atoms: C_20  and  C_21
REMARK                            x       y       z     vdW  Elec       q    Type
REMARK                         _______ _______ _______ _____ _____    ______ ____
ROOT
ATOM      1  C   UNL     1       1.830   7.378  18.825  0.00  0.00    +0.000 C 
ATOM      2  O   UNL     1       2.110   7.763  17.694  0.00  0.00    +0.000 OA
ATOM      3  N   UNL     1       1.927   6.040  19.171  0.00  0.00    +0.000 N 
ATOM      4  H   UNL     1       1.795   5.818  20.147  0.00  0.00    +0.000 HD
ENDROOT
BRANCH   3   5
ATOM      5  C   UNL     1       2.593   5.033  18.295  0.00  0.00    +0.000 C 
ATOM      6  C   UNL     1       1.595   3.907  17.896  0.00  0.00    +0.000 C 
ATOM      7  N   UNL     1       2.199   2.678  17.383  0.00  0.00    +0.000 NA
ATOM      8  C   UNL     1       3.098   2.134  18.397  0.00  0.00    +0.000 C 
ATOM      9  C   UNL     1       4.307   3.038  18.531  0.00  0.00    +0.000 C 
ATOM     10  C   UNL     1       3.954   4.507  18.869  0.00  0.00    +0.000 C 
ATOM     11  H   UNL     1       2.716   2.863  16.524  0.00  0.00    +0.000 HD
BRANCH  10  12
ATOM     12  C   UNL     1       5.131   5.390  18.435  0.00  0.00    +0.000 A 
ATOM     13  C   UNL     1       4.984   6.298  17.375  0.00  0.00    +0.000 A 
ATOM     14  C   UNL     1       6.040   7.141  17.006  0.00  0.00    +0.000 A 
ATOM     15  C   UNL     1       7.244   7.084  17.695  0.00  0.00    +0.000 A 
ATOM     16  F   UNL     1       8.249   7.896  17.339  0.00  0.00    +0.000 F 
ATOM     17  C   UNL     1       7.406   6.196  18.749  0.00  0.00    +0.000 A 
ATOM     18  F   UNL     1       8.560   6.149  19.429  0.00  0.00    +0.000 F 
ATOM     19  C   UNL     1       6.363   5.351  19.119  0.00  0.00    +0.000 A 
ENDBRANCH  10  12
ENDBRANCH   3   5
BRANCH   1  23
ATOM     20  C   UNL     1       0.848  10.167  21.034  0.00  0.00    +0.000 A 
ATOM     21  C   UNL     1       1.415   9.241  21.885  0.00  0.00    +0.000 A 
ATOM     22  O   UNL     1       1.835   8.131  21.192  0.00  0.00    +0.000 OA
ATOM     23  C   UNL     1       1.466   8.312  19.885  0.00  0.00    +0.000 A 
ATOM     24  C   UNL     1       0.772   9.505  19.780  0.00  0.00    +0.000 A 
BRANCH  20  31
ATOM     25  C   UNL     1      -1.412  11.382  23.047  0.00  0.00    +0.000 C 
ATOM     26  N   UNL     1      -0.455  12.089  22.230  0.00  0.00    +0.000 N 
ATOM     27  N   UNL     1      -0.456  13.438  22.324  0.00  0.00    +0.000 NA
ATOM     28  C   UNL     1       0.471  13.818  21.447  0.00  0.00    +0.000 A 
ATOM     29  C   UNL     1       1.059  12.726  20.786  0.00  0.00    +0.000 A 
ATOM     30 CL   UNL     1       2.311  12.917  19.655  0.00  0.00    +0.000 Cl
ATOM     31  C   UNL     1       0.466  11.593  21.328  0.00  0.00    +0.000 A 
ENDBRANCH  20  31
ENDBRANCH   1  23
TORSDOF 4
ENDMDL
