MODEL 1
REMARK VINA RESULT:      -6.9      0.000      0.000
REMARK  Name = 
REMARK  9 active torsions:
REMARK  status: ('A' for Active; 'I' for Inactive)
REMARK    1  A    between atoms: C_1  and  C_2
REMARK    2  A    between atoms: C_2  and  C_3
REMARK    3  A    between atoms: C_2  and  C_4
REMARK    4  A    between atoms: C_2  and  C_5
REMARK    5  A    between atoms: C_5  and  S_6
REMARK    6  A    between atoms: S_6  and  C_7
REMARK    7  A    between atoms: C_11  and  O_12
REMARK    8  A    between atoms: O_12  and  S_13
REMARK    9  A    between atoms: S_13  and  C_14
REMARK                            x       y       z     vdW  Elec       q    Type
REMARK                         _______ _______ _______ _____ _____    ______ ____
ROOT
ATOM      1  C   UNL     1       5.010   4.187  18.189  0.00  0.00    +0.000 A 
ATOM      2  C   UNL     1       5.499   4.873  19.293  0.00  0.00    +0.000 A 
ATOM      3  C   UNL     1       6.751   5.475  19.200  0.00  0.00    +0.000 A 
ATOM      4  C   UNL     1       7.478   5.347  18.022  0.00  0.00    +0.000 A 
ATOM      5  C   UNL     1       6.910   4.640  16.975  0.00  0.00    +0.000 A 
ATOM      6  N   UNL     1       5.679   4.106  17.021  0.00  0.00    +0.000 NA
ENDROOT
BRANCH   1   7
ATOM      7  S   UNL     1       3.528   3.224  18.263  0.00  0.00    +0.000 S 
BRANCH   7   8
ATOM      8  C   UNL     1       3.312   3.018  20.066  0.00  0.00    +0.000 C 
BRANCH   8  10
ATOM      9  C   UNL     1       0.808   2.970  19.588  0.00  0.00    +0.000 C 
ATOM     10  C   UNL     1       1.905   3.458  20.555  0.00  0.00    +0.000 C 
ATOM     11  C   UNL     1       1.815   4.988  20.706  0.00  0.00    +0.000 C 
ATOM     12  C   UNL     1       1.641   2.819  21.933  0.00  0.00    +0.000 C 
ENDBRANCH   8  10
ENDBRANCH   7   8
ENDBRANCH   1   7
BRANCH   5  13
ATOM     13  O   UNL     1       7.634   4.531  15.812  0.00  0.00    +0.000 OA
BRANCH  13  14
ATOM     14  S   UNL     1       7.093   5.210  14.434  0.00  0.00    +0.000 S 
ATOM     15  C   UNL     1       6.345   3.777  13.677  0.00  0.00    +0.000 C 
ATOM     16  O   UNL     1       6.007   6.106  14.796  0.00  0.00    +0.000 OA
ATOM     17  O   UNL     1       8.182   5.698  13.611  0.00  0.00    +0.000 OA
ENDBRANCH  13  14
ENDBRANCH   5  13
TORSDOF 5
ENDMDL
MODEL 2
REMARK VINA RESULT:      -6.7      1.463      2.093
REMARK  Name = 
REMARK  9 active torsions:
REMARK  status: ('A' for Active; 'I' for Inactive)
REMARK    1  A    between atoms: C_1  and  C_2
REMARK    2  A    between atoms: C_2  and  C_3
REMARK    3  A    between atoms: C_2  and  C_4
REMARK    4  A    between atoms: C_2  and  C_5
REMARK    5  A    between atoms: C_5  and  S_6
REMARK    6  A    between atoms: S_6  and  C_7
REMARK    7  A    between atoms: C_11  and  O_12
REMARK    8  A    between atoms: O_12  and  S_13
REMARK    9  A    between atoms: S_13  and  C_14
REMARK                            x       y       z     vdW  Elec       q    Type
REMARK                         _______ _______ _______ _____ _____    ______ ____
ROOT
ATOM      1  C   UNL     1       3.877   4.607  17.552  0.00  0.00    +0.000 A 
ATOM      2  C   UNL     1       3.674   5.739  18.330  0.00  0.00    +0.000 A 
ATOM      3  C   UNL     1       4.197   6.951  17.888  0.00  0.00    +0.000 A 
ATOM      4  C   UNL     1       4.924   6.983  16.703  0.00  0.00    +0.000 A 
ATOM      5  C   UNL     1       5.079   5.800  15.997  0.00  0.00    +0.000 A 
ATOM      6  N   UNL     1       4.529   4.635  16.373  0.00  0.00    +0.000 NA
ENDROOT
BRANCH   1   7
ATOM      7  S   UNL     1       3.428   2.991  18.113  0.00  0.00    +0.000 S 
BRANCH   7   8
ATOM      8  C   UNL     1       3.211   3.271  19.907  0.00  0.00    +0.000 C 
BRANCH   8  10
ATOM      9  C   UNL     1       1.535   2.511  21.672  0.00  0.00    +0.000 C 
ATOM     10  C   UNL     1       1.719   3.262  20.338  0.00  0.00    +0.000 C 
ATOM     11  C   UNL     1       0.825   2.622  19.260  0.00  0.00    +0.000 C 
ATOM     12  C   UNL     1       1.258   4.719  20.547  0.00  0.00    +0.000 C 
ENDBRANCH   8  10
ENDBRANCH   7   8
ENDBRANCH   1   7
BRANCH   5  13
ATOM     13  O   UNL     1       5.790   5.848  14.822  0.00  0.00    +0.000 OA
BRANCH  13  14
ATOM     14  S   UNL     1       7.113   4.920  14.618  0.00  0.00    +0.000 S 
ATOM     15  C   UNL     1       6.408   3.627  13.608  0.00  0.00    +0.000 C 
ATOM     16  O   UNL     1       8.028   5.663  13.767  0.00  0.00    +0.000 OA
ATOM     17  O   UNL     1       7.584   4.371  15.873  0.00  0.00    +0.000 OA
ENDBRANCH  13  14
ENDBRANCH   5  13
TORSDOF 5
ENDMDL
MODEL 3
REMARK VINA RESULT:      -6.7      1.419      2.054
REMARK  Name = 
REMARK  9 active torsions:
REMARK  status: ('A' for Active; 'I' for Inactive)
REMARK    1  A    between atoms: C_1  and  C_2
REMARK    2  A    between atoms: C_2  and  C_3
REMARK    3  A    between atoms: C_2  and  C_4
REMARK    4  A    between atoms: C_2  and  C_5
REMARK    5  A    between atoms: C_5  and  S_6
REMARK    6  A    between atoms: S_6  and  C_7
REMARK    7  A    between atoms: C_11  and  O_12
REMARK    8  A    between atoms: O_12  and  S_13
REMARK    9  A    between atoms: S_13  and  C_14
REMARK                            x       y       z     vdW  Elec       q    Type
REMARK                         _______ _______ _______ _____ _____    ______ ____
ROOT
ATOM      1  C   UNL     1       3.939   4.547  17.659  0.00  0.00    +0.000 A 
ATOM      2  C   UNL     1       3.762   5.684  18.436  0.00  0.00    +0.000 A 
ATOM      3  C   UNL     1       4.256   6.896  17.962  0.00  0.00    +0.000 A 
ATOM      4  C   UNL     1       4.931   6.923  16.746  0.00  0.00    +0.000 A 
ATOM      5  C   UNL     1       5.063   5.736  16.044  0.00  0.00    +0.000 A 
ATOM      6  N   UNL     1       4.539   4.570  16.452  0.00  0.00    +0.000 NA
ENDROOT
BRANCH   1   7
ATOM      7  S   UNL     1       3.527   2.932  18.253  0.00  0.00    +0.000 S 
BRANCH   7   8
ATOM      8  C   UNL     1       3.253   3.252  20.031  0.00  0.00    +0.000 C 
BRANCH   8  10
ATOM      9  C   UNL     1       1.266   4.756  20.574  0.00  0.00    +0.000 C 
ATOM     10  C   UNL     1       1.745   3.300  20.406  0.00  0.00    +0.000 C 
ATOM     11  C   UNL     1       1.462   2.512  21.698  0.00  0.00    +0.000 C 
ATOM     12  C   UNL     1       0.933   2.662  19.262  0.00  0.00    +0.000 C 
ENDBRANCH   8  10
ENDBRANCH   7   8
ENDBRANCH   1   7
BRANCH   5  13
ATOM     13  O   UNL     1       5.722   5.778  14.839  0.00  0.00    +0.000 OA
BRANCH  13  14
ATOM     14  S   UNL     1       7.062   4.884  14.596  0.00  0.00    +0.000 S 
ATOM     15  C   UNL     1       6.366   3.588  13.583  0.00  0.00    +0.000 C 
ATOM     16  O   UNL     1       7.943   5.658  13.736  0.00  0.00    +0.000 OA
ATOM     17  O   UNL     1       7.571   4.330  15.834  0.00  0.00    +0.000 OA
ENDBRANCH  13  14
ENDBRANCH   5  13
TORSDOF 5
ENDMDL
MODEL 4
REMARK VINA RESULT:      -6.7      0.751      1.095
REMARK  Name = 
REMARK  9 active torsions:
REMARK  status: ('A' for Active; 'I' for Inactive)
REMARK    1  A    between atoms: C_1  and  C_2
REMARK    2  A    between atoms: C_2  and  C_3
REMARK    3  A    between atoms: C_2  and  C_4
REMARK    4  A    between atoms: C_2  and  C_5
REMARK    5  A    between atoms: C_5  and  S_6
REMARK    6  A    between atoms: S_6  and  C_7
REMARK    7  A    between atoms: C_11  and  O_12
REMARK    8  A    between atoms: O_12  and  S_13
REMARK    9  A    between atoms: S_13  and  C_14
REMARK                            x       y       z     vdW  Elec       q    Type
REMARK                         _______ _______ _______ _____ _____    ______ ____
ROOT
ATOM      1  C   UNL     1       5.315   4.063  18.411  0.00  0.00    +0.000 A 
ATOM      2  C   UNL     1       5.786   4.940  19.379  0.00  0.00    +0.000 A 
ATOM      3  C   UNL     1       6.921   5.693  19.096  0.00  0.00    +0.000 A 
ATOM      4  C   UNL     1       7.559   5.524  17.871  0.00  0.00    +0.000 A 
ATOM      5  C   UNL     1       7.017   4.621  16.970  0.00  0.00    +0.000 A 
ATOM      6  N   UNL     1       5.888   3.932  17.198  0.00  0.00    +0.000 NA
ENDROOT
BRANCH   1   7
ATOM      7  S   UNL     1       4.004   2.921  18.739  0.00  0.00    +0.000 S 
BRANCH   7   8
ATOM      8  C   UNL     1       3.177   3.708  20.166  0.00  0.00    +0.000 C 
BRANCH   8  10
ATOM      9  C   UNL     1       0.635   3.518  20.218  0.00  0.00    +0.000 C 
ATOM     10  C   UNL     1       1.832   4.385  19.781  0.00  0.00    +0.000 C 
ATOM     11  C   UNL     1       1.750   4.651  18.266  0.00  0.00    +0.000 C 
ATOM     12  C   UNL     1       1.733   5.736  20.516  0.00  0.00    +0.000 C 
ENDBRANCH   8  10
ENDBRANCH   7   8
ENDBRANCH   1   7
BRANCH   5  13
ATOM     13  O   UNL     1       7.650   4.472  15.760  0.00  0.00    +0.000 OA
BRANCH  13  14
ATOM     14  S   UNL     1       7.054   5.184  14.421  0.00  0.00    +0.000 S 
ATOM     15  C   UNL     1       6.290   3.766  13.652  0.00  0.00    +0.000 C 
ATOM     16  O   UNL     1       5.975   6.060  14.847  0.00  0.00    +0.000 OA
ATOM     17  O   UNL     1       8.109   5.704  13.574  0.00  0.00    +0.000 OA
ENDBRANCH  13  14
ENDBRANCH   5  13
TORSDOF 5
ENDMDL
MODEL 5
REMARK VINA RESULT:      -6.7      0.932      1.406
REMARK  Name = 
REMARK  9 active torsions:
REMARK  status: ('A' for Active; 'I' for Inactive)
REMARK    1  A    between atoms: C_1  and  C_2
REMARK    2  A    between atoms: C_2  and  C_3
REMARK    3  A    between atoms: C_2  and  C_4
REMARK    4  A    between atoms: C_2  and  C_5
REMARK    5  A    between atoms: C_5  and  S_6
REMARK    6  A    between atoms: S_6  and  C_7
REMARK    7  A    between atoms: C_11  and  O_12
REMARK    8  A    between atoms: O_12  and  S_13
REMARK    9  A    between atoms: S_13  and  C_14
REMARK                            x       y       z     vdW  Elec       q    Type
REMARK                         _______ _______ _______ _____ _____    ______ ____
ROOT
ATOM      1  C   UNL     1       5.267   5.220  18.754  0.00  0.00    +0.000 A 
ATOM      2  C   UNL     1       6.425   5.501  19.466  0.00  0.00    +0.000 A 
ATOM      3  C   UNL     1       7.654   5.241  18.864  0.00  0.00    +0.000 A 
ATOM      4  C   UNL     1       7.679   4.686  17.589  0.00  0.00    +0.000 A 
ATOM      5  C   UNL     1       6.471   4.436  16.959  0.00  0.00    +0.000 A 
ATOM      6  N   UNL     1       5.278   4.738  17.495  0.00  0.00    +0.000 NA
ENDROOT
BRANCH   1   7
ATOM      7  S   UNL     1       3.663   5.327  19.493  0.00  0.00    +0.000 S 
BRANCH   7   8
ATOM      8  C   UNL     1       3.308   3.571  19.857  0.00  0.00    +0.000 C 
BRANCH   8  10
ATOM      9  C   UNL     1       1.097   4.676  20.483  0.00  0.00    +0.000 C 
ATOM     10  C   UNL     1       1.837   3.337  20.300  0.00  0.00    +0.000 C 
ATOM     11  C   UNL     1       1.766   2.526  21.608  0.00  0.00    +0.000 C 
ATOM     12  C   UNL     1       1.113   2.540  19.197  0.00  0.00    +0.000 C 
ENDBRANCH   8  10
ENDBRANCH   7   8
ENDBRANCH   1   7
BRANCH   5  13
ATOM     13  O   UNL     1       6.511   3.899  15.695  0.00  0.00    +0.000 OA
BRANCH  13  14
ATOM     14  S   UNL     1       6.608   4.865  14.388  0.00  0.00    +0.000 S 
ATOM     15  C   UNL     1       6.146   3.692  13.124  0.00  0.00    +0.000 C 
ATOM     16  O   UNL     1       5.520   5.825  14.484  0.00  0.00    +0.000 OA
ATOM     17  O   UNL     1       7.960   5.333  14.164  0.00  0.00    +0.000 OA
ENDBRANCH  13  14
ENDBRANCH   5  13
TORSDOF 5
ENDMDL
MODEL 6
REMARK VINA RESULT:      -6.6      2.157      3.204
REMARK  Name = 
REMARK  9 active torsions:
REMARK  status: ('A' for Active; 'I' for Inactive)
REMARK    1  A    between atoms: C_1  and  C_2
REMARK    2  A    between atoms: C_2  and  C_3
REMARK    3  A    between atoms: C_2  and  C_4
REMARK    4  A    between atoms: C_2  and  C_5
REMARK    5  A    between atoms: C_5  and  S_6
REMARK    6  A    between atoms: S_6  and  C_7
REMARK    7  A    between atoms: C_11  and  O_12
REMARK    8  A    between atoms: O_12  and  S_13
REMARK    9  A    between atoms: S_13  and  C_14
REMARK                            x       y       z     vdW  Elec       q    Type
REMARK                         _______ _______ _______ _____ _____    ______ ____
ROOT
ATOM      1  C   UNL     1       2.739   4.511  17.673  0.00  0.00    +0.000 A 
ATOM      2  C   UNL     1       2.112   5.714  17.969  0.00  0.00    +0.000 A 
ATOM      3  C   UNL     1       2.851   6.889  17.868  0.00  0.00    +0.000 A 
ATOM      4  C   UNL     1       4.191   6.818  17.504  0.00  0.00    +0.000 A 
ATOM      5  C   UNL     1       4.731   5.571  17.233  0.00  0.00    +0.000 A 
ATOM      6  N   UNL     1       4.020   4.433  17.262  0.00  0.00    +0.000 NA
ENDROOT
BRANCH   1   7
ATOM      7  S   UNL     1       1.955   2.951  17.957  0.00  0.00    +0.000 S 
BRANCH   7   8
ATOM      8  C   UNL     1       1.071   3.262  19.526  0.00  0.00    +0.000 C 
BRANCH   8  10
ATOM      9  C   UNL     1       3.377   2.607  20.394  0.00  0.00    +0.000 C 
ATOM     10  C   UNL     1       2.011   3.219  20.762  0.00  0.00    +0.000 C 
ATOM     11  C   UNL     1       1.383   2.418  21.918  0.00  0.00    +0.000 C 
ATOM     12  C   UNL     1       2.252   4.662  21.248  0.00  0.00    +0.000 C 
ENDBRANCH   8  10
ENDBRANCH   7   8
ENDBRANCH   1   7
BRANCH   5  13
ATOM     13  O   UNL     1       6.053   5.515  16.863  0.00  0.00    +0.000 OA
BRANCH  13  14
ATOM     14  S   UNL     1       7.191   5.039  17.927  0.00  0.00    +0.000 S 
ATOM     15  C   UNL     1       7.857   6.634  18.374  0.00  0.00    +0.000 C 
ATOM     16  O   UNL     1       6.496   4.533  19.098  0.00  0.00    +0.000 OA
ATOM     17  O   UNL     1       8.214   4.231  17.294  0.00  0.00    +0.000 OA
ENDBRANCH  13  14
ENDBRANCH   5  13
TORSDOF 5
ENDMDL
MODEL 7
REMARK VINA RESULT:      -6.5      0.794      1.071
REMARK  Name = 
REMARK  9 active torsions:
REMARK  status: ('A' for Active; 'I' for Inactive)
REMARK    1  A    between atoms: C_1  and  C_2
REMARK    2  A    between atoms: C_2  and  C_3
REMARK    3  A    between atoms: C_2  and  C_4
REMARK    4  A    between atoms: C_2  and  C_5
REMARK    5  A    between atoms: C_5  and  S_6
REMARK    6  A    between atoms: S_6  and  C_7
REMARK    7  A    between atoms: C_11  and  O_12
REMARK    8  A    between atoms: O_12  and  S_13
REMARK    9  A    between atoms: S_13  and  C_14
REMARK                            x       y       z     vdW  Elec       q    Type
REMARK                         _______ _______ _______ _____ _____    ______ ____
ROOT
ATOM      1  C   UNL     1       5.258   3.874  18.269  0.00  0.00    +0.000 A 
ATOM      2  C   UNL     1       5.608   4.753  19.285  0.00  0.00    +0.000 A 
ATOM      3  C   UNL     1       6.696   5.599  19.085  0.00  0.00    +0.000 A 
ATOM      4  C   UNL     1       7.408   5.516  17.893  0.00  0.00    +0.000 A 
ATOM      5  C   UNL     1       6.986   4.604  16.940  0.00  0.00    +0.000 A 
ATOM      6  N   UNL     1       5.903   3.825  17.087  0.00  0.00    +0.000 NA
ENDROOT
BRANCH   1   7
ATOM      7  S   UNL     1       4.023   2.627  18.493  0.00  0.00    +0.000 S 
BRANCH   7   8
ATOM      8  C   UNL     1       3.005   3.351  19.827  0.00  0.00    +0.000 C 
BRANCH   8  10
ATOM      9  C   UNL     1       1.682   4.630  18.063  0.00  0.00    +0.000 C 
ATOM     10  C   UNL     1       1.591   3.773  19.340  0.00  0.00    +0.000 C 
ATOM     11  C   UNL     1       0.830   4.551  20.430  0.00  0.00    +0.000 C 
ATOM     12  C   UNL     1       0.787   2.501  19.003  0.00  0.00    +0.000 C 
ENDBRANCH   8  10
ENDBRANCH   7   8
ENDBRANCH   1   7
BRANCH   5  13
ATOM     13  O   UNL     1       7.691   4.541  15.762  0.00  0.00    +0.000 OA
BRANCH  13  14
ATOM     14  S   UNL     1       7.101   5.225  14.407  0.00  0.00    +0.000 S 
ATOM     15  C   UNL     1       6.349   3.789  13.659  0.00  0.00    +0.000 C 
ATOM     16  O   UNL     1       6.015   6.103  14.809  0.00  0.00    +0.000 OA
ATOM     17  O   UNL     1       8.159   5.734  13.557  0.00  0.00    +0.000 OA
ENDBRANCH  13  14
ENDBRANCH   5  13
TORSDOF 5
ENDMDL
MODEL 8
REMARK VINA RESULT:      -6.4      1.284      1.838
REMARK  Name = 
REMARK  9 active torsions:
REMARK  status: ('A' for Active; 'I' for Inactive)
REMARK    1  A    between atoms: C_1  and  C_2
REMARK    2  A    between atoms: C_2  and  C_3
REMARK    3  A    between atoms: C_2  and  C_4
REMARK    4  A    between atoms: C_2  and  C_5
REMARK    5  A    between atoms: C_5  and  S_6
REMARK    6  A    between atoms: S_6  and  C_7
REMARK    7  A    between atoms: C_11  and  O_12
REMARK    8  A    between atoms: O_12  and  S_13
REMARK    9  A    between atoms: S_13  and  C_14
REMARK                            x       y       z     vdW  Elec       q    Type
REMARK                         _______ _______ _______ _____ _____    ______ ____
ROOT
ATOM      1  C   UNL     1       5.269   5.261  18.823  0.00  0.00    +0.000 A 
ATOM      2  C   UNL     1       6.436   5.528  19.526  0.00  0.00    +0.000 A 
ATOM      3  C   UNL     1       7.656   5.250  18.916  0.00  0.00    +0.000 A 
ATOM      4  C   UNL     1       7.665   4.692  17.642  0.00  0.00    +0.000 A 
ATOM      5  C   UNL     1       6.449   4.457  17.021  0.00  0.00    +0.000 A 
ATOM      6  N   UNL     1       5.265   4.775  17.565  0.00  0.00    +0.000 NA
ENDROOT
BRANCH   1   7
ATOM      7  S   UNL     1       3.672   5.391  19.573  0.00  0.00    +0.000 S 
BRANCH   7   8
ATOM      8  C   UNL     1       2.636   4.447  18.400  0.00  0.00    +0.000 C 
BRANCH   8  10
ATOM      9  C   UNL     1       3.115   2.695  20.189  0.00  0.00    +0.000 C 
ATOM     10  C   UNL     1       2.400   2.980  18.854  0.00  0.00    +0.000 C 
ATOM     11  C   UNL     1       2.880   1.978  17.788  0.00  0.00    +0.000 C 
ATOM     12  C   UNL     1       0.888   2.770  19.070  0.00  0.00    +0.000 C 
ENDBRANCH   8  10
ENDBRANCH   7   8
ENDBRANCH   1   7
BRANCH   5  13
ATOM     13  O   UNL     1       6.472   3.916  15.758  0.00  0.00    +0.000 OA
BRANCH  13  14
ATOM     14  S   UNL     1       6.570   4.879  14.448  0.00  0.00    +0.000 S 
ATOM     15  C   UNL     1       6.131   3.696  13.185  0.00  0.00    +0.000 C 
ATOM     16  O   UNL     1       5.472   5.828  14.531  0.00  0.00    +0.000 OA
ATOM     17  O   UNL     1       7.920   5.359  14.233  0.00  0.00    +0.000 OA
ENDBRANCH  13  14
ENDBRANCH   5  13
TORSDOF 5
ENDMDL
MODEL 9
REMARK VINA RESULT:      -6.4      1.767      2.040
REMARK  Name = 
REMARK  9 active torsions:
REMARK  status: ('A' for Active; 'I' for Inactive)
REMARK    1  A    between atoms: C_1  and  C_2
REMARK    2  A    between atoms: C_2  and  C_3
REMARK    3  A    between atoms: C_2  and  C_4
REMARK    4  A    between atoms: C_2  and  C_5
REMARK    5  A    between atoms: C_5  and  S_6
REMARK    6  A    between atoms: S_6  and  C_7
REMARK    7  A    between atoms: C_11  and  O_12
REMARK    8  A    between atoms: O_12  and  S_13
REMARK    9  A    between atoms: S_13  and  C_14
REMARK                            x       y       z     vdW  Elec       q    Type
REMARK                         _______ _______ _______ _____ _____    ______ ____
ROOT
ATOM      1  C   UNL     1       3.738   4.639  17.439  0.00  0.00    +0.000 A 
ATOM      2  C   UNL     1       3.350   5.784  18.123  0.00  0.00    +0.000 A 
ATOM      3  C   UNL     1       3.843   7.013  17.692  0.00  0.00    +0.000 A 
ATOM      4  C   UNL     1       4.723   7.050  16.616  0.00  0.00    +0.000 A 
ATOM      5  C   UNL     1       5.056   5.854  16.000  0.00  0.00    +0.000 A 
ATOM      6  N   UNL     1       4.544   4.667  16.359  0.00  0.00    +0.000 NA
ENDROOT
BRANCH   1   7
ATOM      7  S   UNL     1       3.331   3.018  18.019  0.00  0.00    +0.000 S 
BRANCH   7   8
ATOM      8  C   UNL     1       3.170   3.300  19.818  0.00  0.00    +0.000 C 
BRANCH   8  10
ATOM      9  C   UNL     1       0.784   2.585  19.271  0.00  0.00    +0.000 C 
ATOM     10  C   UNL     1       1.692   3.295  20.295  0.00  0.00    +0.000 C 
ATOM     11  C   UNL     1       1.174   4.726  20.538  0.00  0.00    +0.000 C 
ATOM     12  C   UNL     1       1.606   2.518  21.624  0.00  0.00    +0.000 C 
ENDBRANCH   8  10
ENDBRANCH   7   8
ENDBRANCH   1   7
BRANCH   5  13
ATOM     13  O   UNL     1       5.918   5.907  14.931  0.00  0.00    +0.000 OA
BRANCH  13  14
ATOM     14  S   UNL     1       6.946   4.678  14.635  0.00  0.00    +0.000 S 
ATOM     15  C   UNL     1       7.899   5.409  13.314  0.00  0.00    +0.000 C 
ATOM     16  O   UNL     1       7.832   4.577  15.783  0.00  0.00    +0.000 OA
ATOM     17  O   UNL     1       6.252   3.500  14.157  0.00  0.00    +0.000 OA
ENDBRANCH  13  14
ENDBRANCH   5  13
TORSDOF 5
ENDMDL
