MODEL 1
REMARK VINA RESULT:      -7.6      0.000      0.000
REMARK  Name = 
REMARK  3 active torsions:
REMARK  status: ('A' for Active; 'I' for Inactive)
REMARK    1  A    between atoms: C_1  and  C_2
REMARK    2  A    between atoms: C_2  and  C_3
REMARK    3  A    between atoms: C_15  and  C_16
REMARK                            x       y       z     vdW  Elec       q    Type
REMARK                         _______ _______ _______ _____ _____    ______ ____
ROOT
ATOM      1  C   UNL     1       0.986  10.585  19.679  0.00  0.00    +0.000 A 
ATOM      2  C   UNL     1       0.427  10.893  20.922  0.00  0.00    +0.000 A 
ATOM      3  C   UNL     1       0.327   9.917  21.912  0.00  0.00    +0.000 A 
ATOM      4  C   UNL     1       0.792   8.610  21.678  0.00  0.00    +0.000 A 
ATOM      5  C   UNL     1       1.366   8.246  20.439  0.00  0.00    +0.000 A 
ATOM      6  C   UNL     1       1.452   9.268  19.437  0.00  0.00    +0.000 A 
ATOM      7  C   UNL     1       2.002   8.951  18.185  0.00  0.00    +0.000 A 
ATOM      8  C   UNL     1       2.468   7.690  17.885  0.00  0.00    +0.000 A 
ATOM      9  C   UNL     1       2.391   6.696  18.835  0.00  0.00    +0.000 A 
ATOM     10  C   UNL     1       2.857   5.383  18.558  0.00  0.00    +0.000 A 
ATOM     11  O   UNL     1       3.373   5.125  17.346  0.00  0.00    +0.000 OA
ATOM     12  C   UNL     1       3.735   3.830  17.374  0.00  0.00    +0.000 A 
ATOM     13  C   UNL     1       3.454   3.260  18.605  0.00  0.00    +0.000 A 
ATOM     14  C   UNL     1       3.774   1.838  18.888  0.00  0.00    +0.000 C 
ATOM     15  C   UNL     1       2.858   4.303  19.395  0.00  0.00    +0.000 A 
ATOM     16  C   UNL     1       2.317   4.487  20.739  0.00  0.00    +0.000 A 
ATOM     17  O   UNL     1       2.256   3.585  21.567  0.00  0.00    +0.000 OA
ATOM     18  O   UNL     1       1.819   5.829  21.029  0.00  0.00    +0.000 OA
ATOM     19  C   UNL     1       1.852   6.947  20.102  0.00  0.00    +0.000 A 
ENDROOT
BRANCH   1  21
ATOM     20  C   UNL     1       2.154  12.657  18.844  0.00  0.00    +0.000 C 
ATOM     21  C   UNL     1       1.019  11.665  18.609  0.00  0.00    +0.000 C 
ENDBRANCH   1  21
TORSDOF 1
ENDMDL
MODEL 2
REMARK VINA RESULT:      -7.6      1.989      6.276
REMARK  Name = 
REMARK  3 active torsions:
REMARK  status: ('A' for Active; 'I' for Inactive)
REMARK    1  A    between atoms: C_1  and  C_2
REMARK    2  A    between atoms: C_2  and  C_3
REMARK    3  A    between atoms: C_15  and  C_16
REMARK                            x       y       z     vdW  Elec       q    Type
REMARK                         _______ _______ _______ _____ _____    ______ ____
ROOT
ATOM      1  C   UNL     1       3.711   5.520  18.077  0.00  0.00    +0.000 A 
ATOM      2  C   UNL     1       3.741   4.386  18.893  0.00  0.00    +0.000 A 
ATOM      3  C   UNL     1       3.048   4.368  20.102  0.00  0.00    +0.000 A 
ATOM      4  C   UNL     1       2.303   5.488  20.516  0.00  0.00    +0.000 A 
ATOM      5  C   UNL     1       2.240   6.659  19.727  0.00  0.00    +0.000 A 
ATOM      6  C   UNL     1       2.966   6.651  18.491  0.00  0.00    +0.000 A 
ATOM      7  C   UNL     1       2.944   7.798  17.681  0.00  0.00    +0.000 A 
ATOM      8  C   UNL     1       2.244   8.932  18.029  0.00  0.00    +0.000 A 
ATOM      9  C   UNL     1       1.543   8.956  19.214  0.00  0.00    +0.000 A 
ATOM     10  C   UNL     1       0.814  10.111  19.607  0.00  0.00    +0.000 A 
ATOM     11  O   UNL     1       0.824  11.184  18.801  0.00  0.00    +0.000 OA
ATOM     12  C   UNL     1       0.055  12.103  19.411  0.00  0.00    +0.000 A 
ATOM     13  C   UNL     1      -0.450  11.617  20.606  0.00  0.00    +0.000 A 
ATOM     14  C   UNL     1      -1.340  12.443  21.460  0.00  0.00    +0.000 C 
ATOM     15  C   UNL     1       0.067  10.282  20.737  0.00  0.00    +0.000 A 
ATOM     16  C   UNL     1      -0.006   9.166  21.677  0.00  0.00    +0.000 A 
ATOM     17  O   UNL     1      -0.635   9.213  22.728  0.00  0.00    +0.000 OA
ATOM     18  O   UNL     1       0.754   7.980  21.291  0.00  0.00    +0.000 OA
ATOM     19  C   UNL     1       1.525   7.848  20.068  0.00  0.00    +0.000 A 
ENDROOT
BRANCH   1  21
ATOM     20  C   UNL     1       5.051   4.121  16.463  0.00  0.00    +0.000 C 
ATOM     21  C   UNL     1       4.531   5.515  16.796  0.00  0.00    +0.000 C 
ENDBRANCH   1  21
TORSDOF 1
ENDMDL
MODEL 3
REMARK VINA RESULT:      -7.5      1.603      3.479
REMARK  Name = 
REMARK  3 active torsions:
REMARK  status: ('A' for Active; 'I' for Inactive)
REMARK    1  A    between atoms: C_1  and  C_2
REMARK    2  A    between atoms: C_2  and  C_3
REMARK    3  A    between atoms: C_15  and  C_16
REMARK                            x       y       z     vdW  Elec       q    Type
REMARK                         _______ _______ _______ _____ _____    ______ ____
ROOT
ATOM      1  C   UNL     1       0.505   9.212  20.688  0.00  0.00    +0.000 A 
ATOM      2  C   UNL     1       0.354  10.484  20.130  0.00  0.00    +0.000 A 
ATOM      3  C   UNL     1       1.016  10.820  18.950  0.00  0.00    +0.000 A 
ATOM      4  C   UNL     1       1.840   9.883  18.300  0.00  0.00    +0.000 A 
ATOM      5  C   UNL     1       2.026   8.583  18.822  0.00  0.00    +0.000 A 
ATOM      6  C   UNL     1       1.337   8.266  20.039  0.00  0.00    +0.000 A 
ATOM      7  C   UNL     1       1.502   6.991  20.603  0.00  0.00    +0.000 A 
ATOM      8  C   UNL     1       2.300   6.029  20.025  0.00  0.00    +0.000 A 
ATOM      9  C   UNL     1       2.970   6.318  18.857  0.00  0.00    +0.000 A 
ATOM     10  C   UNL     1       3.806   5.351  18.237  0.00  0.00    +0.000 A 
ATOM     11  O   UNL     1       3.935   4.146  18.814  0.00  0.00    +0.000 OA
ATOM     12  C   UNL     1       4.762   3.448  18.014  0.00  0.00    +0.000 A 
ATOM     13  C   UNL     1       5.158   4.205  16.924  0.00  0.00    +0.000 A 
ATOM     14  C   UNL     1       6.064   3.649  15.888  0.00  0.00    +0.000 C 
ATOM     15  C   UNL     1       4.521   5.484  17.081  0.00  0.00    +0.000 A 
ATOM     16  C   UNL     1       4.441   6.762  16.378  0.00  0.00    +0.000 A 
ATOM     17  O   UNL     1       5.050   6.997  15.340  0.00  0.00    +0.000 OA
ATOM     18  O   UNL     1       3.599   7.769  17.017  0.00  0.00    +0.000 OA
ATOM     19  C   UNL     1       2.850   7.570  18.245  0.00  0.00    +0.000 A 
ENDROOT
BRANCH   1  21
ATOM     20  C   UNL     1      -0.467  10.181  22.802  0.00  0.00    +0.000 C 
ATOM     21  C   UNL     1      -0.188   8.910  22.008  0.00  0.00    +0.000 C 
ENDBRANCH   1  21
TORSDOF 1
ENDMDL
MODEL 4
REMARK VINA RESULT:      -7.5      1.827      6.140
REMARK  Name = 
REMARK  3 active torsions:
REMARK  status: ('A' for Active; 'I' for Inactive)
REMARK    1  A    between atoms: C_1  and  C_2
REMARK    2  A    between atoms: C_2  and  C_3
REMARK    3  A    between atoms: C_15  and  C_16
REMARK                            x       y       z     vdW  Elec       q    Type
REMARK                         _______ _______ _______ _____ _____    ______ ____
ROOT
ATOM      1  C   UNL     1       4.226   4.542  18.080  0.00  0.00    +0.000 A 
ATOM      2  C   UNL     1       4.121   3.441  18.933  0.00  0.00    +0.000 A 
ATOM      3  C   UNL     1       3.322   3.506  20.074  0.00  0.00    +0.000 A 
ATOM      4  C   UNL     1       2.605   4.678  20.379  0.00  0.00    +0.000 A 
ATOM      5  C   UNL     1       2.677   5.819  19.550  0.00  0.00    +0.000 A 
ATOM      6  C   UNL     1       3.510   5.726  18.386  0.00  0.00    +0.000 A 
ATOM      7  C   UNL     1       3.623   6.840  17.538  0.00  0.00    +0.000 A 
ATOM      8  C   UNL     1       2.957   8.021  17.782  0.00  0.00    +0.000 A 
ATOM      9  C   UNL     1       2.156   8.127  18.897  0.00  0.00    +0.000 A 
ATOM     10  C   UNL     1       1.459   9.332  19.182  0.00  0.00    +0.000 A 
ATOM     11  O   UNL     1       1.600  10.371  18.344  0.00  0.00    +0.000 OA
ATOM     12  C   UNL     1       0.830  11.352  18.850  0.00  0.00    +0.000 A 
ATOM     13  C   UNL     1       0.194  10.939  20.009  0.00  0.00    +0.000 A 
ATOM     14  C   UNL     1      -0.722  11.842  20.749  0.00  0.00    +0.000 C 
ATOM     15  C   UNL     1       0.624   9.586  20.232  0.00  0.00    +0.000 A 
ATOM     16  C   UNL     1       0.407   8.512  21.199  0.00  0.00    +0.000 A 
ATOM     17  O   UNL     1      -0.311   8.632  22.186  0.00  0.00    +0.000 OA
ATOM     18  O   UNL     1       1.132   7.274  20.925  0.00  0.00    +0.000 OA
ATOM     19  C   UNL     1       2.001   7.055  19.782  0.00  0.00    +0.000 A 
ENDROOT
BRANCH   1  21
ATOM     20  C   UNL     1       6.609   4.694  17.272  0.00  0.00    +0.000 C 
ATOM     21  C   UNL     1       5.156   4.446  16.881  0.00  0.00    +0.000 C 
ENDBRANCH   1  21
TORSDOF 1
ENDMDL
MODEL 5
REMARK VINA RESULT:      -7.4      1.962      6.800
REMARK  Name = 
REMARK  3 active torsions:
REMARK  status: ('A' for Active; 'I' for Inactive)
REMARK    1  A    between atoms: C_1  and  C_2
REMARK    2  A    between atoms: C_2  and  C_3
REMARK    3  A    between atoms: C_15  and  C_16
REMARK                            x       y       z     vdW  Elec       q    Type
REMARK                         _______ _______ _______ _____ _____    ______ ____
ROOT
ATOM      1  C   UNL     1       4.212   4.084  18.435  0.00  0.00    +0.000 A 
ATOM      2  C   UNL     1       4.946   4.218  17.254  0.00  0.00    +0.000 A 
ATOM      3  C   UNL     1       4.931   5.419  16.546  0.00  0.00    +0.000 A 
ATOM      4  C   UNL     1       4.182   6.515  17.013  0.00  0.00    +0.000 A 
ATOM      5  C   UNL     1       3.422   6.432  18.202  0.00  0.00    +0.000 A 
ATOM      6  C   UNL     1       3.453   5.184  18.907  0.00  0.00    +0.000 A 
ATOM      7  C   UNL     1       2.703   5.049  20.086  0.00  0.00    +0.000 A 
ATOM      8  C   UNL     1       1.940   6.077  20.595  0.00  0.00    +0.000 A 
ATOM      9  C   UNL     1       1.899   7.282  19.929  0.00  0.00    +0.000 A 
ATOM     10  C   UNL     1       1.119   8.362  20.422  0.00  0.00    +0.000 A 
ATOM     11  O   UNL     1       0.417   8.186  21.552  0.00  0.00    +0.000 OA
ATOM     12  C   UNL     1      -0.204   9.358  21.779  0.00  0.00    +0.000 A 
ATOM     13  C   UNL     1       0.104  10.284  20.797  0.00  0.00    +0.000 A 
ATOM     14  C   UNL     1      -0.450  11.661  20.834  0.00  0.00    +0.000 C 
ATOM     15  C   UNL     1       0.987   9.610  19.884  0.00  0.00    +0.000 A 
ATOM     16  C   UNL     1       1.717   9.898  18.651  0.00  0.00    +0.000 A 
ATOM     17  O   UNL     1       1.662  10.979  18.075  0.00  0.00    +0.000 OA
ATOM     18  O   UNL     1       2.508   8.788  18.126  0.00  0.00    +0.000 OA
ATOM     19  C   UNL     1       2.622   7.481  18.747  0.00  0.00    +0.000 A 
ENDROOT
BRANCH   1  21
ATOM     20  C   UNL     1       3.414   1.694  18.365  0.00  0.00    +0.000 C 
ATOM     21  C   UNL     1       4.210   2.737  19.141  0.00  0.00    +0.000 C 
ENDBRANCH   1  21
TORSDOF 1
ENDMDL
MODEL 6
REMARK VINA RESULT:      -7.4      1.730      2.166
REMARK  Name = 
REMARK  3 active torsions:
REMARK  status: ('A' for Active; 'I' for Inactive)
REMARK    1  A    between atoms: C_1  and  C_2
REMARK    2  A    between atoms: C_2  and  C_3
REMARK    3  A    between atoms: C_15  and  C_16
REMARK                            x       y       z     vdW  Elec       q    Type
REMARK                         _______ _______ _______ _____ _____    ______ ____
ROOT
ATOM      1  C   UNL     1       0.164  10.211  20.007  0.00  0.00    +0.000 A 
ATOM      2  C   UNL     1      -0.360   9.881  21.259  0.00  0.00    +0.000 A 
ATOM      3  C   UNL     1       0.031   8.707  21.902  0.00  0.00    +0.000 A 
ATOM      4  C   UNL     1       0.964   7.841  21.302  0.00  0.00    +0.000 A 
ATOM      5  C   UNL     1       1.524   8.128  20.037  0.00  0.00    +0.000 A 
ATOM      6  C   UNL     1       1.100   9.339  19.397  0.00  0.00    +0.000 A 
ATOM      7  C   UNL     1       1.619   9.660  18.133  0.00  0.00    +0.000 A 
ATOM      8  C   UNL     1       2.528   8.853  17.484  0.00  0.00    +0.000 A 
ATOM      9  C   UNL     1       2.944   7.685  18.084  0.00  0.00    +0.000 A 
ATOM     10  C   UNL     1       3.876   6.826  17.442  0.00  0.00    +0.000 A 
ATOM     11  O   UNL     1       4.342   7.173  16.232  0.00  0.00    +0.000 OA
ATOM     12  C   UNL     1       5.200   6.197  15.881  0.00  0.00    +0.000 A 
ATOM     13  C   UNL     1       5.283   5.228  16.867  0.00  0.00    +0.000 A 
ATOM     14  C   UNL     1       6.176   4.051  16.719  0.00  0.00    +0.000 C 
ATOM     15  C   UNL     1       4.388   5.650  17.910  0.00  0.00    +0.000 A 
ATOM     16  C   UNL     1       3.939   5.191  19.222  0.00  0.00    +0.000 A 
ATOM     17  O   UNL     1       4.323   4.145  19.734  0.00  0.00    +0.000 OA
ATOM     18  O   UNL     1       2.968   6.057  19.884  0.00  0.00    +0.000 OA
ATOM     19  C   UNL     1       2.463   7.306  19.343  0.00  0.00    +0.000 A 
ENDROOT
BRANCH   1  21
ATOM     20  C   UNL     1      -1.730  11.275  18.728  0.00  0.00    +0.000 C 
ATOM     21  C   UNL     1      -0.338  11.470  19.318  0.00  0.00    +0.000 C 
ENDBRANCH   1  21
TORSDOF 1
ENDMDL
MODEL 7
REMARK VINA RESULT:      -7.4      0.987      1.072
REMARK  Name = 
REMARK  3 active torsions:
REMARK  status: ('A' for Active; 'I' for Inactive)
REMARK    1  A    between atoms: C_1  and  C_2
REMARK    2  A    between atoms: C_2  and  C_3
REMARK    3  A    between atoms: C_15  and  C_16
REMARK                            x       y       z     vdW  Elec       q    Type
REMARK                         _______ _______ _______ _____ _____    ______ ____
ROOT
ATOM      1  C   UNL     1       0.371  11.307  19.715  0.00  0.00    +0.000 A 
ATOM      2  C   UNL     1      -0.330  11.473  20.912  0.00  0.00    +0.000 A 
ATOM      3  C   UNL     1      -0.407  10.431  21.835  0.00  0.00    +0.000 A 
ATOM      4  C   UNL     1       0.224   9.200  21.578  0.00  0.00    +0.000 A 
ATOM      5  C   UNL     1       0.945   8.980  20.383  0.00  0.00    +0.000 A 
ATOM      6  C   UNL     1       1.004  10.067  19.450  0.00  0.00    +0.000 A 
ATOM      7  C   UNL     1       1.699   9.891  18.242  0.00  0.00    +0.000 A 
ATOM      8  C   UNL     1       2.331   8.710  17.923  0.00  0.00    +0.000 A 
ATOM      9  C   UNL     1       2.281   7.655  18.807  0.00  0.00    +0.000 A 
ATOM     10  C   UNL     1       2.918   6.420  18.508  0.00  0.00    +0.000 A 
ATOM     11  O   UNL     1       3.567   6.298  17.340  0.00  0.00    +0.000 OA
ATOM     12  C   UNL     1       4.071   5.050  17.334  0.00  0.00    +0.000 A 
ATOM     13  C   UNL     1       3.746   4.377  18.500  0.00  0.00    +0.000 A 
ATOM     14  C   UNL     1       4.200   2.983  18.737  0.00  0.00    +0.000 C 
ATOM     15  C   UNL     1       2.966   5.297  19.282  0.00  0.00    +0.000 A 
ATOM     16  C   UNL     1       2.288   5.336  20.575  0.00  0.00    +0.000 A 
ATOM     17  O   UNL     1       2.256   4.382  21.345  0.00  0.00    +0.000 OA
ATOM     18  O   UNL     1       1.616   6.594  20.886  0.00  0.00    +0.000 OA
ATOM     19  C   UNL     1       1.605   7.765  20.027  0.00  0.00    +0.000 A 
ENDROOT
BRANCH   1  21
ATOM     20  C   UNL     1       0.467  13.806  19.402  0.00  0.00    +0.000 C 
ATOM     21  C   UNL     1       0.378  12.450  18.712  0.00  0.00    +0.000 C 
ENDBRANCH   1  21
TORSDOF 1
ENDMDL
MODEL 8
REMARK VINA RESULT:      -7.2      1.019      2.918
REMARK  Name = 
REMARK  3 active torsions:
REMARK  status: ('A' for Active; 'I' for Inactive)
REMARK    1  A    between atoms: C_1  and  C_2
REMARK    2  A    between atoms: C_2  and  C_3
REMARK    3  A    between atoms: C_15  and  C_16
REMARK                            x       y       z     vdW  Elec       q    Type
REMARK                         _______ _______ _______ _____ _____    ______ ____
ROOT
ATOM      1  C   UNL     1       0.949  10.040  20.097  0.00  0.00    +0.000 A 
ATOM      2  C   UNL     1       1.211  10.904  19.031  0.00  0.00    +0.000 A 
ATOM      3  C   UNL     1       1.869  10.441  17.892  0.00  0.00    +0.000 A 
ATOM      4  C   UNL     1       2.272   9.096  17.797  0.00  0.00    +0.000 A 
ATOM      5  C   UNL     1       2.031   8.182  18.846  0.00  0.00    +0.000 A 
ATOM      6  C   UNL     1       1.357   8.686  20.007  0.00  0.00    +0.000 A 
ATOM      7  C   UNL     1       1.108   7.817  21.081  0.00  0.00    +0.000 A 
ATOM      8  C   UNL     1       1.484   6.493  21.059  0.00  0.00    +0.000 A 
ATOM      9  C   UNL     1       2.134   5.993  19.952  0.00  0.00    +0.000 A 
ATOM     10  C   UNL     1       2.541   4.632  19.897  0.00  0.00    +0.000 A 
ATOM     11  O   UNL     1       2.283   3.841  20.950  0.00  0.00    +0.000 OA
ATOM     12  C   UNL     1       2.762   2.628  20.616  0.00  0.00    +0.000 A 
ATOM     13  C   UNL     1       3.323   2.644  19.350  0.00  0.00    +0.000 A 
ATOM     14  C   UNL     1       3.910   1.420  18.751  0.00  0.00    +0.000 C 
ATOM     15  C   UNL     1       3.179   3.993  18.873  0.00  0.00    +0.000 A 
ATOM     16  C   UNL     1       3.501   4.775  17.682  0.00  0.00    +0.000 A 
ATOM     17  O   UNL     1       4.083   4.307  16.709  0.00  0.00    +0.000 OA
ATOM     18  O   UNL     1       3.103   6.179  17.735  0.00  0.00    +0.000 OA
ATOM     19  C   UNL     1       2.414   6.806  18.849  0.00  0.00    +0.000 A 
ENDROOT
BRANCH   1  21
ATOM     20  C   UNL     1      -0.824  11.593  20.992  0.00  0.00    +0.000 C 
ATOM     21  C   UNL     1       0.283  10.604  21.343  0.00  0.00    +0.000 C 
ENDBRANCH   1  21
TORSDOF 1
ENDMDL
MODEL 9
REMARK VINA RESULT:      -7.1      1.691      6.302
REMARK  Name = 
REMARK  3 active torsions:
REMARK  status: ('A' for Active; 'I' for Inactive)
REMARK    1  A    between atoms: C_1  and  C_2
REMARK    2  A    between atoms: C_2  and  C_3
REMARK    3  A    between atoms: C_15  and  C_16
REMARK                            x       y       z     vdW  Elec       q    Type
REMARK                         _______ _______ _______ _____ _____    ______ ____
ROOT
ATOM      1  C   UNL     1       3.141   3.481  19.064  0.00  0.00    +0.000 A 
ATOM      2  C   UNL     1       2.906   2.677  20.182  0.00  0.00    +0.000 A 
ATOM      3  C   UNL     1       2.313   3.212  21.324  0.00  0.00    +0.000 A 
ATOM      4  C   UNL     1       1.936   4.567  21.366  0.00  0.00    +0.000 A 
ATOM      5  C   UNL     1       2.151   5.423  20.263  0.00  0.00    +0.000 A 
ATOM      6  C   UNL     1       2.767   4.847  19.104  0.00  0.00    +0.000 A 
ATOM      7  C   UNL     1       3.013   5.662  17.987  0.00  0.00    +0.000 A 
ATOM      8  C   UNL     1       2.678   6.998  17.964  0.00  0.00    +0.000 A 
ATOM      9  C   UNL     1       2.088   7.567  19.070  0.00  0.00    +0.000 A 
ATOM     10  C   UNL     1       1.735   8.944  19.083  0.00  0.00    +0.000 A 
ATOM     11  O   UNL     1       1.992   9.684  17.993  0.00  0.00    +0.000 OA
ATOM     12  C   UNL     1       1.548  10.921  18.282  0.00  0.00    +0.000 A 
ATOM     13  C   UNL     1       1.005  10.970  19.555  0.00  0.00    +0.000 A 
ATOM     14  C   UNL     1       0.435  12.227  20.102  0.00  0.00    +0.000 C 
ATOM     15  C   UNL     1       1.138   9.643  20.092  0.00  0.00    +0.000 A 
ATOM     16  C   UNL     1       0.818   8.920  21.320  0.00  0.00    +0.000 A 
ATOM     17  O   UNL     1       0.294   9.450  22.294  0.00  0.00    +0.000 OA
ATOM     18  O   UNL     1       1.193   7.509  21.325  0.00  0.00    +0.000 OA
ATOM     19  C   UNL     1       1.818   6.811  20.216  0.00  0.00    +0.000 A 
ENDROOT
BRANCH   1  21
ATOM     20  C   UNL     1       3.845   1.345  17.925  0.00  0.00    +0.000 C 
ATOM     21  C   UNL     1       3.845   2.868  17.863  0.00  0.00    +0.000 C 
ENDBRANCH   1  21
TORSDOF 1
ENDMDL
