MODEL 1
REMARK VINA RESULT:      -7.9      0.000      0.000
REMARK  Name = 
REMARK  3 active torsions:
REMARK  status: ('A' for Active; 'I' for Inactive)
REMARK    1  A    between atoms: C_1  and  O_2
REMARK    2  A    between atoms: O_2  and  C_3
REMARK    3  A    between atoms: C_9  and  N_10
REMARK                            x       y       z     vdW  Elec       q    Type
REMARK                         _______ _______ _______ _____ _____    ______ ____
ROOT
ATOM      1  C   UNL     1       5.758   4.455  15.368  0.00  0.00    +0.000 A 
ATOM      2  C   UNL     1       5.625   5.830  15.233  0.00  0.00    +0.000 A 
ATOM      3  C   UNL     1       4.897   6.549  16.176  0.00  0.00    +0.000 A 
ATOM      4  C   UNL     1       4.269   5.907  17.257  0.00  0.00    +0.000 A 
ATOM      5  C   UNL     1       4.394   4.516  17.415  0.00  0.00    +0.000 A 
ATOM      6  C   UNL     1       5.140   3.810  16.442  0.00  0.00    +0.000 A 
ATOM      7  C   UNL     1       3.724   3.764  18.578  0.00  0.00    +0.000 C 
ATOM      8  C   UNL     1       2.735   2.728  17.978  0.00  0.00    +0.000 C 
ATOM      9  C   UNL     1       1.965   1.966  19.049  0.00  0.00    +0.000 C 
ATOM     10  C   UNL     1       1.055   2.946  19.760  0.00  0.00    +0.000 C 
ATOM     11  C   UNL     1       1.881   4.015  20.469  0.00  0.00    +0.000 C 
ATOM     12  C   UNL     1       2.988   4.695  19.614  0.00  0.00    +0.000 C 
ATOM     13  C   UNL     1       2.425   5.965  18.963  0.00  0.00    +0.000 C 
ATOM     14  C   UNL     1       3.522   6.746  18.253  0.00  0.00    +0.000 C 
ENDROOT
BRANCH   7  15
ATOM     15  N   UNL     1       4.779   3.047  19.324  0.00  0.00    +0.000 NA
ATOM     16  H   UNL     1       4.385   2.227  19.763  0.00  0.00    +0.000 HD
ATOM     17  H   UNL     1       5.142   3.630  20.078  0.00  0.00    +0.000 HD
ENDBRANCH   7  15
BRANCH   1  19
ATOM     18  C   UNL     1       5.981   3.726  13.145  0.00  0.00    +0.000 C 
ATOM     19  O   UNL     1       6.438   3.653  14.493  0.00  0.00    +0.000 OA
ENDBRANCH   1  19
TORSDOF 2
ENDMDL
MODEL 2
REMARK VINA RESULT:      -7.4      0.872      1.015
REMARK  Name = 
REMARK  3 active torsions:
REMARK  status: ('A' for Active; 'I' for Inactive)
REMARK    1  A    between atoms: C_1  and  O_2
REMARK    2  A    between atoms: O_2  and  C_3
REMARK    3  A    between atoms: C_9  and  N_10
REMARK                            x       y       z     vdW  Elec       q    Type
REMARK                         _______ _______ _______ _____ _____    ______ ____
ROOT
ATOM      1  C   UNL     1       5.589   5.695  15.766  0.00  0.00    +0.000 A 
ATOM      2  C   UNL     1       5.109   6.979  15.981  0.00  0.00    +0.000 A 
ATOM      3  C   UNL     1       4.263   7.229  17.058  0.00  0.00    +0.000 A 
ATOM      4  C   UNL     1       3.863   6.198  17.925  0.00  0.00    +0.000 A 
ATOM      5  C   UNL     1       4.341   4.891  17.729  0.00  0.00    +0.000 A 
ATOM      6  C   UNL     1       5.200   4.665  16.627  0.00  0.00    +0.000 A 
ATOM      7  C   UNL     1       3.933   3.727  18.647  0.00  0.00    +0.000 C 
ATOM      8  C   UNL     1       3.213   2.658  17.781  0.00  0.00    +0.000 C 
ATOM      9  C   UNL     1       2.705   1.481  18.605  0.00  0.00    +0.000 C 
ATOM     10  C   UNL     1       1.608   1.986  19.519  0.00  0.00    +0.000 C 
ATOM     11  C   UNL     1       2.166   3.017  20.495  0.00  0.00    +0.000 C 
ATOM     12  C   UNL     1       3.029   4.149  19.867  0.00  0.00    +0.000 C 
ATOM     13  C   UNL     1       2.137   5.355  19.545  0.00  0.00    +0.000 C 
ATOM     14  C   UNL     1       2.971   6.542  19.083  0.00  0.00    +0.000 C 
ENDROOT
BRANCH   7  15
ATOM     15  N   UNL     1       5.164   3.138  19.213  0.00  0.00    +0.000 NA
ATOM     16  H   UNL     1       5.630   2.586  18.507  0.00  0.00    +0.000 HD
ATOM     17  H   UNL     1       4.937   2.500  19.974  0.00  0.00    +0.000 HD
ENDBRANCH   7  15
BRANCH   1  19
ATOM     18  C   UNL     1       6.215   4.012  14.251  0.00  0.00    +0.000 C 
ATOM     19  O   UNL     1       6.413   5.338  14.734  0.00  0.00    +0.000 OA
ENDBRANCH   1  19
TORSDOF 2
ENDMDL
MODEL 3
REMARK VINA RESULT:      -7.3      2.135      3.052
REMARK  Name = 
REMARK  3 active torsions:
REMARK  status: ('A' for Active; 'I' for Inactive)
REMARK    1  A    between atoms: C_1  and  O_2
REMARK    2  A    between atoms: O_2  and  C_3
REMARK    3  A    between atoms: C_9  and  N_10
REMARK                            x       y       z     vdW  Elec       q    Type
REMARK                         _______ _______ _______ _____ _____    ______ ____
ROOT
ATOM      1  C   UNL     1       6.617   4.751  18.106  0.00  0.00    +0.000 A 
ATOM      2  C   UNL     1       6.389   4.372  16.790  0.00  0.00    +0.000 A 
ATOM      3  C   UNL     1       5.103   4.027  16.384  0.00  0.00    +0.000 A 
ATOM      4  C   UNL     1       4.028   4.032  17.287  0.00  0.00    +0.000 A 
ATOM      5  C   UNL     1       4.234   4.416  18.623  0.00  0.00    +0.000 A 
ATOM      6  C   UNL     1       5.551   4.761  19.009  0.00  0.00    +0.000 A 
ATOM      7  C   UNL     1       3.092   4.436  19.652  0.00  0.00    +0.000 C 
ATOM      8  C   UNL     1       3.455   3.449  20.796  0.00  0.00    +0.000 C 
ATOM      9  C   UNL     1       2.356   3.340  21.846  0.00  0.00    +0.000 C 
ATOM     10  C   UNL     1       1.149   2.696  21.198  0.00  0.00    +0.000 C 
ATOM     11  C   UNL     1       0.616   3.580  20.074  0.00  0.00    +0.000 C 
ATOM     12  C   UNL     1       1.675   4.093  19.056  0.00  0.00    +0.000 C 
ATOM     13  C   UNL     1       1.758   3.123  17.870  0.00  0.00    +0.000 C 
ATOM     14  C   UNL     1       2.661   3.676  16.776  0.00  0.00    +0.000 C 
ENDROOT
BRANCH   7  15
ATOM     15  N   UNL     1       3.001   5.803  20.207  0.00  0.00    +0.000 NA
ATOM     16  H   UNL     1       2.100   6.199  19.983  0.00  0.00    +0.000 HD
ATOM     17  H   UNL     1       3.697   6.410  19.775  0.00  0.00    +0.000 HD
ENDBRANCH   7  15
BRANCH   1  19
ATOM     18  C   UNL     1       8.034   6.496  18.792  0.00  0.00    +0.000 C 
ATOM     19  O   UNL     1       7.840   5.095  18.613  0.00  0.00    +0.000 OA
ENDBRANCH   1  19
TORSDOF 2
ENDMDL
MODEL 4
REMARK VINA RESULT:      -7.2      1.525      1.667
REMARK  Name = 
REMARK  3 active torsions:
REMARK  status: ('A' for Active; 'I' for Inactive)
REMARK    1  A    between atoms: C_1  and  O_2
REMARK    2  A    between atoms: O_2  and  C_3
REMARK    3  A    between atoms: C_9  and  N_10
REMARK                            x       y       z     vdW  Elec       q    Type
REMARK                         _______ _______ _______ _____ _____    ______ ____
ROOT
ATOM      1  C   UNL     1       6.045   4.065  14.684  0.00  0.00    +0.000 A 
ATOM      2  C   UNL     1       7.006   4.961  15.130  0.00  0.00    +0.000 A 
ATOM      3  C   UNL     1       7.008   5.366  16.462  0.00  0.00    +0.000 A 
ATOM      4  C   UNL     1       6.039   4.901  17.366  0.00  0.00    +0.000 A 
ATOM      5  C   UNL     1       5.059   3.990  16.938  0.00  0.00    +0.000 A 
ATOM      6  C   UNL     1       5.080   3.595  15.579  0.00  0.00    +0.000 A 
ATOM      7  C   UNL     1       3.974   3.453  17.887  0.00  0.00    +0.000 C 
ATOM      8  C   UNL     1       2.589   3.866  17.320  0.00  0.00    +0.000 C 
ATOM      9  C   UNL     1       1.436   3.438  18.220  0.00  0.00    +0.000 C 
ATOM     10  C   UNL     1       1.533   4.222  19.512  0.00  0.00    +0.000 C 
ATOM     11  C   UNL     1       2.829   3.882  20.242  0.00  0.00    +0.000 C 
ATOM     12  C   UNL     1       4.125   3.929  19.380  0.00  0.00    +0.000 C 
ATOM     13  C   UNL     1       4.762   5.321  19.490  0.00  0.00    +0.000 C 
ATOM     14  C   UNL     1       6.116   5.356  18.795  0.00  0.00    +0.000 C 
ENDROOT
BRANCH   7  15
ATOM     15  N   UNL     1       4.068   1.978  17.899  0.00  0.00    +0.000 NA
ATOM     16  H   UNL     1       4.325   1.648  16.980  0.00  0.00    +0.000 HD
ATOM     17  H   UNL     1       3.161   1.564  18.110  0.00  0.00    +0.000 HD
ENDBRANCH   7  15
BRANCH   1  19
ATOM     18  C   UNL     1       6.949   4.108  12.516  0.00  0.00    +0.000 C 
ATOM     19  O   UNL     1       5.943   3.613  13.397  0.00  0.00    +0.000 OA
ENDBRANCH   1  19
TORSDOF 2
ENDMDL
MODEL 5
REMARK VINA RESULT:      -7.1      1.950      3.179
REMARK  Name = 
REMARK  3 active torsions:
REMARK  status: ('A' for Active; 'I' for Inactive)
REMARK    1  A    between atoms: C_1  and  O_2
REMARK    2  A    between atoms: O_2  and  C_3
REMARK    3  A    between atoms: C_9  and  N_10
REMARK                            x       y       z     vdW  Elec       q    Type
REMARK                         _______ _______ _______ _____ _____    ______ ____
ROOT
ATOM      1  C   UNL     1       6.025   6.265  16.790  0.00  0.00    +0.000 A 
ATOM      2  C   UNL     1       6.426   5.150  16.068  0.00  0.00    +0.000 A 
ATOM      3  C   UNL     1       5.646   3.997  16.089  0.00  0.00    +0.000 A 
ATOM      4  C   UNL     1       4.466   3.929  16.847  0.00  0.00    +0.000 A 
ATOM      5  C   UNL     1       4.039   5.048  17.582  0.00  0.00    +0.000 A 
ATOM      6  C   UNL     1       4.850   6.207  17.544  0.00  0.00    +0.000 A 
ATOM      7  C   UNL     1       2.756   5.025  18.431  0.00  0.00    +0.000 C 
ATOM      8  C   UNL     1       3.149   5.298  19.909  0.00  0.00    +0.000 C 
ATOM      9  C   UNL     1       1.956   5.234  20.853  0.00  0.00    +0.000 C 
ATOM     10  C   UNL     1       1.455   3.805  20.883  0.00  0.00    +0.000 C 
ATOM     11  C   UNL     1       0.963   3.388  19.501  0.00  0.00    +0.000 C 
ATOM     12  C   UNL     1       1.927   3.691  18.317  0.00  0.00    +0.000 C 
ATOM     13  C   UNL     1       2.816   2.469  18.056  0.00  0.00    +0.000 C 
ATOM     14  C   UNL     1       3.658   2.664  16.802  0.00  0.00    +0.000 C 
ENDROOT
BRANCH   7  15
ATOM     15  N   UNL     1       1.877   6.115  17.958  0.00  0.00    +0.000 NA
ATOM     16  H   UNL     1       1.096   6.217  18.590  0.00  0.00    +0.000 HD
ATOM     17  H   UNL     1       1.480   5.883  17.047  0.00  0.00    +0.000 HD
ENDBRANCH   7  15
BRANCH   1  19
ATOM     18  C   UNL     1       7.753   7.468  17.834  0.00  0.00    +0.000 C 
ATOM     19  O   UNL     1       6.721   7.441  16.850  0.00  0.00    +0.000 OA
ENDBRANCH   1  19
TORSDOF 2
ENDMDL
MODEL 6
REMARK VINA RESULT:      -6.8      2.761      5.394
REMARK  Name = 
REMARK  3 active torsions:
REMARK  status: ('A' for Active; 'I' for Inactive)
REMARK    1  A    between atoms: C_1  and  O_2
REMARK    2  A    between atoms: O_2  and  C_3
REMARK    3  A    between atoms: C_9  and  N_10
REMARK                            x       y       z     vdW  Elec       q    Type
REMARK                         _______ _______ _______ _____ _____    ______ ____
ROOT
ATOM      1  C   UNL     1       2.753   3.554  20.263  0.00  0.00    +0.000 A 
ATOM      2  C   UNL     1       1.676   4.342  19.884  0.00  0.00    +0.000 A 
ATOM      3  C   UNL     1       1.863   5.375  18.970  0.00  0.00    +0.000 A 
ATOM      4  C   UNL     1       3.131   5.653  18.434  0.00  0.00    +0.000 A 
ATOM      5  C   UNL     1       4.235   4.866  18.800  0.00  0.00    +0.000 A 
ATOM      6  C   UNL     1       4.017   3.823  19.731  0.00  0.00    +0.000 A 
ATOM      7  C   UNL     1       5.646   5.130  18.246  0.00  0.00    +0.000 C 
ATOM      8  C   UNL     1       6.584   5.447  19.442  0.00  0.00    +0.000 C 
ATOM      9  C   UNL     1       8.001   5.790  19.000  0.00  0.00    +0.000 C 
ATOM     10  C   UNL     1       7.952   7.098  18.238  0.00  0.00    +0.000 C 
ATOM     11  C   UNL     1       7.108   6.944  16.976  0.00  0.00    +0.000 C 
ATOM     12  C   UNL     1       5.715   6.278  17.169  0.00  0.00    +0.000 C 
ATOM     13  C   UNL     1       4.656   7.364  17.403  0.00  0.00    +0.000 C 
ATOM     14  C   UNL     1       3.257   6.764  17.432  0.00  0.00    +0.000 C 
ENDROOT
BRANCH   7  15
ATOM     15  N   UNL     1       6.114   3.895  17.581  0.00  0.00    +0.000 NA
ATOM     16  H   UNL     1       7.040   4.043  17.208  0.00  0.00    +0.000 HD
ATOM     17  H   UNL     1       5.516   3.669  16.787  0.00  0.00    +0.000 HD
ENDBRANCH   7  15
BRANCH   1  19
ATOM     18  C   UNL     1       1.453   2.448  21.877  0.00  0.00    +0.000 C 
ATOM     19  O   UNL     1       2.683   2.526  21.161  0.00  0.00    +0.000 OA
ENDBRANCH   1  19
TORSDOF 2
ENDMDL
MODEL 7
REMARK VINA RESULT:      -6.8      2.699      5.340
REMARK  Name = 
REMARK  3 active torsions:
REMARK  status: ('A' for Active; 'I' for Inactive)
REMARK    1  A    between atoms: C_1  and  O_2
REMARK    2  A    between atoms: O_2  and  C_3
REMARK    3  A    between atoms: C_9  and  N_10
REMARK                            x       y       z     vdW  Elec       q    Type
REMARK                         _______ _______ _______ _____ _____    ______ ____
ROOT
ATOM      1  C   UNL     1       2.350   4.619  21.029  0.00  0.00    +0.000 A 
ATOM      2  C   UNL     1       1.631   5.805  20.996  0.00  0.00    +0.000 A 
ATOM      3  C   UNL     1       1.836   6.709  19.957  0.00  0.00    +0.000 A 
ATOM      4  C   UNL     1       2.778   6.454  18.946  0.00  0.00    +0.000 A 
ATOM      5  C   UNL     1       3.514   5.258  18.957  0.00  0.00    +0.000 A 
ATOM      6  C   UNL     1       3.286   4.357  20.025  0.00  0.00    +0.000 A 
ATOM      7  C   UNL     1       4.558   4.932  17.877  0.00  0.00    +0.000 C 
ATOM      8  C   UNL     1       5.937   4.765  18.572  0.00  0.00    +0.000 C 
ATOM      9  C   UNL     1       7.064   4.502  17.581  0.00  0.00    +0.000 C 
ATOM     10  C   UNL     1       7.248   5.746  16.737  0.00  0.00    +0.000 C 
ATOM     11  C   UNL     1       5.986   6.025  15.925  0.00  0.00    +0.000 C 
ATOM     12  C   UNL     1       4.649   5.998  16.720  0.00  0.00    +0.000 C 
ATOM     13  C   UNL     1       4.310   7.415  17.202  0.00  0.00    +0.000 C 
ATOM     14  C   UNL     1       2.929   7.458  17.840  0.00  0.00    +0.000 C 
ENDROOT
BRANCH   7  15
ATOM     15  N   UNL     1       4.178   3.651  17.246  0.00  0.00    +0.000 NA
ATOM     16  H   UNL     1       3.502   3.821  16.516  0.00  0.00    +0.000 HD
ATOM     17  H   UNL     1       3.723   3.041  17.924  0.00  0.00    +0.000 HD
ENDBRANCH   7  15
BRANCH   1  19
ATOM     18  C   UNL     1       1.612   2.460  21.591  0.00  0.00    +0.000 C 
ATOM     19  O   UNL     1       2.236   3.671  22.009  0.00  0.00    +0.000 OA
ENDBRANCH   1  19
TORSDOF 2
ENDMDL
MODEL 8
REMARK VINA RESULT:      -6.7      2.548      5.616
REMARK  Name = 
REMARK  3 active torsions:
REMARK  status: ('A' for Active; 'I' for Inactive)
REMARK    1  A    between atoms: C_1  and  O_2
REMARK    2  A    between atoms: O_2  and  C_3
REMARK    3  A    between atoms: C_9  and  N_10
REMARK                            x       y       z     vdW  Elec       q    Type
REMARK                         _______ _______ _______ _____ _____    ______ ____
ROOT
ATOM      1  C   UNL     1       1.673   5.803  20.500  0.00  0.00    +0.000 A 
ATOM      2  C   UNL     1       0.992   4.594  20.477  0.00  0.00    +0.000 A 
ATOM      3  C   UNL     1       1.465   3.550  19.687  0.00  0.00    +0.000 A 
ATOM      4  C   UNL     1       2.612   3.701  18.891  0.00  0.00    +0.000 A 
ATOM      5  C   UNL     1       3.320   4.914  18.902  0.00  0.00    +0.000 A 
ATOM      6  C   UNL     1       2.817   5.960  19.713  0.00  0.00    +0.000 A 
ATOM      7  C   UNL     1       4.579   5.133  18.046  0.00  0.00    +0.000 C 
ATOM      8  C   UNL     1       4.304   6.310  17.072  0.00  0.00    +0.000 C 
ATOM      9  C   UNL     1       5.469   6.573  16.126  0.00  0.00    +0.000 C 
ATOM     10  C   UNL     1       5.604   5.380  15.204  0.00  0.00    +0.000 C 
ATOM     11  C   UNL     1       5.944   4.127  16.005  0.00  0.00    +0.000 C 
ATOM     12  C   UNL     1       5.053   3.857  17.252  0.00  0.00    +0.000 C 
ATOM     13  C   UNL     1       3.884   2.945  16.859  0.00  0.00    +0.000 C 
ATOM     14  C   UNL     1       3.084   2.525  18.084  0.00  0.00    +0.000 C 
ENDROOT
BRANCH   7  15
ATOM     15  N   UNL     1       5.687   5.506  18.951  0.00  0.00    +0.000 NA
ATOM     16  H   UNL     1       6.277   6.188  18.498  0.00  0.00    +0.000 HD
ATOM     17  H   UNL     1       6.277   4.698  19.144  0.00  0.00    +0.000 HD
ENDBRANCH   7  15
BRANCH   1  19
ATOM     18  C   UNL     1       1.512   8.146  20.581  0.00  0.00    +0.000 C 
ATOM     19  O   UNL     1       1.289   6.896  21.228  0.00  0.00    +0.000 OA
ENDBRANCH   1  19
TORSDOF 2
ENDMDL
MODEL 9
REMARK VINA RESULT:      -6.5      2.682      3.912
REMARK  Name = 
REMARK  3 active torsions:
REMARK  status: ('A' for Active; 'I' for Inactive)
REMARK    1  A    between atoms: C_1  and  O_2
REMARK    2  A    between atoms: O_2  and  C_3
REMARK    3  A    between atoms: C_9  and  N_10
REMARK                            x       y       z     vdW  Elec       q    Type
REMARK                         _______ _______ _______ _____ _____    ______ ____
ROOT
ATOM      1  C   UNL     1       3.016   7.895  17.472  0.00  0.00    +0.000 A 
ATOM      2  C   UNL     1       4.375   7.807  17.202  0.00  0.00    +0.000 A 
ATOM      3  C   UNL     1       5.032   6.589  17.357  0.00  0.00    +0.000 A 
ATOM      4  C   UNL     1       4.351   5.446  17.806  0.00  0.00    +0.000 A 
ATOM      5  C   UNL     1       2.974   5.511  18.081  0.00  0.00    +0.000 A 
ATOM      6  C   UNL     1       2.331   6.761  17.915  0.00  0.00    +0.000 A 
ATOM      7  C   UNL     1       2.182   4.290  18.578  0.00  0.00    +0.000 C 
ATOM      8  C   UNL     1       1.588   4.633  19.971  0.00  0.00    +0.000 C 
ATOM      9  C   UNL     1       0.833   3.464  20.590  0.00  0.00    +0.000 C 
ATOM     10  C   UNL     1       1.832   2.368  20.896  0.00  0.00    +0.000 C 
ATOM     11  C   UNL     1       2.474   1.862  19.608  0.00  0.00    +0.000 C 
ATOM     12  C   UNL     1       3.020   2.958  18.647  0.00  0.00    +0.000 C 
ATOM     13  C   UNL     1       4.502   3.214  18.951  0.00  0.00    +0.000 C 
ATOM     14  C   UNL     1       5.114   4.158  17.925  0.00  0.00    +0.000 C 
ENDROOT
BRANCH   7  15
ATOM     15  N   UNL     1       1.075   4.048  17.629  0.00  0.00    +0.000 NA
ATOM     16  H   UNL     1       1.237   4.572  16.781  0.00  0.00    +0.000 HD
ATOM     17  H   UNL     1       0.195   4.388  18.014  0.00  0.00    +0.000 HD
ENDBRANCH   7  15
BRANCH   1  19
ATOM     18  C   UNL     1       1.392   9.278  18.456  0.00  0.00    +0.000 C 
ATOM     19  O   UNL     1       2.278   9.042  17.365  0.00  0.00    +0.000 OA
ENDBRANCH   1  19
TORSDOF 2
ENDMDL
