MODEL 1
REMARK VINA RESULT:      -6.8      0.000      0.000
REMARK  Name = 
REMARK  8 active torsions:
REMARK  status: ('A' for Active; 'I' for Inactive)
REMARK    1  A    between atoms: C_1  and  C_2
REMARK    2  A    between atoms: C_2  and  C_3
REMARK    3  A    between atoms: C_2  and  C_4
REMARK    4  A    between atoms: C_2  and  C_5
REMARK    5  A    between atoms: C_11  and  O_12
REMARK    6  A    between atoms: O_12  and  C_13
REMARK    7  A    between atoms: C_13  and  C_14
REMARK    8  A    between atoms: C_14  and  N_15
REMARK                            x       y       z     vdW  Elec       q    Type
REMARK                         _______ _______ _______ _____ _____    ______ ____
ROOT
ATOM      1  C   UNL     1       2.315   4.720  19.495  0.00  0.00    +0.000 A 
ATOM      2  C   UNL     1       1.978   5.715  20.434  0.00  0.00    +0.000 A 
ATOM      3  C   UNL     1       1.982   7.070  20.100  0.00  0.00    +0.000 A 
ATOM      4 CL   UNL     1       1.494   8.245  21.259  0.00  0.00    +0.000 Cl
ATOM      5  C   UNL     1       2.341   7.474  18.831  0.00  0.00    +0.000 A 
ATOM      6  C   UNL     1       2.793   6.525  17.914  0.00  0.00    +0.000 A 
ATOM      7  C   UNL     1       2.846   5.169  18.251  0.00  0.00    +0.000 A 
ENDROOT
BRANCH   1   9
ATOM      8  C   UNL     1       1.088   2.539  18.732  0.00  0.00    +0.000 C 
ATOM      9  C   UNL     1       2.007   3.225  19.787  0.00  0.00    +0.000 C 
ATOM     10  C   UNL     1       1.330   3.067  21.169  0.00  0.00    +0.000 C 
ATOM     11  C   UNL     1       3.313   2.401  19.770  0.00  0.00    +0.000 C 
ENDBRANCH   1   9
BRANCH   7  12
ATOM     12  O   UNL     1       3.424   4.228  17.435  0.00  0.00    +0.000 OA
BRANCH  12  13
ATOM     13  C   UNL     1       4.632   4.533  16.731  0.00  0.00    +0.000 C 
BRANCH  13  14
ATOM     14  C   UNL     1       5.923   4.389  17.545  0.00  0.00    +0.000 C 
BRANCH  14  15
ATOM     15  N   UNL     1       6.637   5.631  17.751  0.00  0.00    +0.000 N 
ATOM     16  C   UNL     1       7.575   5.884  18.713  0.00  0.00    +0.000 A 
ATOM     17  C   UNL     1       8.018   7.160  18.446  0.00  0.00    +0.000 A 
ATOM     18  N   UNL     1       7.393   7.671  17.336  0.00  0.00    +0.000 NA
ATOM     19  C   UNL     1       6.583   6.721  16.929  0.00  0.00    +0.000 A 
ENDBRANCH  14  15
ENDBRANCH  13  14
ENDBRANCH  12  13
ENDBRANCH   7  12
TORSDOF 5
ENDMDL
MODEL 2
REMARK VINA RESULT:      -6.8      0.488      1.114
REMARK  Name = 
REMARK  8 active torsions:
REMARK  status: ('A' for Active; 'I' for Inactive)
REMARK    1  A    between atoms: C_1  and  C_2
REMARK    2  A    between atoms: C_2  and  C_3
REMARK    3  A    between atoms: C_2  and  C_4
REMARK    4  A    between atoms: C_2  and  C_5
REMARK    5  A    between atoms: C_11  and  O_12
REMARK    6  A    between atoms: O_12  and  C_13
REMARK    7  A    between atoms: C_13  and  C_14
REMARK    8  A    between atoms: C_14  and  N_15
REMARK                            x       y       z     vdW  Elec       q    Type
REMARK                         _______ _______ _______ _____ _____    ______ ____
ROOT
ATOM      1  C   UNL     1       2.657   4.603  19.638  0.00  0.00    +0.000 A 
ATOM      2  C   UNL     1       2.215   5.662  20.455  0.00  0.00    +0.000 A 
ATOM      3  C   UNL     1       2.087   6.962  19.964  0.00  0.00    +0.000 A 
ATOM      4 CL   UNL     1       1.474   8.211  20.977  0.00  0.00    +0.000 Cl
ATOM      5  C   UNL     1       2.414   7.248  18.654  0.00  0.00    +0.000 A 
ATOM      6  C   UNL     1       2.966   6.248  17.854  0.00  0.00    +0.000 A 
ATOM      7  C   UNL     1       3.152   4.953  18.348  0.00  0.00    +0.000 A 
ENDROOT
BRANCH   1   9
ATOM      8  C   UNL     1       3.840   2.356  20.266  0.00  0.00    +0.000 C 
ATOM      9  C   UNL     1       2.498   3.129  20.106  0.00  0.00    +0.000 C 
ATOM     10  C   UNL     1       1.615   2.334  19.115  0.00  0.00    +0.000 C 
ATOM     11  C   UNL     1       1.846   3.085  21.506  0.00  0.00    +0.000 C 
ENDBRANCH   1   9
BRANCH   7  12
ATOM     12  O   UNL     1       3.827   3.985  17.647  0.00  0.00    +0.000 OA
BRANCH  12  13
ATOM     13  C   UNL     1       5.144   4.245  17.152  0.00  0.00    +0.000 C 
BRANCH  13  14
ATOM     14  C   UNL     1       6.201   4.548  18.220  0.00  0.00    +0.000 C 
BRANCH  14  15
ATOM     15  N   UNL     1       6.827   5.847  18.086  0.00  0.00    +0.000 N 
ATOM     16  C   UNL     1       7.873   6.330  18.822  0.00  0.00    +0.000 A 
ATOM     17  C   UNL     1       8.157   7.557  18.267  0.00  0.00    +0.000 A 
ATOM     18  N   UNL     1       7.330   7.815  17.203  0.00  0.00    +0.000 NA
ATOM     19  C   UNL     1       6.554   6.759  17.107  0.00  0.00    +0.000 A 
ENDBRANCH  14  15
ENDBRANCH  13  14
ENDBRANCH  12  13
ENDBRANCH   7  12
TORSDOF 5
ENDMDL
MODEL 3
REMARK VINA RESULT:      -6.8      0.946      1.523
REMARK  Name = 
REMARK  8 active torsions:
REMARK  status: ('A' for Active; 'I' for Inactive)
REMARK    1  A    between atoms: C_1  and  C_2
REMARK    2  A    between atoms: C_2  and  C_3
REMARK    3  A    between atoms: C_2  and  C_4
REMARK    4  A    between atoms: C_2  and  C_5
REMARK    5  A    between atoms: C_11  and  O_12
REMARK    6  A    between atoms: O_12  and  C_13
REMARK    7  A    between atoms: C_13  and  C_14
REMARK    8  A    between atoms: C_14  and  N_15
REMARK                            x       y       z     vdW  Elec       q    Type
REMARK                         _______ _______ _______ _____ _____    ______ ____
ROOT
ATOM      1  C   UNL     1       2.974   4.428  19.562  0.00  0.00    +0.000 A 
ATOM      2  C   UNL     1       2.403   5.464  20.328  0.00  0.00    +0.000 A 
ATOM      3  C   UNL     1       2.256   6.756  19.820  0.00  0.00    +0.000 A 
ATOM      4 CL   UNL     1       1.488   7.972  20.764  0.00  0.00    +0.000 Cl
ATOM      5  C   UNL     1       2.692   7.058  18.546  0.00  0.00    +0.000 A 
ATOM      6  C   UNL     1       3.367   6.086  17.807  0.00  0.00    +0.000 A 
ATOM      7  C   UNL     1       3.570   4.803  18.323  0.00  0.00    +0.000 A 
ENDROOT
BRANCH   1   9
ATOM      8  C   UNL     1       2.114   2.759  21.382  0.00  0.00    +0.000 C 
ATOM      9  C   UNL     1       2.846   2.949  20.021  0.00  0.00    +0.000 C 
ATOM     10  C   UNL     1       4.241   2.291  20.144  0.00  0.00    +0.000 C 
ATOM     11  C   UNL     1       2.002   2.150  19.003  0.00  0.00    +0.000 C 
ENDBRANCH   1   9
BRANCH   7  12
ATOM     12  O   UNL     1       4.358   3.870  17.694  0.00  0.00    +0.000 OA
BRANCH  12  13
ATOM     13  C   UNL     1       4.839   4.114  16.369  0.00  0.00    +0.000 C 
BRANCH  13  14
ATOM     14  C   UNL     1       6.363   4.207  16.229  0.00  0.00    +0.000 C 
BRANCH  14  15
ATOM     15  N   UNL     1       6.977   5.209  17.073  0.00  0.00    +0.000 N 
ATOM     16  C   UNL     1       6.967   6.562  16.876  0.00  0.00    +0.000 A 
ATOM     17  C   UNL     1       7.601   7.084  17.981  0.00  0.00    +0.000 A 
ATOM     18  N   UNL     1       7.971   6.087  18.848  0.00  0.00    +0.000 NA
ATOM     19  C   UNL     1       7.564   4.972  18.284  0.00  0.00    +0.000 A 
ENDBRANCH  14  15
ENDBRANCH  13  14
ENDBRANCH  12  13
ENDBRANCH   7  12
TORSDOF 5
ENDMDL
MODEL 4
REMARK VINA RESULT:      -6.7      0.272      1.040
REMARK  Name = 
REMARK  8 active torsions:
REMARK  status: ('A' for Active; 'I' for Inactive)
REMARK    1  A    between atoms: C_1  and  C_2
REMARK    2  A    between atoms: C_2  and  C_3
REMARK    3  A    between atoms: C_2  and  C_4
REMARK    4  A    between atoms: C_2  and  C_5
REMARK    5  A    between atoms: C_11  and  O_12
REMARK    6  A    between atoms: O_12  and  C_13
REMARK    7  A    between atoms: C_13  and  C_14
REMARK    8  A    between atoms: C_14  and  N_15
REMARK                            x       y       z     vdW  Elec       q    Type
REMARK                         _______ _______ _______ _____ _____    ______ ____
ROOT
ATOM      1  C   UNL     1       2.223   4.610  19.512  0.00  0.00    +0.000 A 
ATOM      2  C   UNL     1       1.921   5.611  20.456  0.00  0.00    +0.000 A 
ATOM      3  C   UNL     1       1.947   6.966  20.122  0.00  0.00    +0.000 A 
ATOM      4 CL   UNL     1       1.503   8.151  21.289  0.00  0.00    +0.000 Cl
ATOM      5  C   UNL     1       2.293   7.363  18.847  0.00  0.00    +0.000 A 
ATOM      6  C   UNL     1       2.711   6.405  17.923  0.00  0.00    +0.000 A 
ATOM      7  C   UNL     1       2.742   5.048  18.259  0.00  0.00    +0.000 A 
ENDROOT
BRANCH   1   9
ATOM      8  C   UNL     1       1.228   2.876  21.198  0.00  0.00    +0.000 C 
ATOM      9  C   UNL     1       1.890   3.122  19.810  0.00  0.00    +0.000 C 
ATOM     10  C   UNL     1       3.167   2.251  19.741  0.00  0.00    +0.000 C 
ATOM     11  C   UNL     1       0.865   2.592  18.783  0.00  0.00    +0.000 C 
ENDBRANCH   1   9
BRANCH   7  12
ATOM     12  O   UNL     1       3.287   4.096  17.433  0.00  0.00    +0.000 OA
BRANCH  12  13
ATOM     13  C   UNL     1       4.524   4.352  16.762  0.00  0.00    +0.000 C 
BRANCH  13  14
ATOM     14  C   UNL     1       5.782   4.224  17.629  0.00  0.00    +0.000 C 
BRANCH  14  15
ATOM     15  N   UNL     1       6.581   5.429  17.697  0.00  0.00    +0.000 N 
ATOM     16  C   UNL     1       7.276   5.888  18.782  0.00  0.00    +0.000 A 
ATOM     17  C   UNL     1       7.936   7.008  18.329  0.00  0.00    +0.000 A 
ATOM     18  N   UNL     1       7.679   7.222  16.998  0.00  0.00    +0.000 NA
ATOM     19  C   UNL     1       6.877   6.244  16.642  0.00  0.00    +0.000 A 
ENDBRANCH  14  15
ENDBRANCH  13  14
ENDBRANCH  12  13
ENDBRANCH   7  12
TORSDOF 5
ENDMDL
MODEL 5
REMARK VINA RESULT:      -6.7      2.594      5.216
REMARK  Name = 
REMARK  8 active torsions:
REMARK  status: ('A' for Active; 'I' for Inactive)
REMARK    1  A    between atoms: C_1  and  C_2
REMARK    2  A    between atoms: C_2  and  C_3
REMARK    3  A    between atoms: C_2  and  C_4
REMARK    4  A    between atoms: C_2  and  C_5
REMARK    5  A    between atoms: C_11  and  O_12
REMARK    6  A    between atoms: O_12  and  C_13
REMARK    7  A    between atoms: C_13  and  C_14
REMARK    8  A    between atoms: C_14  and  N_15
REMARK                            x       y       z     vdW  Elec       q    Type
REMARK                         _______ _______ _______ _____ _____    ______ ____
ROOT
ATOM      1  C   UNL     1       4.843   6.119  17.452  0.00  0.00    +0.000 A 
ATOM      2  C   UNL     1       4.273   7.406  17.375  0.00  0.00    +0.000 A 
ATOM      3  C   UNL     1       2.974   7.660  17.815  0.00  0.00    +0.000 A 
ATOM      4 CL   UNL     1       2.345   9.261  17.767  0.00  0.00    +0.000 Cl
ATOM      5  C   UNL     1       2.198   6.639  18.325  0.00  0.00    +0.000 A 
ATOM      6  C   UNL     1       2.690   5.333  18.306  0.00  0.00    +0.000 A 
ATOM      7  C   UNL     1       3.970   5.054  17.818  0.00  0.00    +0.000 A 
ENDROOT
BRANCH   1   9
ATOM      8  C   UNL     1       7.036   4.957  18.278  0.00  0.00    +0.000 C 
ATOM      9  C   UNL     1       6.372   5.922  17.252  0.00  0.00    +0.000 C 
ATOM     10  C   UNL     1       7.113   7.277  17.338  0.00  0.00    +0.000 C 
ATOM     11  C   UNL     1       6.649   5.285  15.873  0.00  0.00    +0.000 C 
ENDBRANCH   1   9
BRANCH   7  12
ATOM     12  O   UNL     1       4.430   3.772  17.643  0.00  0.00    +0.000 OA
BRANCH  12  13
ATOM     13  C   UNL     1       3.503   2.695  17.474  0.00  0.00    +0.000 C 
BRANCH  13  14
ATOM     14  C   UNL     1       3.436   1.697  18.637  0.00  0.00    +0.000 C 
BRANCH  14  15
ATOM     15  N   UNL     1       2.788   2.211  19.825  0.00  0.00    +0.000 N 
ATOM     16  C   UNL     1       1.446   2.406  20.003  0.00  0.00    +0.000 A 
ATOM     17  C   UNL     1       1.322   2.822  21.310  0.00  0.00    +0.000 A 
ATOM     18  N   UNL     1       2.546   2.860  21.929  0.00  0.00    +0.000 NA
ATOM     19  C   UNL     1       3.405   2.468  21.015  0.00  0.00    +0.000 A 
ENDBRANCH  14  15
ENDBRANCH  13  14
ENDBRANCH  12  13
ENDBRANCH   7  12
TORSDOF 5
ENDMDL
MODEL 6
REMARK VINA RESULT:      -6.7      1.024      1.359
REMARK  Name = 
REMARK  8 active torsions:
REMARK  status: ('A' for Active; 'I' for Inactive)
REMARK    1  A    between atoms: C_1  and  C_2
REMARK    2  A    between atoms: C_2  and  C_3
REMARK    3  A    between atoms: C_2  and  C_4
REMARK    4  A    between atoms: C_2  and  C_5
REMARK    5  A    between atoms: C_11  and  O_12
REMARK    6  A    between atoms: O_12  and  C_13
REMARK    7  A    between atoms: C_13  and  C_14
REMARK    8  A    between atoms: C_14  and  N_15
REMARK                            x       y       z     vdW  Elec       q    Type
REMARK                         _______ _______ _______ _____ _____    ______ ____
ROOT
ATOM      1  C   UNL     1       3.023   4.471  18.965  0.00  0.00    +0.000 A 
ATOM      2  C   UNL     1       2.453   5.437  19.819  0.00  0.00    +0.000 A 
ATOM      3  C   UNL     1       2.423   6.790  19.478  0.00  0.00    +0.000 A 
ATOM      4 CL   UNL     1       1.654   7.924  20.519  0.00  0.00    +0.000 Cl
ATOM      5  C   UNL     1       2.976   7.223  18.290  0.00  0.00    +0.000 A 
ATOM      6  C   UNL     1       3.651   6.310  17.479  0.00  0.00    +0.000 A 
ATOM      7  C   UNL     1       3.737   4.960  17.833  0.00  0.00    +0.000 A 
ENDROOT
BRANCH   1   9
ATOM      8  C   UNL     1       1.646   2.651  20.243  0.00  0.00    +0.000 C 
ATOM      9  C   UNL     1       2.772   2.957  19.211  0.00  0.00    +0.000 C 
ATOM     10  C   UNL     1       4.062   2.263  19.709  0.00  0.00    +0.000 C 
ATOM     11  C   UNL     1       2.308   2.277  17.905  0.00  0.00    +0.000 C 
ENDBRANCH   1   9
BRANCH   7  12
ATOM     12  O   UNL     1       4.516   4.065  17.143  0.00  0.00    +0.000 OA
BRANCH  12  13
ATOM     13  C   UNL     1       5.145   4.456  15.918  0.00  0.00    +0.000 C 
BRANCH  13  14
ATOM     14  C   UNL     1       6.669   4.609  15.981  0.00  0.00    +0.000 C 
BRANCH  14  15
ATOM     15  N   UNL     1       7.144   5.362  17.123  0.00  0.00    +0.000 N 
ATOM     16  C   UNL     1       7.590   4.851  18.310  0.00  0.00    +0.000 A 
ATOM     17  C   UNL     1       8.006   5.947  19.032  0.00  0.00    +0.000 A 
ATOM     18  N   UNL     1       7.846   7.100  18.304  0.00  0.00    +0.000 NA
ATOM     19  C   UNL     1       7.343   6.713  17.153  0.00  0.00    +0.000 A 
ENDBRANCH  14  15
ENDBRANCH  13  14
ENDBRANCH  12  13
ENDBRANCH   7  12
TORSDOF 5
ENDMDL
MODEL 7
REMARK VINA RESULT:      -6.6      1.738      2.221
REMARK  Name = 
REMARK  8 active torsions:
REMARK  status: ('A' for Active; 'I' for Inactive)
REMARK    1  A    between atoms: C_1  and  C_2
REMARK    2  A    between atoms: C_2  and  C_3
REMARK    3  A    between atoms: C_2  and  C_4
REMARK    4  A    between atoms: C_2  and  C_5
REMARK    5  A    between atoms: C_11  and  O_12
REMARK    6  A    between atoms: O_12  and  C_13
REMARK    7  A    between atoms: C_13  and  C_14
REMARK    8  A    between atoms: C_14  and  N_15
REMARK                            x       y       z     vdW  Elec       q    Type
REMARK                         _______ _______ _______ _____ _____    ______ ____
ROOT
ATOM      1  C   UNL     1       2.192   5.142  19.525  0.00  0.00    +0.000 A 
ATOM      2  C   UNL     1       1.832   6.012  20.574  0.00  0.00    +0.000 A 
ATOM      3  C   UNL     1       1.763   7.394  20.388  0.00  0.00    +0.000 A 
ATOM      4 CL   UNL     1       1.251   8.412  21.677  0.00  0.00    +0.000 Cl
ATOM      5  C   UNL     1       2.069   7.949  19.163  0.00  0.00    +0.000 A 
ATOM      6  C   UNL     1       2.541   7.127  18.139  0.00  0.00    +0.000 A 
ATOM      7  C   UNL     1       2.667   5.747  18.326  0.00  0.00    +0.000 A 
ENDROOT
BRANCH   1   9
ATOM      8  C   UNL     1       1.332   2.941  18.404  0.00  0.00    +0.000 C 
ATOM      9  C   UNL     1       1.963   3.611  19.661  0.00  0.00    +0.000 C 
ATOM     10  C   UNL     1       1.045   3.300  20.867  0.00  0.00    +0.000 C 
ATOM     11  C   UNL     1       3.314   2.888  19.858  0.00  0.00    +0.000 C 
ENDBRANCH   1   9
BRANCH   7  12
ATOM     12  O   UNL     1       3.267   4.929  17.401  0.00  0.00    +0.000 OA
BRANCH  12  13
ATOM     13  C   UNL     1       4.694   4.859  17.323  0.00  0.00    +0.000 C 
BRANCH  13  14
ATOM     14  C   UNL     1       5.251   3.739  16.436  0.00  0.00    +0.000 C 
BRANCH  14  15
ATOM     15  N   UNL     1       6.121   4.199  15.374  0.00  0.00    +0.000 N 
ATOM     16  C   UNL     1       6.021   3.893  14.045  0.00  0.00    +0.000 A 
ATOM     17  C   UNL     1       7.011   4.631  13.438  0.00  0.00    +0.000 A 
ATOM     18  N   UNL     1       7.688   5.391  14.359  0.00  0.00    +0.000 NA
ATOM     19  C   UNL     1       7.116   5.124  15.511  0.00  0.00    +0.000 A 
ENDBRANCH  14  15
ENDBRANCH  13  14
ENDBRANCH  12  13
ENDBRANCH   7  12
TORSDOF 5
ENDMDL
MODEL 8
REMARK VINA RESULT:      -6.6      1.767      2.427
REMARK  Name = 
REMARK  8 active torsions:
REMARK  status: ('A' for Active; 'I' for Inactive)
REMARK    1  A    between atoms: C_1  and  C_2
REMARK    2  A    between atoms: C_2  and  C_3
REMARK    3  A    between atoms: C_2  and  C_4
REMARK    4  A    between atoms: C_2  and  C_5
REMARK    5  A    between atoms: C_11  and  O_12
REMARK    6  A    between atoms: O_12  and  C_13
REMARK    7  A    between atoms: C_13  and  C_14
REMARK    8  A    between atoms: C_14  and  N_15
REMARK                            x       y       z     vdW  Elec       q    Type
REMARK                         _______ _______ _______ _____ _____    ______ ____
ROOT
ATOM      1  C   UNL     1       2.163   5.262  19.549  0.00  0.00    +0.000 A 
ATOM      2  C   UNL     1       1.806   6.120  20.608  0.00  0.00    +0.000 A 
ATOM      3  C   UNL     1       1.718   7.502  20.434  0.00  0.00    +0.000 A 
ATOM      4 CL   UNL     1       1.209   8.505  21.736  0.00  0.00    +0.000 Cl
ATOM      5  C   UNL     1       2.001   8.070  19.208  0.00  0.00    +0.000 A 
ATOM      6  C   UNL     1       2.471   7.261  18.173  0.00  0.00    +0.000 A 
ATOM      7  C   UNL     1       2.617   5.881  18.349  0.00  0.00    +0.000 A 
ENDROOT
BRANCH   1   9
ATOM      8  C   UNL     1       1.055   3.297  20.873  0.00  0.00    +0.000 C 
ATOM      9  C   UNL     1       1.955   3.727  19.676  0.00  0.00    +0.000 C 
ATOM     10  C   UNL     1       3.313   3.002  19.829  0.00  0.00    +0.000 C 
ATOM     11  C   UNL     1       1.234   3.183  18.423  0.00  0.00    +0.000 C 
ENDBRANCH   1   9
BRANCH   7  12
ATOM     12  O   UNL     1       3.215   5.077  17.410  0.00  0.00    +0.000 OA
BRANCH  12  13
ATOM     13  C   UNL     1       4.640   5.064  17.280  0.00  0.00    +0.000 C 
BRANCH  13  14
ATOM     14  C   UNL     1       5.218   3.880  16.497  0.00  0.00    +0.000 C 
BRANCH  14  15
ATOM     15  N   UNL     1       6.097   4.258  15.410  0.00  0.00    +0.000 N 
ATOM     16  C   UNL     1       5.948   3.939  14.089  0.00  0.00    +0.000 A 
ATOM     17  C   UNL     1       6.977   4.593  13.450  0.00  0.00    +0.000 A 
ATOM     18  N   UNL     1       7.726   5.315  14.345  0.00  0.00    +0.000 NA
ATOM     19  C   UNL     1       7.160   5.109  15.513  0.00  0.00    +0.000 A 
ENDBRANCH  14  15
ENDBRANCH  13  14
ENDBRANCH  12  13
ENDBRANCH   7  12
TORSDOF 5
ENDMDL
MODEL 9
REMARK VINA RESULT:      -6.5      3.750      6.475
REMARK  Name = 
REMARK  8 active torsions:
REMARK  status: ('A' for Active; 'I' for Inactive)
REMARK    1  A    between atoms: C_1  and  C_2
REMARK    2  A    between atoms: C_2  and  C_3
REMARK    3  A    between atoms: C_2  and  C_4
REMARK    4  A    between atoms: C_2  and  C_5
REMARK    5  A    between atoms: C_11  and  O_12
REMARK    6  A    between atoms: O_12  and  C_13
REMARK    7  A    between atoms: C_13  and  C_14
REMARK    8  A    between atoms: C_14  and  N_15
REMARK                            x       y       z     vdW  Elec       q    Type
REMARK                         _______ _______ _______ _____ _____    ______ ____
ROOT
ATOM      1  C   UNL     1       6.372   5.266  16.432  0.00  0.00    +0.000 A 
ATOM      2  C   UNL     1       7.167   5.565  15.307  0.00  0.00    +0.000 A 
ATOM      3  C   UNL     1       6.996   4.901  14.092  0.00  0.00    +0.000 A 
ATOM      4 CL   UNL     1       7.941   5.347  12.725  0.00  0.00    +0.000 Cl
ATOM      5  C   UNL     1       6.044   3.910  13.966  0.00  0.00    +0.000 A 
ATOM      6  C   UNL     1       5.323   3.509  15.091  0.00  0.00    +0.000 A 
ATOM      7  C   UNL     1       5.521   4.128  16.330  0.00  0.00    +0.000 A 
ENDROOT
BRANCH   1   9
ATOM      8  C   UNL     1       6.652   5.508  19.021  0.00  0.00    +0.000 C 
ATOM      9  C   UNL     1       6.364   6.214  17.663  0.00  0.00    +0.000 C 
ATOM     10  C   UNL     1       5.001   6.934  17.790  0.00  0.00    +0.000 C 
ATOM     11  C   UNL     1       7.480   7.274  17.525  0.00  0.00    +0.000 C 
ENDBRANCH   1   9
BRANCH   7  12
ATOM     12  O   UNL     1       4.945   3.665  17.487  0.00  0.00    +0.000 OA
BRANCH  12  13
ATOM     13  C   UNL     1       3.536   3.422  17.539  0.00  0.00    +0.000 C 
BRANCH  13  14
ATOM     14  C   UNL     1       3.110   2.183  18.336  0.00  0.00    +0.000 C 
BRANCH  14  15
ATOM     15  N   UNL     1       2.602   2.474  19.660  0.00  0.00    +0.000 N 
ATOM     16  C   UNL     1       1.299   2.708  20.002  0.00  0.00    +0.000 A 
ATOM     17  C   UNL     1       1.314   2.847  21.372  0.00  0.00    +0.000 A 
ATOM     18  N   UNL     1       2.583   2.680  21.866  0.00  0.00    +0.000 NA
ATOM     19  C   UNL     1       3.332   2.437  20.814  0.00  0.00    +0.000 A 
ENDBRANCH  14  15
ENDBRANCH  13  14
ENDBRANCH  12  13
ENDBRANCH   7  12
TORSDOF 5
ENDMDL
