MODEL 1
REMARK VINA RESULT:      -8.4      0.000      0.000
REMARK  Name = 
REMARK  9 active torsions:
REMARK  status: ('A' for Active; 'I' for Inactive)
REMARK    1  A    between atoms: C_1  and  O_2
REMARK    2  A    between atoms: O_2  and  C_3
REMARK    3  A    between atoms: C_5  and  C_6
REMARK    4  A    between atoms: C_6  and  C_8
REMARK    5  A    between atoms: C_11  and  C_12
REMARK    6  A    between atoms: C_21  and  O_22
REMARK    7  A    between atoms: O_22  and  C_23
REMARK    8  A    between atoms: C_24  and  O_25
REMARK    9  A    between atoms: O_25  and  C_26
REMARK                            x       y       z     vdW  Elec       q    Type
REMARK                         _______ _______ _______ _____ _____    ______ ____
ROOT
ATOM      1  C   UNL     1       6.365   6.005  16.605  0.00  0.00    +0.000 C 
ATOM      2  O   UNL     1       6.737   5.661  15.482  0.00  0.00    +0.000 OA
ENDROOT
BRANCH   1   5
ATOM      3  C   UNL     1       2.886   6.185  18.102  0.00  0.00    +0.000 A 
ATOM      4  C   UNL     1       4.183   6.511  17.673  0.00  0.00    +0.000 A 
ATOM      5  C   UNL     1       5.018   5.560  17.072  0.00  0.00    +0.000 A 
ATOM      6  C   UNL     1       4.564   4.248  16.987  0.00  0.00    +0.000 A 
ATOM      7  C   UNL     1       3.295   3.889  17.460  0.00  0.00    +0.000 A 
ATOM      8  C   UNL     1       2.439   4.850  18.039  0.00  0.00    +0.000 A 
BRANCH   3  10
ATOM      9  C   UNL     1       2.063   8.405  17.929  0.00  0.00    +0.000 C 
ATOM     10  O   UNL     1       2.070   7.156  18.624  0.00  0.00    +0.000 OA
ENDBRANCH   3  10
BRANCH   7  11
ATOM     11  O   UNL     1       3.059   2.539  17.343  0.00  0.00    +0.000 OA
ATOM     12  C   UNL     1       3.612   1.697  18.345  0.00  0.00    +0.000 C 
ENDBRANCH   7  11
BRANCH   8  13
ATOM     13  O   UNL     1       1.247   4.363  18.501  0.00  0.00    +0.000 OA
ATOM     14  C   UNL     1       1.091   3.962  19.850  0.00  0.00    +0.000 C 
ENDBRANCH   8  13
ENDBRANCH   1   5
BRANCH   1  15
ATOM     15  C   UNL     1       7.203   6.861  17.442  0.00  0.00    +0.000 A 
ATOM     16  C   UNL     1       7.879   6.428  18.568  0.00  0.00    +0.000 A 
ATOM     17  N   UNL     1       8.551   7.516  19.035  0.00  0.00    +0.000 N 
ATOM     18  C   UNL     1       8.256   8.589  18.228  0.00  0.00    +0.000 A 
ATOM     19  N   UNL     1       7.423   8.216  17.271  0.00  0.00    +0.000 NA
ATOM     20  H   UNL     1       9.137   7.548  19.856  0.00  0.00    +0.000 HD
BRANCH  18  21
ATOM     21  C   UNL     1       8.774   9.940  18.473  0.00  0.00    +0.000 A 
ATOM     22  C   UNL     1       9.555  10.227  19.606  0.00  0.00    +0.000 A 
ATOM     23  C   UNL     1       9.992  11.531  19.862  0.00  0.00    +0.000 A 
ATOM     24  C   UNL     1       9.655  12.558  18.983  0.00  0.00    +0.000 A 
ATOM     25 CL   UNL     1      10.165  14.166  19.321  0.00  0.00    +0.000 Cl
ATOM     26  C   UNL     1       8.906  12.289  17.840  0.00  0.00    +0.000 A 
ATOM     27  C   UNL     1       8.471  10.982  17.586  0.00  0.00    +0.000 A 
ENDBRANCH  18  21
ENDBRANCH   1  15
TORSDOF 6
ENDMDL
MODEL 2
REMARK VINA RESULT:      -8.3      0.216      2.696
REMARK  Name = 
REMARK  9 active torsions:
REMARK  status: ('A' for Active; 'I' for Inactive)
REMARK    1  A    between atoms: C_1  and  O_2
REMARK    2  A    between atoms: O_2  and  C_3
REMARK    3  A    between atoms: C_5  and  C_6
REMARK    4  A    between atoms: C_6  and  C_8
REMARK    5  A    between atoms: C_11  and  C_12
REMARK    6  A    between atoms: C_21  and  O_22
REMARK    7  A    between atoms: O_22  and  C_23
REMARK    8  A    between atoms: C_24  and  O_25
REMARK    9  A    between atoms: O_25  and  C_26
REMARK                            x       y       z     vdW  Elec       q    Type
REMARK                         _______ _______ _______ _____ _____    ______ ____
ROOT
ATOM      1  C   UNL     1       6.424   6.125  16.657  0.00  0.00    +0.000 C 
ATOM      2  O   UNL     1       6.774   5.812  15.518  0.00  0.00    +0.000 OA
ENDROOT
BRANCH   1   5
ATOM      3  C   UNL     1       3.563   3.773  17.473  0.00  0.00    +0.000 A 
ATOM      4  C   UNL     1       4.778   4.300  17.005  0.00  0.00    +0.000 A 
ATOM      5  C   UNL     1       5.090   5.659  17.142  0.00  0.00    +0.000 A 
ATOM      6  C   UNL     1       4.124   6.504  17.678  0.00  0.00    +0.000 A 
ATOM      7  C   UNL     1       2.882   6.008  18.100  0.00  0.00    +0.000 A 
ATOM      8  C   UNL     1       2.576   4.635  17.991  0.00  0.00    +0.000 A 
BRANCH   3  10
ATOM      9  C   UNL     1       3.626   1.658  18.549  0.00  0.00    +0.000 C 
ATOM     10  O   UNL     1       3.318   2.426  17.384  0.00  0.00    +0.000 OA
ENDBRANCH   3  10
BRANCH   7  11
ATOM     11  O   UNL     1       2.046   7.008  18.540  0.00  0.00    +0.000 OA
ATOM     12  C   UNL     1       2.201   8.289  17.945  0.00  0.00    +0.000 C 
ENDBRANCH   7  11
BRANCH   8  13
ATOM     13  O   UNL     1       1.316   4.288  18.396  0.00  0.00    +0.000 OA
ATOM     14  C   UNL     1       1.052   3.924  19.739  0.00  0.00    +0.000 C 
ENDBRANCH   8  13
ENDBRANCH   1   5
BRANCH   1  15
ATOM     15  C   UNL     1       7.273   6.966  17.498  0.00  0.00    +0.000 A 
ATOM     16  C   UNL     1       7.981   6.509  18.595  0.00  0.00    +0.000 A 
ATOM     17  N   UNL     1       8.654   7.590  19.075  0.00  0.00    +0.000 N 
ATOM     18  C   UNL     1       8.330   8.682  18.306  0.00  0.00    +0.000 A 
ATOM     19  N   UNL     1       7.477   8.327  17.359  0.00  0.00    +0.000 NA
ATOM     20  H   UNL     1       9.259   7.605  19.883  0.00  0.00    +0.000 HD
BRANCH  18  21
ATOM     21  C   UNL     1       8.840  10.031  18.577  0.00  0.00    +0.000 A 
ATOM     22  C   UNL     1       8.712  11.062  17.631  0.00  0.00    +0.000 A 
ATOM     23  C   UNL     1       9.255  12.328  17.875  0.00  0.00    +0.000 A 
ATOM     24  C   UNL     1       9.928  12.574  19.070  0.00  0.00    +0.000 A 
ATOM     25 CL   UNL     1      10.625  14.121  19.350  0.00  0.00    +0.000 Cl
ATOM     26  C   UNL     1      10.041  11.572  20.031  0.00  0.00    +0.000 A 
ATOM     27  C   UNL     1       9.494  10.306  19.785  0.00  0.00    +0.000 A 
ENDBRANCH  18  21
ENDBRANCH   1  15
TORSDOF 6
ENDMDL
MODEL 3
REMARK VINA RESULT:      -8.0      0.510      2.559
REMARK  Name = 
REMARK  9 active torsions:
REMARK  status: ('A' for Active; 'I' for Inactive)
REMARK    1  A    between atoms: C_1  and  O_2
REMARK    2  A    between atoms: O_2  and  C_3
REMARK    3  A    between atoms: C_5  and  C_6
REMARK    4  A    between atoms: C_6  and  C_8
REMARK    5  A    between atoms: C_11  and  C_12
REMARK    6  A    between atoms: C_21  and  O_22
REMARK    7  A    between atoms: O_22  and  C_23
REMARK    8  A    between atoms: C_24  and  O_25
REMARK    9  A    between atoms: O_25  and  C_26
REMARK                            x       y       z     vdW  Elec       q    Type
REMARK                         _______ _______ _______ _____ _____    ______ ____
ROOT
ATOM      1  C   UNL     1       6.019   6.422  16.656  0.00  0.00    +0.000 C 
ATOM      2  O   UNL     1       6.181   6.293  15.441  0.00  0.00    +0.000 OA
ENDROOT
BRANCH   1   5
ATOM      3  C   UNL     1       3.233   4.006  17.540  0.00  0.00    +0.000 A 
ATOM      4  C   UNL     1       4.383   4.584  16.977  0.00  0.00    +0.000 A 
ATOM      5  C   UNL     1       4.756   5.903  17.262  0.00  0.00    +0.000 A 
ATOM      6  C   UNL     1       3.907   6.670  18.054  0.00  0.00    +0.000 A 
ATOM      7  C   UNL     1       2.726   6.130  18.580  0.00  0.00    +0.000 A 
ATOM      8  C   UNL     1       2.361   4.792  18.320  0.00  0.00    +0.000 A 
BRANCH   3  10
ATOM      9  C   UNL     1       3.486   1.743  18.211  0.00  0.00    +0.000 C 
ATOM     10  O   UNL     1       2.934   2.690  17.294  0.00  0.00    +0.000 OA
ENDBRANCH   3  10
BRANCH   7  11
ATOM     11  O   UNL     1       1.996   7.062  19.282  0.00  0.00    +0.000 OA
ATOM     12  C   UNL     1       1.938   8.376  18.743  0.00  0.00    +0.000 C 
ENDBRANCH   7  11
BRANCH   8  13
ATOM     13  O   UNL     1       1.164   4.402  18.855  0.00  0.00    +0.000 OA
ATOM     14  C   UNL     1       1.077   3.916  20.182  0.00  0.00    +0.000 C 
ENDBRANCH   8  13
ENDBRANCH   1   5
BRANCH   1  15
ATOM     15  C   UNL     1       7.019   7.103  17.477  0.00  0.00    +0.000 A 
ATOM     16  C   UNL     1       7.769   6.486  18.461  0.00  0.00    +0.000 A 
ATOM     17  N   UNL     1       8.586   7.454  18.961  0.00  0.00    +0.000 N 
ATOM     18  C   UNL     1       8.308   8.635  18.315  0.00  0.00    +0.000 A 
ATOM     19  N   UNL     1       7.345   8.446  17.429  0.00  0.00    +0.000 NA
ATOM     20  H   UNL     1       9.258   7.340  19.705  0.00  0.00    +0.000 HD
BRANCH  18  21
ATOM     21  C   UNL     1       8.973   9.902  18.644  0.00  0.00    +0.000 A 
ATOM     22  C   UNL     1       9.282  10.239  19.973  0.00  0.00    +0.000 A 
ATOM     23  C   UNL     1       9.861  11.475  20.280  0.00  0.00    +0.000 A 
ATOM     24  C   UNL     1      10.139  12.382  19.259  0.00  0.00    +0.000 A 
ATOM     25 CL   UNL     1      10.818  13.914  19.647  0.00  0.00    +0.000 Cl
ATOM     26  C   UNL     1       9.865  12.054  17.934  0.00  0.00    +0.000 A 
ATOM     27  C   UNL     1       9.288  10.815  17.629  0.00  0.00    +0.000 A 
ENDBRANCH  18  21
ENDBRANCH   1  15
TORSDOF 6
ENDMDL
MODEL 4
REMARK VINA RESULT:      -7.5      3.734      6.832
REMARK  Name = 
REMARK  9 active torsions:
REMARK  status: ('A' for Active; 'I' for Inactive)
REMARK    1  A    between atoms: C_1  and  O_2
REMARK    2  A    between atoms: O_2  and  C_3
REMARK    3  A    between atoms: C_5  and  C_6
REMARK    4  A    between atoms: C_6  and  C_8
REMARK    5  A    between atoms: C_11  and  C_12
REMARK    6  A    between atoms: C_21  and  O_22
REMARK    7  A    between atoms: O_22  and  C_23
REMARK    8  A    between atoms: C_24  and  O_25
REMARK    9  A    between atoms: O_25  and  C_26
REMARK                            x       y       z     vdW  Elec       q    Type
REMARK                         _______ _______ _______ _____ _____    ______ ____
ROOT
ATOM      1  C   UNL     1       3.887   4.022  17.497  0.00  0.00    +0.000 C 
ATOM      2  O   UNL     1       3.445   2.873  17.435  0.00  0.00    +0.000 OA
ENDROOT
BRANCH   1   5
ATOM      3  C   UNL     1       6.190   3.959  14.485  0.00  0.00    +0.000 A 
ATOM      4  C   UNL     1       5.190   3.643  15.420  0.00  0.00    +0.000 A 
ATOM      5  C   UNL     1       5.003   4.403  16.581  0.00  0.00    +0.000 A 
ATOM      6  C   UNL     1       5.895   5.439  16.839  0.00  0.00    +0.000 A 
ATOM      7  C   UNL     1       6.935   5.737  15.947  0.00  0.00    +0.000 A 
ATOM      8  C   UNL     1       7.108   4.992  14.761  0.00  0.00    +0.000 A 
BRANCH   3  10
ATOM      9  C   UNL     1       5.265   3.437  12.362  0.00  0.00    +0.000 C 
ATOM     10  O   UNL     1       6.301   3.236  13.325  0.00  0.00    +0.000 OA
ENDBRANCH   3  10
BRANCH   7  11
ATOM     11  O   UNL     1       7.741   6.750  16.410  0.00  0.00    +0.000 OA
ATOM     12  C   UNL     1       7.445   7.275  17.697  0.00  0.00    +0.000 C 
ENDBRANCH   7  11
BRANCH   8  13
ATOM     13  O   UNL     1       8.185   5.355  14.000  0.00  0.00    +0.000 OA
ATOM     14  C   UNL     1       8.026   5.780  12.658  0.00  0.00    +0.000 C 
ENDBRANCH   8  13
ENDBRANCH   1   5
BRANCH   1  15
ATOM     15  C   UNL     1       3.360   4.976  18.472  0.00  0.00    +0.000 A 
ATOM     16  C   UNL     1       3.339   4.763  19.838  0.00  0.00    +0.000 A 
ATOM     17  N   UNL     1       2.798   5.890  20.377  0.00  0.00    +0.000 N 
ATOM     18  C   UNL     1       2.466   6.746  19.355  0.00  0.00    +0.000 A 
ATOM     19  N   UNL     1       2.778   6.200  18.192  0.00  0.00    +0.000 NA
ATOM     20  H   UNL     1       2.629   6.059  21.358  0.00  0.00    +0.000 HD
BRANCH  18  21
ATOM     21  C   UNL     1       1.810   8.040  19.577  0.00  0.00    +0.000 A 
ATOM     22  C   UNL     1       1.701   8.988  18.545  0.00  0.00    +0.000 A 
ATOM     23  C   UNL     1       1.128  10.242  18.784  0.00  0.00    +0.000 A 
ATOM     24  C   UNL     1       0.654  10.555  20.057  0.00  0.00    +0.000 A 
ATOM     25 CL   UNL     1      -0.017  12.110  20.354  0.00  0.00    +0.000 Cl
ATOM     26  C   UNL     1       0.728   9.618  21.084  0.00  0.00    +0.000 A 
ATOM     27  C   UNL     1       1.300   8.363  20.841  0.00  0.00    +0.000 A 
ENDBRANCH  18  21
ENDBRANCH   1  15
TORSDOF 6
ENDMDL
MODEL 5
REMARK VINA RESULT:      -7.5      0.854      1.274
REMARK  Name = 
REMARK  9 active torsions:
REMARK  status: ('A' for Active; 'I' for Inactive)
REMARK    1  A    between atoms: C_1  and  O_2
REMARK    2  A    between atoms: O_2  and  C_3
REMARK    3  A    between atoms: C_5  and  C_6
REMARK    4  A    between atoms: C_6  and  C_8
REMARK    5  A    between atoms: C_11  and  C_12
REMARK    6  A    between atoms: C_21  and  O_22
REMARK    7  A    between atoms: O_22  and  C_23
REMARK    8  A    between atoms: C_24  and  O_25
REMARK    9  A    between atoms: O_25  and  C_26
REMARK                            x       y       z     vdW  Elec       q    Type
REMARK                         _______ _______ _______ _____ _____    ______ ____
ROOT
ATOM      1  C   UNL     1       6.097   6.449  16.747  0.00  0.00    +0.000 C 
ATOM      2  O   UNL     1       6.190   6.352  15.522  0.00  0.00    +0.000 OA
ENDROOT
BRANCH   1   5
ATOM      3  C   UNL     1       2.755   6.090  18.502  0.00  0.00    +0.000 A 
ATOM      4  C   UNL     1       3.903   6.623  17.891  0.00  0.00    +0.000 A 
ATOM      5  C   UNL     1       4.934   5.800  17.424  0.00  0.00    +0.000 A 
ATOM      6  C   UNL     1       4.841   4.432  17.657  0.00  0.00    +0.000 A 
ATOM      7  C   UNL     1       3.731   3.884  18.314  0.00  0.00    +0.000 A 
ATOM      8  C   UNL     1       2.675   4.707  18.761  0.00  0.00    +0.000 A 
BRANCH   3  10
ATOM      9  C   UNL     1       1.928   7.622  20.116  0.00  0.00    +0.000 C 
ATOM     10  O   UNL     1       1.732   6.919  18.887  0.00  0.00    +0.000 OA
ENDBRANCH   3  10
BRANCH   7  11
ATOM     11  O   UNL     1       3.856   2.528  18.503  0.00  0.00    +0.000 OA
ATOM     12  C   UNL     1       4.375   2.094  19.753  0.00  0.00    +0.000 C 
ENDBRANCH   7  11
BRANCH   8  13
ATOM     13  O   UNL     1       1.672   4.055  19.426  0.00  0.00    +0.000 OA
ATOM     14  C   UNL     1       0.783   3.189  18.745  0.00  0.00    +0.000 C 
ENDBRANCH   8  13
ENDBRANCH   1   5
BRANCH   1  15
ATOM     15  C   UNL     1       7.078   7.215  17.514  0.00  0.00    +0.000 A 
ATOM     16  C   UNL     1       7.893   6.678  18.493  0.00  0.00    +0.000 A 
ATOM     17  N   UNL     1       8.665   7.708  18.936  0.00  0.00    +0.000 N 
ATOM     18  C   UNL     1       8.295   8.849  18.263  0.00  0.00    +0.000 A 
ATOM     19  N   UNL     1       7.320   8.574  17.414  0.00  0.00    +0.000 NA
ATOM     20  H   UNL     1       9.364   7.660  19.662  0.00  0.00    +0.000 HD
BRANCH  18  21
ATOM     21  C   UNL     1       8.891  10.163  18.531  0.00  0.00    +0.000 A 
ATOM     22  C   UNL     1       8.725  11.234  17.636  0.00  0.00    +0.000 A 
ATOM     23  C   UNL     1       9.348  12.465  17.871  0.00  0.00    +0.000 A 
ATOM     24  C   UNL     1      10.137  12.635  19.007  0.00  0.00    +0.000 A 
ATOM     25 CL   UNL     1      10.929  14.139  19.272  0.00  0.00    +0.000 Cl
ATOM     26  C   UNL     1      10.290  11.594  19.919  0.00  0.00    +0.000 A 
ATOM     27  C   UNL     1       9.664  10.364  19.682  0.00  0.00    +0.000 A 
ENDBRANCH  18  21
ENDBRANCH   1  15
TORSDOF 6
ENDMDL
MODEL 6
REMARK VINA RESULT:      -7.3      1.697      2.424
REMARK  Name = 
REMARK  9 active torsions:
REMARK  status: ('A' for Active; 'I' for Inactive)
REMARK    1  A    between atoms: C_1  and  O_2
REMARK    2  A    between atoms: O_2  and  C_3
REMARK    3  A    between atoms: C_5  and  C_6
REMARK    4  A    between atoms: C_6  and  C_8
REMARK    5  A    between atoms: C_11  and  C_12
REMARK    6  A    between atoms: C_21  and  O_22
REMARK    7  A    between atoms: O_22  and  C_23
REMARK    8  A    between atoms: C_24  and  O_25
REMARK    9  A    between atoms: O_25  and  C_26
REMARK                            x       y       z     vdW  Elec       q    Type
REMARK                         _______ _______ _______ _____ _____    ______ ____
ROOT
ATOM      1  C   UNL     1       7.634   5.896  18.791  0.00  0.00    +0.000 C 
ATOM      2  O   UNL     1       8.435   5.206  19.424  0.00  0.00    +0.000 OA
ENDROOT
BRANCH   1   5
ATOM      3  C   UNL     1       4.119   4.480  18.942  0.00  0.00    +0.000 A 
ATOM      4  C   UNL     1       5.363   5.031  19.293  0.00  0.00    +0.000 A 
ATOM      5  C   UNL     1       6.358   5.265  18.337  0.00  0.00    +0.000 A 
ATOM      6  C   UNL     1       6.122   4.854  17.029  0.00  0.00    +0.000 A 
ATOM      7  C   UNL     1       4.910   4.250  16.668  0.00  0.00    +0.000 A 
ATOM      8  C   UNL     1       3.892   4.041  17.623  0.00  0.00    +0.000 A 
BRANCH   3  10
ATOM      9  C   UNL     1       2.296   5.461  20.105  0.00  0.00    +0.000 C 
ATOM     10  O   UNL     1       3.141   4.328  19.892  0.00  0.00    +0.000 OA
ENDBRANCH   3  10
BRANCH   7  11
ATOM     11  O   UNL     1       4.895   3.862  15.349  0.00  0.00    +0.000 OA
ATOM     12  C   UNL     1       6.128   3.922  14.644  0.00  0.00    +0.000 C 
ENDBRANCH   7  11
BRANCH   8  13
ATOM     13  O   UNL     1       2.777   3.403  17.152  0.00  0.00    +0.000 OA
ATOM     14  C   UNL     1       2.382   2.143  17.662  0.00  0.00    +0.000 C 
ENDBRANCH   8  13
ENDBRANCH   1   5
BRANCH   1  15
ATOM     15  C   UNL     1       7.942   7.285  18.456  0.00  0.00    +0.000 A 
ATOM     16  C   UNL     1       7.470   7.939  17.334  0.00  0.00    +0.000 A 
ATOM     17  N   UNL     1       7.964   9.205  17.411  0.00  0.00    +0.000 N 
ATOM     18  C   UNL     1       8.745   9.300  18.538  0.00  0.00    +0.000 A 
ATOM     19  N   UNL     1       8.762   8.140  19.171  0.00  0.00    +0.000 NA
ATOM     20  H   UNL     1       7.817   9.944  16.739  0.00  0.00    +0.000 HD
BRANCH  18  21
ATOM     21  C   UNL     1       9.477  10.519  18.903  0.00  0.00    +0.000 A 
ATOM     22  C   UNL     1       9.627  10.903  20.247  0.00  0.00    +0.000 A 
ATOM     23  C   UNL     1      10.274  12.098  20.580  0.00  0.00    +0.000 A 
ATOM     24  C   UNL     1      10.781  12.915  19.572  0.00  0.00    +0.000 A 
ATOM     25 CL   UNL     1      11.544  14.400  19.986  0.00  0.00    +0.000 Cl
ATOM     26  C   UNL     1      10.667  12.537  18.236  0.00  0.00    +0.000 A 
ATOM     27  C   UNL     1      10.020  11.339  17.906  0.00  0.00    +0.000 A 
ENDBRANCH  18  21
ENDBRANCH   1  15
TORSDOF 6
ENDMDL
MODEL 7
REMARK VINA RESULT:      -7.3      5.484      8.367
REMARK  Name = 
REMARK  9 active torsions:
REMARK  status: ('A' for Active; 'I' for Inactive)
REMARK    1  A    between atoms: C_1  and  O_2
REMARK    2  A    between atoms: O_2  and  C_3
REMARK    3  A    between atoms: C_5  and  C_6
REMARK    4  A    between atoms: C_6  and  C_8
REMARK    5  A    between atoms: C_11  and  C_12
REMARK    6  A    between atoms: C_21  and  O_22
REMARK    7  A    between atoms: O_22  and  C_23
REMARK    8  A    between atoms: C_24  and  O_25
REMARK    9  A    between atoms: O_25  and  C_26
REMARK                            x       y       z     vdW  Elec       q    Type
REMARK                         _______ _______ _______ _____ _____    ______ ____
ROOT
ATOM      1  C   UNL     1       0.755  10.781  18.808  0.00  0.00    +0.000 C 
ATOM      2  O   UNL     1       1.398  11.820  18.966  0.00  0.00    +0.000 OA
ENDROOT
BRANCH   1   5
ATOM      3  C   UNL     1      -2.865  11.838  19.208  0.00  0.00    +0.000 A 
ATOM      4  C   UNL     1      -1.487  11.652  19.415  0.00  0.00    +0.000 A 
ATOM      5  C   UNL     1      -0.710  10.887  18.537  0.00  0.00    +0.000 A 
ATOM      6  C   UNL     1      -1.351  10.233  17.491  0.00  0.00    +0.000 A 
ATOM      7  C   UNL     1      -2.734  10.358  17.298  0.00  0.00    +0.000 A 
ATOM      8  C   UNL     1      -3.517  11.153  18.163  0.00  0.00    +0.000 A 
BRANCH   3  10
ATOM      9  C   UNL     1      -3.069  12.787  21.374  0.00  0.00    +0.000 C 
ATOM     10  O   UNL     1      -3.583  12.649  20.048  0.00  0.00    +0.000 OA
ENDBRANCH   3  10
BRANCH   7  11
ATOM     11  O   UNL     1      -3.185   9.588  16.252  0.00  0.00    +0.000 OA
ATOM     12  C   UNL     1      -2.952  10.079  14.939  0.00  0.00    +0.000 C 
ENDBRANCH   7  11
BRANCH   8  13
ATOM     13  O   UNL     1      -4.858  11.156  17.893  0.00  0.00    +0.000 OA
ATOM     14  C   UNL     1      -5.439  12.156  17.076  0.00  0.00    +0.000 C 
ENDBRANCH   8  13
ENDBRANCH   1   5
BRANCH   1  15
ATOM     15  C   UNL     1       1.402   9.475  18.925  0.00  0.00    +0.000 A 
ATOM     16  C   UNL     1       1.358   8.682  20.057  0.00  0.00    +0.000 A 
ATOM     17  N   UNL     1       2.055   7.555  19.744  0.00  0.00    +0.000 N 
ATOM     18  C   UNL     1       2.539   7.683  18.464  0.00  0.00    +0.000 A 
ATOM     19  N   UNL     1       2.172   8.850  17.960  0.00  0.00    +0.000 NA
ATOM     20  H   UNL     1       2.226   6.771  20.356  0.00  0.00    +0.000 HD
BRANCH  18  21
ATOM     21  C   UNL     1       3.382   6.668  17.822  0.00  0.00    +0.000 A 
ATOM     22  C   UNL     1       4.549   7.025  17.125  0.00  0.00    +0.000 A 
ATOM     23  C   UNL     1       5.313   6.055  16.466  0.00  0.00    +0.000 A 
ATOM     24  C   UNL     1       4.917   4.720  16.504  0.00  0.00    +0.000 A 
ATOM     25 CL   UNL     1       5.840   3.537  15.662  0.00  0.00    +0.000 Cl
ATOM     26  C   UNL     1       3.779   4.343  17.212  0.00  0.00    +0.000 A 
ATOM     27  C   UNL     1       3.017   5.316  17.873  0.00  0.00    +0.000 A 
ENDBRANCH  18  21
ENDBRANCH   1  15
TORSDOF 6
ENDMDL
MODEL 8
REMARK VINA RESULT:      -7.3      3.703      6.562
REMARK  Name = 
REMARK  9 active torsions:
REMARK  status: ('A' for Active; 'I' for Inactive)
REMARK    1  A    between atoms: C_1  and  O_2
REMARK    2  A    between atoms: O_2  and  C_3
REMARK    3  A    between atoms: C_5  and  C_6
REMARK    4  A    between atoms: C_6  and  C_8
REMARK    5  A    between atoms: C_11  and  C_12
REMARK    6  A    between atoms: C_21  and  O_22
REMARK    7  A    between atoms: O_22  and  C_23
REMARK    8  A    between atoms: C_24  and  O_25
REMARK    9  A    between atoms: O_25  and  C_26
REMARK                            x       y       z     vdW  Elec       q    Type
REMARK                         _______ _______ _______ _____ _____    ______ ____
ROOT
ATOM      1  C   UNL     1       3.655   4.170  17.261  0.00  0.00    +0.000 C 
ATOM      2  O   UNL     1       3.031   3.123  17.078  0.00  0.00    +0.000 OA
ENDROOT
BRANCH   1   5
ATOM      3  C   UNL     1       6.919   5.722  16.113  0.00  0.00    +0.000 A 
ATOM      4  C   UNL     1       5.744   5.437  16.830  0.00  0.00    +0.000 A 
ATOM      5  C   UNL     1       4.857   4.436  16.415  0.00  0.00    +0.000 A 
ATOM      6  C   UNL     1       5.118   3.781  15.216  0.00  0.00    +0.000 A 
ATOM      7  C   UNL     1       6.256   4.089  14.457  0.00  0.00    +0.000 A 
ATOM      8  C   UNL     1       7.169   5.075  14.886  0.00  0.00    +0.000 A 
BRANCH   3  10
ATOM      9  C   UNL     1       7.274   7.594  17.529  0.00  0.00    +0.000 C 
ATOM     10  O   UNL     1       7.801   6.660  16.584  0.00  0.00    +0.000 OA
ENDBRANCH   3  10
BRANCH   7  11
ATOM     11  O   UNL     1       6.302   3.378  13.280  0.00  0.00    +0.000 OA
ATOM     12  C   UNL     1       5.142   3.411  12.459  0.00  0.00    +0.000 C 
ENDBRANCH   7  11
BRANCH   8  13
ATOM     13  O   UNL     1       8.212   5.311  14.034  0.00  0.00    +0.000 OA
ATOM     14  C   UNL     1       7.989   5.704  12.692  0.00  0.00    +0.000 C 
ENDBRANCH   8  13
ENDBRANCH   1   5
BRANCH   1  15
ATOM     15  C   UNL     1       3.254   5.108  18.308  0.00  0.00    +0.000 A 
ATOM     16  C   UNL     1       3.476   4.909  19.659  0.00  0.00    +0.000 A 
ATOM     17  N   UNL     1       2.979   6.015  20.279  0.00  0.00    +0.000 N 
ATOM     18  C   UNL     1       2.437   6.843  19.326  0.00  0.00    +0.000 A 
ATOM     19  N   UNL     1       2.575   6.300  18.128  0.00  0.00    +0.000 NA
ATOM     20  H   UNL     1       2.970   6.186  21.274  0.00  0.00    +0.000 HD
BRANCH  18  21
ATOM     21  C   UNL     1       1.766   8.107  19.652  0.00  0.00    +0.000 A 
ATOM     22  C   UNL     1       1.578   9.104  18.680  0.00  0.00    +0.000 A 
ATOM     23  C   UNL     1       0.991  10.329  19.017  0.00  0.00    +0.000 A 
ATOM     24  C   UNL     1       0.583  10.563  20.328  0.00  0.00    +0.000 A 
ATOM     25 CL   UNL     1      -0.105  12.083  20.745  0.00  0.00    +0.000 Cl
ATOM     26  C   UNL     1       0.736   9.576  21.299  0.00  0.00    +0.000 A 
ATOM     27  C   UNL     1       1.322   8.350  20.958  0.00  0.00    +0.000 A 
ENDBRANCH  18  21
ENDBRANCH   1  15
TORSDOF 6
ENDMDL
MODEL 9
REMARK VINA RESULT:      -7.3      1.704      2.871
REMARK  Name = 
REMARK  9 active torsions:
REMARK  status: ('A' for Active; 'I' for Inactive)
REMARK    1  A    between atoms: C_1  and  O_2
REMARK    2  A    between atoms: O_2  and  C_3
REMARK    3  A    between atoms: C_5  and  C_6
REMARK    4  A    between atoms: C_6  and  C_8
REMARK    5  A    between atoms: C_11  and  C_12
REMARK    6  A    between atoms: C_21  and  O_22
REMARK    7  A    between atoms: O_22  and  C_23
REMARK    8  A    between atoms: C_24  and  O_25
REMARK    9  A    between atoms: O_25  and  C_26
REMARK                            x       y       z     vdW  Elec       q    Type
REMARK                         _______ _______ _______ _____ _____    ______ ____
ROOT
ATOM      1  C   UNL     1       7.673   5.875  18.856  0.00  0.00    +0.000 C 
ATOM      2  O   UNL     1       8.494   5.196  19.475  0.00  0.00    +0.000 OA
ENDROOT
BRANCH   1   5
ATOM      3  C   UNL     1       5.104   4.176  16.644  0.00  0.00    +0.000 A 
ATOM      4  C   UNL     1       6.261   4.826  17.107  0.00  0.00    +0.000 A 
ATOM      5  C   UNL     1       6.390   5.232  18.440  0.00  0.00    +0.000 A 
ATOM      6  C   UNL     1       5.303   5.057  19.290  0.00  0.00    +0.000 A 
ATOM      7  C   UNL     1       4.118   4.461  18.835  0.00  0.00    +0.000 A 
ATOM      8  C   UNL     1       3.994   4.023  17.499  0.00  0.00    +0.000 A 
BRANCH   3  10
ATOM      9  C   UNL     1       6.208   3.936  14.556  0.00  0.00    +0.000 C 
ATOM     10  O   UNL     1       5.036   3.730  15.349  0.00  0.00    +0.000 OA
ENDBRANCH   3  10
BRANCH   7  11
ATOM     11  O   UNL     1       3.144   4.436  19.805  0.00  0.00    +0.000 OA
ATOM     12  C   UNL     1       2.412   5.635  20.019  0.00  0.00    +0.000 C 
ENDBRANCH   7  11
BRANCH   8  13
ATOM     13  O   UNL     1       2.773   3.500  17.171  0.00  0.00    +0.000 OA
ATOM     14  C   UNL     1       2.352   2.247  17.678  0.00  0.00    +0.000 C 
ENDBRANCH   8  13
ENDBRANCH   1   5
BRANCH   1  15
ATOM     15  C   UNL     1       7.964   7.263  18.501  0.00  0.00    +0.000 A 
ATOM     16  C   UNL     1       7.484   7.894  17.368  0.00  0.00    +0.000 A 
ATOM     17  N   UNL     1       7.962   9.168  17.427  0.00  0.00    +0.000 N 
ATOM     18  C   UNL     1       8.742   9.289  18.552  0.00  0.00    +0.000 A 
ATOM     19  N   UNL     1       8.773   8.138  19.202  0.00  0.00    +0.000 NA
ATOM     20  H   UNL     1       7.806   9.894  16.743  0.00  0.00    +0.000 HD
BRANCH  18  21
ATOM     21  C   UNL     1       9.459  10.522  18.898  0.00  0.00    +0.000 A 
ATOM     22  C   UNL     1       9.636  10.910  20.238  0.00  0.00    +0.000 A 
ATOM     23  C   UNL     1      10.267  12.117  20.555  0.00  0.00    +0.000 A 
ATOM     24  C   UNL     1      10.732  12.944  19.534  0.00  0.00    +0.000 A 
ATOM     25 CL   UNL     1      11.476  14.443  19.928  0.00  0.00    +0.000 Cl
ATOM     26  C   UNL     1      10.591  12.563  18.202  0.00  0.00    +0.000 A 
ATOM     27  C   UNL     1       9.960  11.352  17.887  0.00  0.00    +0.000 A 
ENDBRANCH  18  21
ENDBRANCH   1  15
TORSDOF 6
ENDMDL
