MODEL 1
REMARK VINA RESULT:      -8.6      0.000      0.000
REMARK  Name = 
REMARK  4 active torsions:
REMARK  status: ('A' for Active; 'I' for Inactive)
REMARK    1  A    between atoms: N_9  and  C_10
REMARK    2  A    between atoms: C_10  and  C_11
REMARK    3  A    between atoms: C_14  and  N_15
REMARK    4  A    between atoms: C_24  and  O_25
REMARK                            x       y       z     vdW  Elec       q    Type
REMARK                         _______ _______ _______ _____ _____    ______ ____
ROOT
ATOM      1  O   UNL     1       5.616   3.093  19.603  0.00  0.00    +0.000 OA
ATOM      2  C   UNL     1       4.886   3.912  19.053  0.00  0.00    +0.000 A 
ATOM      3  C   UNL     1       3.431   3.687  19.091  0.00  0.00    +0.000 A 
ATOM      4  C   UNL     1       2.949   2.516  19.704  0.00  0.00    +0.000 A 
ATOM      5  C   UNL     1       1.590   2.236  19.711  0.00  0.00    +0.000 A 
ATOM      6  C   UNL     1       0.729   3.086  19.035  0.00  0.00    +0.000 A 
ATOM      7  C   UNL     1       1.225   4.238  18.409  0.00  0.00    +0.000 A 
ATOM      8  C   UNL     1       2.570   4.630  18.504  0.00  0.00    +0.000 A 
ATOM      9  N   UNL     1       3.082   5.877  18.071  0.00  0.00    +0.000 N 
ATOM     10  C   UNL     1       4.481   6.081  17.892  0.00  0.00    +0.000 A 
ATOM     11  C   UNL     1       5.019   7.215  17.241  0.00  0.00    +0.000 A 
ATOM     12  C   UNL     1       6.392   7.388  17.065  0.00  0.00    +0.000 A 
ATOM     13  C   UNL     1       7.280   6.412  17.499  0.00  0.00    +0.000 A 
ATOM     14  C   UNL     1       6.791   5.268  18.122  0.00  0.00    +0.000 A 
ATOM     15  C   UNL     1       5.409   5.106  18.338  0.00  0.00    +0.000 A 
ENDROOT
BRANCH  14  16
ATOM     16  O   UNL     1       7.688   4.307  18.491  0.00  0.00    +0.000 OA
ATOM     17  H   UNL     1       7.384   3.430  18.221  0.00  0.00    +0.000 HD
ENDBRANCH  14  16
BRANCH   9  18
ATOM     18  C   UNL     1       2.179   7.036  17.791  0.00  0.00    +0.000 C 
BRANCH  18  19
ATOM     19  C   UNL     1       1.904   7.962  18.968  0.00  0.00    +0.000 A 
ATOM     20  C   UNL     1       1.951   7.477  20.284  0.00  0.00    +0.000 A 
ATOM     21  C   UNL     1       1.449   8.247  21.334  0.00  0.00    +0.000 A 
ATOM     22  C   UNL     1       0.913   9.513  21.066  0.00  0.00    +0.000 A 
ATOM     23  C   UNL     1       0.988  10.061  19.777  0.00  0.00    +0.000 A 
ATOM     24  C   UNL     1       1.507   9.292  18.736  0.00  0.00    +0.000 A 
BRANCH  22  25
ATOM     25  N   UNL     1       0.195  10.236  22.118  0.00  0.00    +0.000 N 
ATOM     26  O   UNL     1       0.329   9.843  23.284  0.00  0.00    +0.000 OA
ATOM     27  O   UNL     1      -0.529  11.183  21.775  0.00  0.00    +0.000 OA
ENDBRANCH  22  25
ENDBRANCH  18  19
ENDBRANCH   9  18
TORSDOF 4
ENDMDL
MODEL 2
REMARK VINA RESULT:      -8.3      0.560      1.252
REMARK  Name = 
REMARK  4 active torsions:
REMARK  status: ('A' for Active; 'I' for Inactive)
REMARK    1  A    between atoms: N_9  and  C_10
REMARK    2  A    between atoms: C_10  and  C_11
REMARK    3  A    between atoms: C_14  and  N_15
REMARK    4  A    between atoms: C_24  and  O_25
REMARK                            x       y       z     vdW  Elec       q    Type
REMARK                         _______ _______ _______ _____ _____    ______ ____
ROOT
ATOM      1  O   UNL     1       5.644   3.241  19.420  0.00  0.00    +0.000 OA
ATOM      2  C   UNL     1       5.027   4.133  18.846  0.00  0.00    +0.000 A 
ATOM      3  C   UNL     1       3.573   3.976  18.670  0.00  0.00    +0.000 A 
ATOM      4  C   UNL     1       2.968   2.787  19.118  0.00  0.00    +0.000 A 
ATOM      5  C   UNL     1       1.611   2.573  18.922  0.00  0.00    +0.000 A 
ATOM      6  C   UNL     1       0.883   3.511  18.207  0.00  0.00    +0.000 A 
ATOM      7  C   UNL     1       1.503   4.682  17.747  0.00  0.00    +0.000 A 
ATOM      8  C   UNL     1       2.836   4.999  18.051  0.00  0.00    +0.000 A 
ATOM      9  N   UNL     1       3.449   6.250  17.792  0.00  0.00    +0.000 N 
ATOM     10  C   UNL     1       4.866   6.399  17.818  0.00  0.00    +0.000 A 
ATOM     11  C   UNL     1       5.530   7.551  17.337  0.00  0.00    +0.000 A 
ATOM     12  C   UNL     1       6.920   7.670  17.361  0.00  0.00    +0.000 A 
ATOM     13  C   UNL     1       7.703   6.623  17.830  0.00  0.00    +0.000 A 
ATOM     14  C   UNL     1       7.091   5.461  18.288  0.00  0.00    +0.000 A 
ATOM     15  C   UNL     1       5.687   5.350  18.304  0.00  0.00    +0.000 A 
ENDROOT
BRANCH  14  16
ATOM     16  O   UNL     1       7.893   4.433  18.696  0.00  0.00    +0.000 OA
ATOM     17  H   UNL     1       7.542   4.021  19.497  0.00  0.00    +0.000 HD
ENDBRANCH  14  16
BRANCH   9  18
ATOM     18  C   UNL     1       2.637   7.468  17.487  0.00  0.00    +0.000 C 
BRANCH  18  19
ATOM     19  C   UNL     1       1.888   8.077  18.665  0.00  0.00    +0.000 A 
ATOM     20  C   UNL     1       1.163   9.269  18.510  0.00  0.00    +0.000 A 
ATOM     21  C   UNL     1       0.702   9.959  19.632  0.00  0.00    +0.000 A 
ATOM     22  C   UNL     1       0.952   9.445  20.910  0.00  0.00    +0.000 A 
ATOM     23  C   UNL     1       1.552   8.186  21.068  0.00  0.00    +0.000 A 
ATOM     24  C   UNL     1       1.996   7.495  19.941  0.00  0.00    +0.000 A 
BRANCH  22  25
ATOM     25  N   UNL     1       0.663  10.260  22.092  0.00  0.00    +0.000 N 
ATOM     26  O   UNL     1       0.337  11.442  21.913  0.00  0.00    +0.000 OA
ATOM     27  O   UNL     1       0.788   9.727  23.205  0.00  0.00    +0.000 OA
ENDBRANCH  22  25
ENDBRANCH  18  19
ENDBRANCH   9  18
TORSDOF 4
ENDMDL
MODEL 3
REMARK VINA RESULT:      -7.8      4.257      7.511
REMARK  Name = 
REMARK  4 active torsions:
REMARK  status: ('A' for Active; 'I' for Inactive)
REMARK    1  A    between atoms: N_9  and  C_10
REMARK    2  A    between atoms: C_10  and  C_11
REMARK    3  A    between atoms: C_14  and  N_15
REMARK    4  A    between atoms: C_24  and  O_25
REMARK                            x       y       z     vdW  Elec       q    Type
REMARK                         _______ _______ _______ _____ _____    ______ ____
ROOT
ATOM      1  O   UNL     1       0.673   8.930  22.719  0.00  0.00    +0.000 OA
ATOM      2  C   UNL     1       0.374   9.551  21.704  0.00  0.00    +0.000 A 
ATOM      3  C   UNL     1      -0.586  10.662  21.821  0.00  0.00    +0.000 A 
ATOM      4  C   UNL     1      -1.158  10.924  23.079  0.00  0.00    +0.000 A 
ATOM      5  C   UNL     1      -2.109  11.924  23.224  0.00  0.00    +0.000 A 
ATOM      6  C   UNL     1      -2.543  12.601  22.096  0.00  0.00    +0.000 A 
ATOM      7  C   UNL     1      -1.980  12.315  20.843  0.00  0.00    +0.000 A 
ATOM      8  C   UNL     1      -0.915  11.415  20.682  0.00  0.00    +0.000 A 
ATOM      9  N   UNL     1      -0.177  11.242  19.486  0.00  0.00    +0.000 N 
ATOM     10  C   UNL     1       0.655  10.101  19.288  0.00  0.00    +0.000 A 
ATOM     11  C   UNL     1       1.217   9.763  18.036  0.00  0.00    +0.000 A 
ATOM     12  C   UNL     1       2.019   8.634  17.863  0.00  0.00    +0.000 A 
ATOM     13  C   UNL     1       2.256   7.776  18.929  0.00  0.00    +0.000 A 
ATOM     14  C   UNL     1       1.700   8.057  20.173  0.00  0.00    +0.000 A 
ATOM     15  C   UNL     1       0.923   9.216  20.363  0.00  0.00    +0.000 A 
ENDROOT
BRANCH  14  16
ATOM     16  O   UNL     1       1.913   7.166  21.185  0.00  0.00    +0.000 OA
ATOM     17  H   UNL     1       1.084   6.743  21.450  0.00  0.00    +0.000 HD
ENDBRANCH  14  16
BRANCH   9  18
ATOM     18  C   UNL     1      -0.231  12.250  18.383  0.00  0.00    +0.000 C 
BRANCH  18  19
ATOM     19  C   UNL     1       0.699  13.446  18.532  0.00  0.00    +0.000 A 
ATOM     20  C   UNL     1       0.186  14.712  18.858  0.00  0.00    +0.000 A 
ATOM     21  C   UNL     1       0.990  15.846  18.737  0.00  0.00    +0.000 A 
ATOM     22  C   UNL     1       2.316  15.710  18.305  0.00  0.00    +0.000 A 
ATOM     23  C   UNL     1       2.876  14.438  18.111  0.00  0.00    +0.000 A 
ATOM     24  C   UNL     1       2.070  13.308  18.249  0.00  0.00    +0.000 A 
BRANCH  22  25
ATOM     25  N   UNL     1       3.099  16.902  17.972  0.00  0.00    +0.000 N 
ATOM     26  O   UNL     1       2.613  17.704  17.163  0.00  0.00    +0.000 OA
ATOM     27  O   UNL     1       4.215  17.024  18.498  0.00  0.00    +0.000 OA
ENDBRANCH  22  25
ENDBRANCH  18  19
ENDBRANCH   9  18
TORSDOF 4
ENDMDL
MODEL 4
REMARK VINA RESULT:      -7.7      1.918      2.334
REMARK  Name = 
REMARK  4 active torsions:
REMARK  status: ('A' for Active; 'I' for Inactive)
REMARK    1  A    between atoms: N_9  and  C_10
REMARK    2  A    between atoms: C_10  and  C_11
REMARK    3  A    between atoms: C_14  and  N_15
REMARK    4  A    between atoms: C_24  and  O_25
REMARK                            x       y       z     vdW  Elec       q    Type
REMARK                         _______ _______ _______ _____ _____    ______ ____
ROOT
ATOM      1  O   UNL     1       4.146   1.894  17.327  0.00  0.00    +0.000 OA
ATOM      2  C   UNL     1       3.903   3.036  17.706  0.00  0.00    +0.000 A 
ATOM      3  C   UNL     1       2.826   3.230  18.692  0.00  0.00    +0.000 A 
ATOM      4  C   UNL     1       2.088   2.107  19.110  0.00  0.00    +0.000 A 
ATOM      5  C   UNL     1       1.028   2.252  19.993  0.00  0.00    +0.000 A 
ATOM      6  C   UNL     1       0.659   3.527  20.390  0.00  0.00    +0.000 A 
ATOM      7  C   UNL     1       1.389   4.641  19.949  0.00  0.00    +0.000 A 
ATOM      8  C   UNL     1       2.553   4.521  19.173  0.00  0.00    +0.000 A 
ATOM      9  N   UNL     1       3.438   5.586  18.874  0.00  0.00    +0.000 N 
ATOM     10  C   UNL     1       4.401   5.475  17.829  0.00  0.00    +0.000 A 
ATOM     11  C   UNL     1       5.136   6.579  17.337  0.00  0.00    +0.000 A 
ATOM     12  C   UNL     1       6.065   6.450  16.304  0.00  0.00    +0.000 A 
ATOM     13  C   UNL     1       6.266   5.218  15.695  0.00  0.00    +0.000 A 
ATOM     14  C   UNL     1       5.545   4.111  16.131  0.00  0.00    +0.000 A 
ATOM     15  C   UNL     1       4.634   4.227  17.199  0.00  0.00    +0.000 A 
ENDROOT
BRANCH  14  16
ATOM     16  O   UNL     1       5.730   2.927  15.476  0.00  0.00    +0.000 OA
ATOM     17  H   UNL     1       5.860   2.204  16.105  0.00  0.00    +0.000 HD
ENDBRANCH  14  16
BRANCH   9  18
ATOM     18  C   UNL     1       3.407   6.866  19.645  0.00  0.00    +0.000 C 
BRANCH  18  19
ATOM     19  C   UNL     1       2.242   7.797  19.336  0.00  0.00    +0.000 A 
ATOM     20  C   UNL     1       2.013   8.242  18.024  0.00  0.00    +0.000 A 
ATOM     21  C   UNL     1       1.120   9.288  17.785  0.00  0.00    +0.000 A 
ATOM     22  C   UNL     1       0.443   9.877  18.860  0.00  0.00    +0.000 A 
ATOM     23  C   UNL     1       0.561   9.348  20.154  0.00  0.00    +0.000 A 
ATOM     24  C   UNL     1       1.443   8.292  20.383  0.00  0.00    +0.000 A 
BRANCH  22  25
ATOM     25  N   UNL     1      -0.328  11.105  18.650  0.00  0.00    +0.000 N 
ATOM     26  O   UNL     1      -1.290  11.057  17.871  0.00  0.00    +0.000 OA
ATOM     27  O   UNL     1       0.045  12.128  19.243  0.00  0.00    +0.000 OA
ENDBRANCH  22  25
ENDBRANCH  18  19
ENDBRANCH   9  18
TORSDOF 4
ENDMDL
MODEL 5
REMARK VINA RESULT:      -7.5      3.722      8.886
REMARK  Name = 
REMARK  4 active torsions:
REMARK  status: ('A' for Active; 'I' for Inactive)
REMARK    1  A    between atoms: N_9  and  C_10
REMARK    2  A    between atoms: C_10  and  C_11
REMARK    3  A    between atoms: C_14  and  N_15
REMARK    4  A    between atoms: C_24  and  O_25
REMARK                            x       y       z     vdW  Elec       q    Type
REMARK                         _______ _______ _______ _____ _____    ______ ____
ROOT
ATOM      1  O   UNL     1      -4.743  12.741  19.598  0.00  0.00    +0.000 OA
ATOM      2  C   UNL     1      -3.614  12.260  19.561  0.00  0.00    +0.000 A 
ATOM      3  C   UNL     1      -3.198  11.544  18.343  0.00  0.00    +0.000 A 
ATOM      4  C   UNL     1      -4.131  11.395  17.301  0.00  0.00    +0.000 A 
ATOM      5  C   UNL     1      -3.801  10.679  16.160  0.00  0.00    +0.000 A 
ATOM      6  C   UNL     1      -2.569  10.047  16.101  0.00  0.00    +0.000 A 
ATOM      7  C   UNL     1      -1.655  10.186  17.157  0.00  0.00    +0.000 A 
ATOM      8  C   UNL     1      -1.898  11.019  18.260  0.00  0.00    +0.000 A 
ATOM      9  N   UNL     1      -0.937  11.357  19.244  0.00  0.00    +0.000 N 
ATOM     10  C   UNL     1      -1.326  11.924  20.493  0.00  0.00    +0.000 A 
ATOM     11  C   UNL     1      -0.443  12.054  21.590  0.00  0.00    +0.000 A 
ATOM     12  C   UNL     1      -0.849  12.602  22.807  0.00  0.00    +0.000 A 
ATOM     13  C   UNL     1      -2.166  13.003  22.988  0.00  0.00    +0.000 A 
ATOM     14  C   UNL     1      -3.074  12.869  21.943  0.00  0.00    +0.000 A 
ATOM     15  C   UNL     1      -2.661  12.354  20.699  0.00  0.00    +0.000 A 
ENDROOT
BRANCH  14  16
ATOM     16  O   UNL     1      -4.372  13.227  22.172  0.00  0.00    +0.000 OA
ATOM     17  H   UNL     1      -4.754  13.652  21.392  0.00  0.00    +0.000 HD
ENDBRANCH  14  16
BRANCH   9  18
ATOM     18  C   UNL     1       0.524  11.139  19.015  0.00  0.00    +0.000 C 
BRANCH  18  19
ATOM     19  C   UNL     1       0.998   9.694  19.088  0.00  0.00    +0.000 A 
ATOM     20  C   UNL     1       0.967   8.993  20.304  0.00  0.00    +0.000 A 
ATOM     21  C   UNL     1       1.636   7.775  20.429  0.00  0.00    +0.000 A 
ATOM     22  C   UNL     1       2.325   7.250  19.328  0.00  0.00    +0.000 A 
ATOM     23  C   UNL     1       2.247   7.874  18.074  0.00  0.00    +0.000 A 
ATOM     24  C   UNL     1       1.561   9.083  17.953  0.00  0.00    +0.000 A 
BRANCH  22  25
ATOM     25  N   UNL     1       3.202   6.090  19.504  0.00  0.00    +0.000 N 
ATOM     26  O   UNL     1       4.220   6.024  18.802  0.00  0.00    +0.000 OA
ATOM     27  O   UNL     1       2.859   5.228  20.327  0.00  0.00    +0.000 OA
ENDBRANCH  22  25
ENDBRANCH  18  19
ENDBRANCH   9  18
TORSDOF 4
ENDMDL
MODEL 6
REMARK VINA RESULT:      -7.5      2.269      4.406
REMARK  Name = 
REMARK  4 active torsions:
REMARK  status: ('A' for Active; 'I' for Inactive)
REMARK    1  A    between atoms: N_9  and  C_10
REMARK    2  A    between atoms: C_10  and  C_11
REMARK    3  A    between atoms: C_14  and  N_15
REMARK    4  A    between atoms: C_24  and  O_25
REMARK                            x       y       z     vdW  Elec       q    Type
REMARK                         _______ _______ _______ _____ _____    ______ ____
ROOT
ATOM      1  O   UNL     1       2.836   2.515  16.631  0.00  0.00    +0.000 OA
ATOM      2  C   UNL     1       3.052   3.448  17.399  0.00  0.00    +0.000 A 
ATOM      3  C   UNL     1       3.955   4.524  16.955  0.00  0.00    +0.000 A 
ATOM      4  C   UNL     1       4.572   4.405  15.697  0.00  0.00    +0.000 A 
ATOM      5  C   UNL     1       5.473   5.367  15.263  0.00  0.00    +0.000 A 
ATOM      6  C   UNL     1       5.815   6.398  16.123  0.00  0.00    +0.000 A 
ATOM      7  C   UNL     1       5.208   6.493  17.384  0.00  0.00    +0.000 A 
ATOM      8  C   UNL     1       4.187   5.623  17.798  0.00  0.00    +0.000 A 
ATOM      9  N   UNL     1       3.402   5.795  18.965  0.00  0.00    +0.000 N 
ATOM     10  C   UNL     1       2.625   4.725  19.497  0.00  0.00    +0.000 A 
ATOM     11  C   UNL     1       2.022   4.771  20.775  0.00  0.00    +0.000 A 
ATOM     12  C   UNL     1       1.276   3.706  21.282  0.00  0.00    +0.000 A 
ATOM     13  C   UNL     1       1.137   2.538  20.545  0.00  0.00    +0.000 A 
ATOM     14  C   UNL     1       1.736   2.440  19.294  0.00  0.00    +0.000 A 
ATOM     15  C   UNL     1       2.458   3.526  18.760  0.00  0.00    +0.000 A 
ENDROOT
BRANCH  14  16
ATOM     16  O   UNL     1       1.622   1.259  18.619  0.00  0.00    +0.000 OA
ATOM     17  H   UNL     1       2.174   0.576  19.024  0.00  0.00    +0.000 HD
ENDBRANCH  14  16
BRANCH   9  18
ATOM     18  C   UNL     1       3.349   7.105  19.683  0.00  0.00    +0.000 C 
BRANCH  18  19
ATOM     19  C   UNL     1       2.154   7.991  19.357  0.00  0.00    +0.000 A 
ATOM     20  C   UNL     1       1.930   8.433  18.043  0.00  0.00    +0.000 A 
ATOM     21  C   UNL     1       1.002   9.444  17.792  0.00  0.00    +0.000 A 
ATOM     22  C   UNL     1       0.285  10.003  18.858  0.00  0.00    +0.000 A 
ATOM     23  C   UNL     1       0.401   9.473  20.152  0.00  0.00    +0.000 A 
ATOM     24  C   UNL     1       1.319   8.451  20.392  0.00  0.00    +0.000 A 
BRANCH  22  25
ATOM     25  N   UNL     1      -0.529  11.201  18.638  0.00  0.00    +0.000 N 
ATOM     26  O   UNL     1      -1.733  11.044  18.393  0.00  0.00    +0.000 OA
ATOM     27  O   UNL     1       0.041  12.301  18.684  0.00  0.00    +0.000 OA
ENDBRANCH  22  25
ENDBRANCH  18  19
ENDBRANCH   9  18
TORSDOF 4
ENDMDL
MODEL 7
REMARK VINA RESULT:      -7.5      1.196      3.906
REMARK  Name = 
REMARK  4 active torsions:
REMARK  status: ('A' for Active; 'I' for Inactive)
REMARK    1  A    between atoms: N_9  and  C_10
REMARK    2  A    between atoms: C_10  and  C_11
REMARK    3  A    between atoms: C_14  and  N_15
REMARK    4  A    between atoms: C_24  and  O_25
REMARK                            x       y       z     vdW  Elec       q    Type
REMARK                         _______ _______ _______ _____ _____    ______ ____
ROOT
ATOM      1  O   UNL     1       5.635   2.831  19.570  0.00  0.00    +0.000 OA
ATOM      2  C   UNL     1       4.877   3.769  19.341  0.00  0.00    +0.000 A 
ATOM      3  C   UNL     1       5.382   4.894  18.535  0.00  0.00    +0.000 A 
ATOM      4  C   UNL     1       6.724   4.869  18.114  0.00  0.00    +0.000 A 
ATOM      5  C   UNL     1       7.256   5.934  17.402  0.00  0.00    +0.000 A 
ATOM      6  C   UNL     1       6.469   7.054  17.187  0.00  0.00    +0.000 A 
ATOM      7  C   UNL     1       5.139   7.075  17.632  0.00  0.00    +0.000 A 
ATOM      8  C   UNL     1       4.524   5.962  18.225  0.00  0.00    +0.000 A 
ATOM      9  N   UNL     1       3.139   5.856  18.504  0.00  0.00    +0.000 N 
ATOM     10  C   UNL     1       2.637   4.861  19.392  0.00  0.00    +0.000 A 
ATOM     11  C   UNL     1       1.312   4.864  19.885  0.00  0.00    +0.000 A 
ATOM     12  C   UNL     1       0.845   3.886  20.764  0.00  0.00    +0.000 A 
ATOM     13  C   UNL     1       1.699   2.889  21.216  0.00  0.00    +0.000 A 
ATOM     14  C   UNL     1       3.018   2.863  20.776  0.00  0.00    +0.000 A 
ATOM     15  C   UNL     1       3.485   3.824  19.858  0.00  0.00    +0.000 A 
ENDROOT
BRANCH  14  16
ATOM     16  O   UNL     1       3.843   1.898  21.279  0.00  0.00    +0.000 OA
ATOM     17  H   UNL     1       4.500   1.630  20.622  0.00  0.00    +0.000 HD
ENDBRANCH  14  16
BRANCH   9  18
ATOM     18  C   UNL     1       2.144   6.778  17.874  0.00  0.00    +0.000 C 
BRANCH  18  19
ATOM     19  C   UNL     1       1.917   8.100  18.596  0.00  0.00    +0.000 A 
ATOM     20  C   UNL     1       1.686   8.127  19.980  0.00  0.00    +0.000 A 
ATOM     21  C   UNL     1       1.222   9.292  20.591  0.00  0.00    +0.000 A 
ATOM     22  C   UNL     1       1.004  10.438  19.816  0.00  0.00    +0.000 A 
ATOM     23  C   UNL     1       1.363  10.461  18.460  0.00  0.00    +0.000 A 
ATOM     24  C   UNL     1       1.842   9.297  17.860  0.00  0.00    +0.000 A 
BRANCH  22  25
ATOM     25  N   UNL     1       0.321  11.594  20.401  0.00  0.00    +0.000 N 
ATOM     26  O   UNL     1       0.461  11.794  21.616  0.00  0.00    +0.000 OA
ATOM     27  O   UNL     1      -0.381  12.289  19.652  0.00  0.00    +0.000 OA
ENDBRANCH  22  25
ENDBRANCH  18  19
ENDBRANCH   9  18
TORSDOF 4
ENDMDL
MODEL 8
REMARK VINA RESULT:      -7.4      3.167      7.255
REMARK  Name = 
REMARK  4 active torsions:
REMARK  status: ('A' for Active; 'I' for Inactive)
REMARK    1  A    between atoms: N_9  and  C_10
REMARK    2  A    between atoms: C_10  and  C_11
REMARK    3  A    between atoms: C_14  and  N_15
REMARK    4  A    between atoms: C_24  and  O_25
REMARK                            x       y       z     vdW  Elec       q    Type
REMARK                         _______ _______ _______ _____ _____    ______ ____
ROOT
ATOM      1  O   UNL     1       1.087   5.782  20.972  0.00  0.00    +0.000 OA
ATOM      2  C   UNL     1       2.053   5.656  20.226  0.00  0.00    +0.000 A 
ATOM      3  C   UNL     1       2.381   6.764  19.313  0.00  0.00    +0.000 A 
ATOM      4  C   UNL     1       1.540   7.892  19.298  0.00  0.00    +0.000 A 
ATOM      5  C   UNL     1       1.778   8.934  18.413  0.00  0.00    +0.000 A 
ATOM      6  C   UNL     1       2.807   8.807  17.493  0.00  0.00    +0.000 A 
ATOM      7  C   UNL     1       3.624   7.667  17.504  0.00  0.00    +0.000 A 
ATOM      8  C   UNL     1       3.504   6.662  18.476  0.00  0.00    +0.000 A 
ATOM      9  N   UNL     1       4.425   5.601  18.660  0.00  0.00    +0.000 N 
ATOM     10  C   UNL     1       4.083   4.449  19.426  0.00  0.00    +0.000 A 
ATOM     11  C   UNL     1       4.865   3.271  19.441  0.00  0.00    +0.000 A 
ATOM     12  C   UNL     1       4.504   2.150  20.189  0.00  0.00    +0.000 A 
ATOM     13  C   UNL     1       3.324   2.149  20.920  0.00  0.00    +0.000 A 
ATOM     14  C   UNL     1       2.511   3.278  20.913  0.00  0.00    +0.000 A 
ATOM     15  C   UNL     1       2.890   4.427  20.192  0.00  0.00    +0.000 A 
ENDROOT
BRANCH  14  16
ATOM     16  O   UNL     1       1.334   3.224  21.603  0.00  0.00    +0.000 OA
ATOM     17  H   UNL     1       1.315   2.457  22.191  0.00  0.00    +0.000 HD
ENDBRANCH  14  16
BRANCH   9  18
ATOM     18  C   UNL     1       5.796   5.647  18.066  0.00  0.00    +0.000 C 
BRANCH  18  19
ATOM     19  C   UNL     1       5.962   4.940  16.727  0.00  0.00    +0.000 A 
ATOM     20  C   UNL     1       7.137   5.100  15.976  0.00  0.00    +0.000 A 
ATOM     21  C   UNL     1       7.184   4.673  14.649  0.00  0.00    +0.000 A 
ATOM     22  C   UNL     1       6.057   4.071  14.077  0.00  0.00    +0.000 A 
ATOM     23  C   UNL     1       4.928   3.782  14.859  0.00  0.00    +0.000 A 
ATOM     24  C   UNL     1       4.895   4.197  16.190  0.00  0.00    +0.000 A 
BRANCH  22  25
ATOM     25  N   UNL     1       6.021   3.814  12.635  0.00  0.00    +0.000 N 
ATOM     26  O   UNL     1       7.065   3.987  11.991  0.00  0.00    +0.000 OA
ATOM     27  O   UNL     1       4.939   3.466  12.138  0.00  0.00    +0.000 OA
ENDBRANCH  22  25
ENDBRANCH  18  19
ENDBRANCH   9  18
TORSDOF 4
ENDMDL
MODEL 9
REMARK VINA RESULT:      -7.3      3.193      7.323
REMARK  Name = 
REMARK  4 active torsions:
REMARK  status: ('A' for Active; 'I' for Inactive)
REMARK    1  A    between atoms: N_9  and  C_10
REMARK    2  A    between atoms: C_10  and  C_11
REMARK    3  A    between atoms: C_14  and  N_15
REMARK    4  A    between atoms: C_24  and  O_25
REMARK                            x       y       z     vdW  Elec       q    Type
REMARK                         _______ _______ _______ _____ _____    ______ ____
ROOT
ATOM      1  O   UNL     1       1.181   5.748  21.011  0.00  0.00    +0.000 OA
ATOM      2  C   UNL     1       2.129   5.572  20.252  0.00  0.00    +0.000 A 
ATOM      3  C   UNL     1       2.487   6.654  19.318  0.00  0.00    +0.000 A 
ATOM      4  C   UNL     1       1.691   7.814  19.299  0.00  0.00    +0.000 A 
ATOM      5  C   UNL     1       1.957   8.833  18.395  0.00  0.00    +0.000 A 
ATOM      6  C   UNL     1       2.964   8.652  17.462  0.00  0.00    +0.000 A 
ATOM      7  C   UNL     1       3.736   7.480  17.477  0.00  0.00    +0.000 A 
ATOM      8  C   UNL     1       3.591   6.494  18.465  0.00  0.00    +0.000 A 
ATOM      9  N   UNL     1       4.472   5.400  18.650  0.00  0.00    +0.000 N 
ATOM     10  C   UNL     1       4.096   4.274  19.439  0.00  0.00    +0.000 A 
ATOM     11  C   UNL     1       4.831   3.066  19.459  0.00  0.00    +0.000 A 
ATOM     12  C   UNL     1       4.437   1.971  20.229  0.00  0.00    +0.000 A 
ATOM     13  C   UNL     1       3.270   2.028  20.978  0.00  0.00    +0.000 A 
ATOM     14  C   UNL     1       2.503   3.188  20.967  0.00  0.00    +0.000 A 
ATOM     15  C   UNL     1       2.915   4.311  20.223  0.00  0.00    +0.000 A 
ENDROOT
BRANCH  14  16
ATOM     16  O   UNL     1       1.336   3.192  21.675  0.00  0.00    +0.000 OA
ATOM     17  H   UNL     1       1.402   2.618  22.451  0.00  0.00    +0.000 HD
ENDBRANCH  14  16
BRANCH   9  18
ATOM     18  C   UNL     1       5.834   5.382  18.034  0.00  0.00    +0.000 C 
BRANCH  18  19
ATOM     19  C   UNL     1       5.877   5.152  16.530  0.00  0.00    +0.000 A 
ATOM     20  C   UNL     1       4.849   4.447  15.885  0.00  0.00    +0.000 A 
ATOM     21  C   UNL     1       5.014   4.013  14.570  0.00  0.00    +0.000 A 
ATOM     22  C   UNL     1       6.206   4.300  13.892  0.00  0.00    +0.000 A 
ATOM     23  C   UNL     1       7.180   5.121  14.480  0.00  0.00    +0.000 A 
ATOM     24  C   UNL     1       7.000   5.565  15.789  0.00  0.00    +0.000 A 
BRANCH  22  25
ATOM     25  N   UNL     1       6.476   3.671  12.597  0.00  0.00    +0.000 N 
ATOM     26  O   UNL     1       5.835   2.653  12.304  0.00  0.00    +0.000 OA
ATOM     27  O   UNL     1       7.351   4.181  11.881  0.00  0.00    +0.000 OA
ENDBRANCH  22  25
ENDBRANCH  18  19
ENDBRANCH   9  18
TORSDOF 4
ENDMDL
