MODEL 1
REMARK VINA RESULT:      -9.5      0.000      0.000
REMARK  Name = 
REMARK  8 active torsions:
REMARK  status: ('A' for Active; 'I' for Inactive)
REMARK    1  A    between atoms: C_1  and  C_2
REMARK    2  A    between atoms: C_2  and  O_3
REMARK    3  A    between atoms: C_2  and  C_21
REMARK    4  A    between atoms: O_3  and  C_4
REMARK    5  A    between atoms: C_9  and  N_10
REMARK    6  A    between atoms: C_13  and  C_14
REMARK    7  A    between atoms: C_23  and  C_24
REMARK    8  A    between atoms: C_29  and  C_30
REMARK                            x       y       z     vdW  Elec       q    Type
REMARK                         _______ _______ _______ _____ _____    ______ ____
ROOT
ATOM      1  C   UNL     1       3.392   5.695  18.541  0.00  0.00    +0.000 C 
ATOM      2  C   UNL     1       3.477   5.026  19.927  0.00  0.00    +0.000 C 
ATOM      3  N   UNL     1       3.216   3.631  19.669  0.00  0.00    +0.000 N 
ATOM      4  C   UNL     1       2.046   3.007  20.060  0.00  0.00    +0.000 C 
ATOM      5  O   UNL     1       1.329   3.332  20.994  0.00  0.00    +0.000 OA
ATOM      6  C   UNL     1       1.749   1.888  19.063  0.00  0.00    +0.000 C 
ATOM      7  C   UNL     1       2.748   2.099  17.923  0.00  0.00    +0.000 C 
ATOM      8  C   UNL     1       3.662   3.235  18.365  0.00  0.00    +0.000 C 
ATOM      9  C   UNL     1       3.568   4.523  17.521  0.00  0.00    +0.000 C 
ENDROOT
BRANCH   9  10
ATOM     10  C   UNL     1       4.777   4.718  16.624  0.00  0.00    +0.000 A 
ATOM     11  C   UNL     1       4.804   4.124  15.353  0.00  0.00    +0.000 A 
ATOM     12  C   UNL     1       5.905   4.303  14.512  0.00  0.00    +0.000 A 
ATOM     13  C   UNL     1       6.977   5.078  14.942  0.00  0.00    +0.000 A 
ATOM     14  F   UNL     1       8.032   5.248  14.129  0.00  0.00    +0.000 F 
ATOM     15  C   UNL     1       6.977   5.668  16.195  0.00  0.00    +0.000 A 
ATOM     16  C   UNL     1       5.879   5.492  17.036  0.00  0.00    +0.000 A 
ENDBRANCH   9  10
BRANCH   6  17
ATOM     17  N   UNL     1       0.361   1.985  18.588  0.00  0.00    +0.000 NA
ATOM     18  H   UNL     1       0.310   1.601  17.644  0.00  0.00    +0.000 HD
ATOM     19  H   UNL     1       0.159   2.981  18.454  0.00  0.00    +0.000 HD
ENDBRANCH   6  17
BRANCH   1  20
ATOM     20  O   UNL     1       2.133   6.381  18.376  0.00  0.00    +0.000 OA
BRANCH  20  22
ATOM     21  C   UNL     1       3.654   8.201  17.661  0.00  0.00    +0.000 C 
ATOM     22  C   UNL     1       2.219   7.659  17.725  0.00  0.00    +0.000 C 
BRANCH  22  23
ATOM     23  C   UNL     1       1.408   8.721  18.464  0.00  0.00    +0.000 A 
ATOM     24  C   UNL     1       1.404   8.728  19.872  0.00  0.00    +0.000 A 
ATOM     25  C   UNL     1       0.422   9.427  20.593  0.00  0.00    +0.000 A 
ATOM     26  C   UNL     1      -0.559  10.139  19.883  0.00  0.00    +0.000 A 
ATOM     27  C   UNL     1      -0.556  10.170  18.479  0.00  0.00    +0.000 A 
ATOM     28  C   UNL     1       0.459   9.494  17.781  0.00  0.00    +0.000 A 
BRANCH  25  29
ATOM     29  C   UNL     1       0.344   9.336  22.100  0.00  0.00    +0.000 C 
ATOM     30  F   UNL     1       0.092  10.529  22.707  0.00  0.00    +0.000 F 
ATOM     31  F   UNL     1      -0.626   8.482  22.527  0.00  0.00    +0.000 F 
ATOM     32  F   UNL     1       1.509   8.883  22.646  0.00  0.00    +0.000 F 
ENDBRANCH  25  29
BRANCH  27  33
ATOM     33  C   UNL     1      -1.680  10.820  17.708  0.00  0.00    +0.000 C 
ATOM     34  F   UNL     1      -2.894  10.689  18.312  0.00  0.00    +0.000 F 
ATOM     35  F   UNL     1      -1.493  12.153  17.519  0.00  0.00    +0.000 F 
ATOM     36  F   UNL     1      -1.828  10.278  16.465  0.00  0.00    +0.000 F 
ENDBRANCH  27  33
ENDBRANCH  22  23
ENDBRANCH  20  22
ENDBRANCH   1  20
TORSDOF 7
ENDMDL
MODEL 2
REMARK VINA RESULT:      -9.5      0.062      1.059
REMARK  Name = 
REMARK  8 active torsions:
REMARK  status: ('A' for Active; 'I' for Inactive)
REMARK    1  A    between atoms: C_1  and  C_2
REMARK    2  A    between atoms: C_2  and  O_3
REMARK    3  A    between atoms: C_2  and  C_21
REMARK    4  A    between atoms: O_3  and  C_4
REMARK    5  A    between atoms: C_9  and  N_10
REMARK    6  A    between atoms: C_13  and  C_14
REMARK    7  A    between atoms: C_23  and  C_24
REMARK    8  A    between atoms: C_29  and  C_30
REMARK                            x       y       z     vdW  Elec       q    Type
REMARK                         _______ _______ _______ _____ _____    ______ ____
ROOT
ATOM      1  C   UNL     1       3.415   5.720  18.475  0.00  0.00    +0.000 C 
ATOM      2  C   UNL     1       3.520   5.064  19.866  0.00  0.00    +0.000 C 
ATOM      3  N   UNL     1       3.254   3.666  19.625  0.00  0.00    +0.000 N 
ATOM      4  C   UNL     1       2.090   3.047  20.039  0.00  0.00    +0.000 C 
ATOM      5  O   UNL     1       1.386   3.381  20.979  0.00  0.00    +0.000 OA
ATOM      6  C   UNL     1       1.778   1.919  19.057  0.00  0.00    +0.000 C 
ATOM      7  C   UNL     1       2.761   2.118  17.901  0.00  0.00    +0.000 C 
ATOM      8  C   UNL     1       3.682   3.258  18.319  0.00  0.00    +0.000 C 
ATOM      9  C   UNL     1       3.576   4.539  17.464  0.00  0.00    +0.000 C 
ENDROOT
BRANCH   9  10
ATOM     10  C   UNL     1       4.773   4.724  16.548  0.00  0.00    +0.000 A 
ATOM     11  C   UNL     1       5.877   5.469  16.990  0.00  0.00    +0.000 A 
ATOM     12  C   UNL     1       6.990   5.640  16.163  0.00  0.00    +0.000 A 
ATOM     13  C   UNL     1       6.999   5.064  14.897  0.00  0.00    +0.000 A 
ATOM     14  F   UNL     1       8.072   5.230  14.107  0.00  0.00    +0.000 F 
ATOM     15  C   UNL     1       5.918   4.331  14.436  0.00  0.00    +0.000 A 
ATOM     16  C   UNL     1       4.806   4.158  15.260  0.00  0.00    +0.000 A 
ENDBRANCH   9  10
BRANCH   6  17
ATOM     17  N   UNL     1       0.384   2.012  18.600  0.00  0.00    +0.000 NA
ATOM     18  H   UNL     1       0.336   2.672  17.822  0.00  0.00    +0.000 HD
ATOM     19  H   UNL     1      -0.145   2.478  19.344  0.00  0.00    +0.000 HD
ENDBRANCH   6  17
BRANCH   1  20
ATOM     20  O   UNL     1       2.154   6.405  18.322  0.00  0.00    +0.000 OA
BRANCH  20  22
ATOM     21  C   UNL     1       3.667   8.245  17.638  0.00  0.00    +0.000 C 
ATOM     22  C   UNL     1       2.235   7.689  17.682  0.00  0.00    +0.000 C 
BRANCH  22  23
ATOM     23  C   UNL     1       1.408   8.738  18.424  0.00  0.00    +0.000 A 
ATOM     24  C   UNL     1       1.405   8.744  19.831  0.00  0.00    +0.000 A 
ATOM     25  C   UNL     1       0.413   9.426  20.554  0.00  0.00    +0.000 A 
ATOM     26  C   UNL     1      -0.580  10.123  19.845  0.00  0.00    +0.000 A 
ATOM     27  C   UNL     1      -0.579  10.155  18.442  0.00  0.00    +0.000 A 
ATOM     28  C   UNL     1       0.446   9.496  17.743  0.00  0.00    +0.000 A 
BRANCH  25  29
ATOM     29  C   UNL     1       0.338   9.332  22.061  0.00  0.00    +0.000 C 
ATOM     30  F   UNL     1       1.463   8.818  22.632  0.00  0.00    +0.000 F 
ATOM     31  F   UNL     1       0.131  10.539  22.655  0.00  0.00    +0.000 F 
ATOM     32  F   UNL     1      -0.685   8.531  22.474  0.00  0.00    +0.000 F 
ENDBRANCH  25  29
BRANCH  27  33
ATOM     33  C   UNL     1      -1.714  10.788  17.672  0.00  0.00    +0.000 C 
ATOM     34  F   UNL     1      -2.926  10.631  18.274  0.00  0.00    +0.000 F 
ATOM     35  F   UNL     1      -1.551  12.125  17.490  0.00  0.00    +0.000 F 
ATOM     36  F   UNL     1      -1.849  10.250  16.426  0.00  0.00    +0.000 F 
ENDBRANCH  27  33
ENDBRANCH  22  23
ENDBRANCH  20  22
ENDBRANCH   1  20
TORSDOF 7
ENDMDL
MODEL 3
REMARK VINA RESULT:      -9.0      1.396      3.053
REMARK  Name = 
REMARK  8 active torsions:
REMARK  status: ('A' for Active; 'I' for Inactive)
REMARK    1  A    between atoms: C_1  and  C_2
REMARK    2  A    between atoms: C_2  and  O_3
REMARK    3  A    between atoms: C_2  and  C_21
REMARK    4  A    between atoms: O_3  and  C_4
REMARK    5  A    between atoms: C_9  and  N_10
REMARK    6  A    between atoms: C_13  and  C_14
REMARK    7  A    between atoms: C_23  and  C_24
REMARK    8  A    between atoms: C_29  and  C_30
REMARK                            x       y       z     vdW  Elec       q    Type
REMARK                         _______ _______ _______ _____ _____    ______ ____
ROOT
ATOM      1  C   UNL     1       3.474   5.683  18.539  0.00  0.00    +0.000 C 
ATOM      2  C   UNL     1       3.583   4.993  19.913  0.00  0.00    +0.000 C 
ATOM      3  N   UNL     1       3.280   3.608  19.644  0.00  0.00    +0.000 N 
ATOM      4  C   UNL     1       2.107   3.008  20.062  0.00  0.00    +0.000 C 
ATOM      5  O   UNL     1       1.426   3.337  21.022  0.00  0.00    +0.000 OA
ATOM      6  C   UNL     1       1.753   1.911  19.060  0.00  0.00    +0.000 C 
ATOM      7  C   UNL     1       2.722   2.112  17.894  0.00  0.00    +0.000 C 
ATOM      8  C   UNL     1       3.677   3.220  18.323  0.00  0.00    +0.000 C 
ATOM      9  C   UNL     1       3.590   4.522  17.499  0.00  0.00    +0.000 C 
ENDROOT
BRANCH   9  10
ATOM     10  C   UNL     1       4.777   4.699  16.569  0.00  0.00    +0.000 A 
ATOM     11  C   UNL     1       5.917   5.384  17.019  0.00  0.00    +0.000 A 
ATOM     12  C   UNL     1       7.021   5.547  16.179  0.00  0.00    +0.000 A 
ATOM     13  C   UNL     1       6.986   5.022  14.891  0.00  0.00    +0.000 A 
ATOM     14  F   UNL     1       8.051   5.179  14.089  0.00  0.00    +0.000 F 
ATOM     15  C   UNL     1       5.870   4.349  14.422  0.00  0.00    +0.000 A 
ATOM     16  C   UNL     1       4.767   4.184  15.259  0.00  0.00    +0.000 A 
ENDBRANCH   9  10
BRANCH   6  17
ATOM     17  N   UNL     1       0.354   2.048  18.627  0.00  0.00    +0.000 NA
ATOM     18  H   UNL     1       0.119   3.041  18.586  0.00  0.00    +0.000 HD
ATOM     19  H   UNL     1      -0.231   1.694  19.390  0.00  0.00    +0.000 HD
ENDBRANCH   6  17
BRANCH   1  20
ATOM     20  O   UNL     1       2.228   6.402  18.422  0.00  0.00    +0.000 OA
BRANCH  20  22
ATOM     21  C   UNL     1       3.758   8.143  17.546  0.00  0.00    +0.000 C 
ATOM     22  C   UNL     1       2.313   7.652  17.718  0.00  0.00    +0.000 C 
BRANCH  22  23
ATOM     23  C   UNL     1       1.584   8.766  18.466  0.00  0.00    +0.000 A 
ATOM     24  C   UNL     1       1.779  10.103  18.070  0.00  0.00    +0.000 A 
ATOM     25  C   UNL     1       1.436  11.170  18.918  0.00  0.00    +0.000 A 
ATOM     26  C   UNL     1       0.878  10.882  20.174  0.00  0.00    +0.000 A 
ATOM     27  C   UNL     1       0.647   9.557  20.576  0.00  0.00    +0.000 A 
ATOM     28  C   UNL     1       0.963   8.509  19.696  0.00  0.00    +0.000 A 
BRANCH  25  29
ATOM     29  C   UNL     1       1.757  12.600  18.545  0.00  0.00    +0.000 C 
ATOM     30  F   UNL     1       2.706  12.710  17.573  0.00  0.00    +0.000 F 
ATOM     31  F   UNL     1       0.671  13.282  18.091  0.00  0.00    +0.000 F 
ATOM     32  F   UNL     1       2.231  13.312  19.606  0.00  0.00    +0.000 F 
ENDBRANCH  25  29
BRANCH  27  33
ATOM     33  C   UNL     1       0.172   9.235  21.973  0.00  0.00    +0.000 C 
ATOM     34  F   UNL     1       1.176   8.841  22.807  0.00  0.00    +0.000 F 
ATOM     35  F   UNL     1      -0.436  10.286  22.583  0.00  0.00    +0.000 F 
ATOM     36  F   UNL     1      -0.734   8.216  21.983  0.00  0.00    +0.000 F 
ENDBRANCH  27  33
ENDBRANCH  22  23
ENDBRANCH  20  22
ENDBRANCH   1  20
TORSDOF 7
ENDMDL
MODEL 4
REMARK VINA RESULT:      -9.0      1.433      2.966
REMARK  Name = 
REMARK  8 active torsions:
REMARK  status: ('A' for Active; 'I' for Inactive)
REMARK    1  A    between atoms: C_1  and  C_2
REMARK    2  A    between atoms: C_2  and  O_3
REMARK    3  A    between atoms: C_2  and  C_21
REMARK    4  A    between atoms: O_3  and  C_4
REMARK    5  A    between atoms: C_9  and  N_10
REMARK    6  A    between atoms: C_13  and  C_14
REMARK    7  A    between atoms: C_23  and  C_24
REMARK    8  A    between atoms: C_29  and  C_30
REMARK                            x       y       z     vdW  Elec       q    Type
REMARK                         _______ _______ _______ _____ _____    ______ ____
ROOT
ATOM      1  C   UNL     1       3.437   5.731  18.511  0.00  0.00    +0.000 C 
ATOM      2  C   UNL     1       3.521   5.063  19.897  0.00  0.00    +0.000 C 
ATOM      3  N   UNL     1       3.232   3.672  19.644  0.00  0.00    +0.000 N 
ATOM      4  C   UNL     1       2.054   3.071  20.046  0.00  0.00    +0.000 C 
ATOM      5  O   UNL     1       1.350   3.410  20.985  0.00  0.00    +0.000 OA
ATOM      6  C   UNL     1       1.729   1.955  19.054  0.00  0.00    +0.000 C 
ATOM      7  C   UNL     1       2.722   2.145  17.906  0.00  0.00    +0.000 C 
ATOM      8  C   UNL     1       3.660   3.266  18.338  0.00  0.00    +0.000 C 
ATOM      9  C   UNL     1       3.583   4.554  17.492  0.00  0.00    +0.000 C 
ENDROOT
BRANCH   9  10
ATOM     10  C   UNL     1       4.788   4.725  16.585  0.00  0.00    +0.000 A 
ATOM     11  C   UNL     1       4.755   4.212  15.279  0.00  0.00    +0.000 A 
ATOM     12  C   UNL     1       5.852   4.371  14.429  0.00  0.00    +0.000 A 
ATOM     13  C   UNL     1       6.981   5.045  14.885  0.00  0.00    +0.000 A 
ATOM     14  F   UNL     1       8.033   5.196  14.064  0.00  0.00    +0.000 F 
ATOM     15  C   UNL     1       7.040   5.553  16.172  0.00  0.00    +0.000 A 
ATOM     16  C   UNL     1       5.946   5.397  17.022  0.00  0.00    +0.000 A 
ENDBRANCH   9  10
BRANCH   6  17
ATOM     17  N   UNL     1       0.339   2.077  18.589  0.00  0.00    +0.000 NA
ATOM     18  H   UNL     1      -0.238   1.408  19.101  0.00  0.00    +0.000 HD
ATOM     19  H   UNL     1       0.314   1.729  17.626  0.00  0.00    +0.000 HD
ENDBRANCH   6  17
BRANCH   1  20
ATOM     20  O   UNL     1       2.189   6.439  18.355  0.00  0.00    +0.000 OA
BRANCH  20  22
ATOM     21  C   UNL     1       3.740   8.173  17.500  0.00  0.00    +0.000 C 
ATOM     22  C   UNL     1       2.288   7.700  17.673  0.00  0.00    +0.000 C 
BRANCH  22  23
ATOM     23  C   UNL     1       1.580   8.812  18.444  0.00  0.00    +0.000 A 
ATOM     24  C   UNL     1       1.804  10.153  18.080  0.00  0.00    +0.000 A 
ATOM     25  C   UNL     1       1.481  11.207  18.951  0.00  0.00    +0.000 A 
ATOM     26  C   UNL     1       0.913  10.902  20.198  0.00  0.00    +0.000 A 
ATOM     27  C   UNL     1       0.653   9.573  20.569  0.00  0.00    +0.000 A 
ATOM     28  C   UNL     1       0.949   8.539  19.666  0.00  0.00    +0.000 A 
BRANCH  25  29
ATOM     29  C   UNL     1       1.834  12.638  18.612  0.00  0.00    +0.000 C 
ATOM     30  F   UNL     1       2.945  12.756  17.833  0.00  0.00    +0.000 F 
ATOM     31  F   UNL     1       0.836  13.282  17.947  0.00  0.00    +0.000 F 
ATOM     32  F   UNL     1       2.082  13.382  19.727  0.00  0.00    +0.000 F 
ENDBRANCH  25  29
BRANCH  27  33
ATOM     33  C   UNL     1       0.167   9.229  21.957  0.00  0.00    +0.000 C 
ATOM     34  F   UNL     1      -0.440  10.271  22.590  0.00  0.00    +0.000 F 
ATOM     35  F   UNL     1      -0.729   8.206  21.967  0.00  0.00    +0.000 F 
ATOM     36  F   UNL     1       1.187   8.846  22.776  0.00  0.00    +0.000 F 
ENDBRANCH  27  33
ENDBRANCH  22  23
ENDBRANCH  20  22
ENDBRANCH   1  20
TORSDOF 7
ENDMDL
MODEL 5
REMARK VINA RESULT:      -8.9      1.224      1.684
REMARK  Name = 
REMARK  8 active torsions:
REMARK  status: ('A' for Active; 'I' for Inactive)
REMARK    1  A    between atoms: C_1  and  C_2
REMARK    2  A    between atoms: C_2  and  O_3
REMARK    3  A    between atoms: C_2  and  C_21
REMARK    4  A    between atoms: O_3  and  C_4
REMARK    5  A    between atoms: C_9  and  N_10
REMARK    6  A    between atoms: C_13  and  C_14
REMARK    7  A    between atoms: C_23  and  C_24
REMARK    8  A    between atoms: C_29  and  C_30
REMARK                            x       y       z     vdW  Elec       q    Type
REMARK                         _______ _______ _______ _____ _____    ______ ____
ROOT
ATOM      1  C   UNL     1       3.368   5.842  18.567  0.00  0.00    +0.000 C 
ATOM      2  C   UNL     1       3.453   5.210  19.970  0.00  0.00    +0.000 C 
ATOM      3  N   UNL     1       3.167   3.813  19.753  0.00  0.00    +0.000 N 
ATOM      4  C   UNL     1       1.991   3.219  20.171  0.00  0.00    +0.000 C 
ATOM      5  O   UNL     1       1.286   3.581  21.100  0.00  0.00    +0.000 OA
ATOM      6  C   UNL     1       1.668   2.078  19.208  0.00  0.00    +0.000 C 
ATOM      7  C   UNL     1       2.661   2.240  18.055  0.00  0.00    +0.000 C 
ATOM      8  C   UNL     1       3.597   3.374  18.458  0.00  0.00    +0.000 C 
ATOM      9  C   UNL     1       3.516   4.639  17.578  0.00  0.00    +0.000 C 
ENDROOT
BRANCH   9  10
ATOM     10  C   UNL     1       4.722   4.789  16.668  0.00  0.00    +0.000 A 
ATOM     11  C   UNL     1       4.671   4.288  15.358  0.00  0.00    +0.000 A 
ATOM     12  C   UNL     1       5.767   4.428  14.504  0.00  0.00    +0.000 A 
ATOM     13  C   UNL     1       6.914   5.072  14.961  0.00  0.00    +0.000 A 
ATOM     14  F   UNL     1       7.965   5.205  14.136  0.00  0.00    +0.000 F 
ATOM     15  C   UNL     1       6.990   5.568  16.251  0.00  0.00    +0.000 A 
ATOM     16  C   UNL     1       5.897   5.430  17.105  0.00  0.00    +0.000 A 
ENDBRANCH   9  10
BRANCH   6  17
ATOM     17  N   UNL     1       0.278   2.184  18.740  0.00  0.00    +0.000 NA
ATOM     18  H   UNL     1       0.282   2.369  17.736  0.00  0.00    +0.000 HD
ATOM     19  H   UNL     1      -0.108   3.045  19.142  0.00  0.00    +0.000 HD
ENDBRANCH   6  17
BRANCH   1  20
ATOM     20  O   UNL     1       2.118   6.543  18.392  0.00  0.00    +0.000 OA
BRANCH  20  22
ATOM     21  C   UNL     1       3.656   8.158  17.313  0.00  0.00    +0.000 C 
ATOM     22  C   UNL     1       2.231   7.844  17.793  0.00  0.00    +0.000 C 
BRANCH  22  23
ATOM     23  C   UNL     1       1.877   8.951  18.785  0.00  0.00    +0.000 A 
ATOM     24  C   UNL     1       1.276   8.610  20.012  0.00  0.00    +0.000 A 
ATOM     25  C   UNL     1       0.613   9.574  20.789  0.00  0.00    +0.000 A 
ATOM     26  C   UNL     1       0.568  10.899  20.328  0.00  0.00    +0.000 A 
ATOM     27  C   UNL     1       1.186  11.267  19.122  0.00  0.00    +0.000 A 
ATOM     28  C   UNL     1       1.876  10.293  18.382  0.00  0.00    +0.000 A 
BRANCH  25  29
ATOM     29  C   UNL     1      -0.136   9.186  22.044  0.00  0.00    +0.000 C 
ATOM     30  F   UNL     1       0.673   8.979  23.120  0.00  0.00    +0.000 F 
ATOM     31  F   UNL     1      -1.043  10.125  22.428  0.00  0.00    +0.000 F 
ATOM     32  F   UNL     1      -0.840   8.029  21.883  0.00  0.00    +0.000 F 
ENDBRANCH  25  29
BRANCH  27  33
ATOM     33  C   UNL     1       1.030  12.658  18.555  0.00  0.00    +0.000 C 
ATOM     34  F   UNL     1       2.020  13.000  17.684  0.00  0.00    +0.000 F 
ATOM     35  F   UNL     1      -0.140  12.829  17.885  0.00  0.00    +0.000 F 
ATOM     36  F   UNL     1       1.051  13.613  19.528  0.00  0.00    +0.000 F 
ENDBRANCH  27  33
ENDBRANCH  22  23
ENDBRANCH  20  22
ENDBRANCH   1  20
TORSDOF 7
ENDMDL
MODEL 6
REMARK VINA RESULT:      -8.9      1.215      1.793
REMARK  Name = 
REMARK  8 active torsions:
REMARK  status: ('A' for Active; 'I' for Inactive)
REMARK    1  A    between atoms: C_1  and  C_2
REMARK    2  A    between atoms: C_2  and  O_3
REMARK    3  A    between atoms: C_2  and  C_21
REMARK    4  A    between atoms: O_3  and  C_4
REMARK    5  A    between atoms: C_9  and  N_10
REMARK    6  A    between atoms: C_13  and  C_14
REMARK    7  A    between atoms: C_23  and  C_24
REMARK    8  A    between atoms: C_29  and  C_30
REMARK                            x       y       z     vdW  Elec       q    Type
REMARK                         _______ _______ _______ _____ _____    ______ ____
ROOT
ATOM      1  C   UNL     1       3.385   5.843  18.570  0.00  0.00    +0.000 C 
ATOM      2  C   UNL     1       3.498   5.214  19.974  0.00  0.00    +0.000 C 
ATOM      3  N   UNL     1       3.213   3.816  19.765  0.00  0.00    +0.000 N 
ATOM      4  C   UNL     1       2.047   3.219  20.206  0.00  0.00    +0.000 C 
ATOM      5  O   UNL     1       1.359   3.581  21.148  0.00  0.00    +0.000 OA
ATOM      6  C   UNL     1       1.710   2.075  19.251  0.00  0.00    +0.000 C 
ATOM      7  C   UNL     1       2.680   2.238  18.080  0.00  0.00    +0.000 C 
ATOM      8  C   UNL     1       3.620   3.375  18.463  0.00  0.00    +0.000 C 
ATOM      9  C   UNL     1       3.519   4.639  17.582  0.00  0.00    +0.000 C 
ENDROOT
BRANCH   9  10
ATOM     10  C   UNL     1       4.706   4.791  16.649  0.00  0.00    +0.000 A 
ATOM     11  C   UNL     1       5.867   5.439  17.099  0.00  0.00    +0.000 A 
ATOM     12  C   UNL     1       6.971   5.577  16.256  0.00  0.00    +0.000 A 
ATOM     13  C   UNL     1       6.916   5.066  14.963  0.00  0.00    +0.000 A 
ATOM     14  F   UNL     1       7.981   5.200  14.157  0.00  0.00    +0.000 F 
ATOM     15  C   UNL     1       5.779   4.429  14.493  0.00  0.00    +0.000 A 
ATOM     16  C   UNL     1       4.675   4.289  15.334  0.00  0.00    +0.000 A 
ENDBRANCH   9  10
BRANCH   6  17
ATOM     17  N   UNL     1       0.311   2.175  18.809  0.00  0.00    +0.000 NA
ATOM     18  H   UNL     1       0.136   3.128  18.488  0.00  0.00    +0.000 HD
ATOM     19  H   UNL     1      -0.274   2.092  19.647  0.00  0.00    +0.000 HD
ENDBRANCH   6  17
BRANCH   1  20
ATOM     20  O   UNL     1       2.130   6.540  18.418  0.00  0.00    +0.000 OA
BRANCH  20  22
ATOM     21  C   UNL     1       3.645   8.161  17.316  0.00  0.00    +0.000 C 
ATOM     22  C   UNL     1       2.227   7.838  17.811  0.00  0.00    +0.000 C 
BRANCH  22  23
ATOM     23  C   UNL     1       1.871   8.947  18.798  0.00  0.00    +0.000 A 
ATOM     24  C   UNL     1       1.274   8.610  20.028  0.00  0.00    +0.000 A 
ATOM     25  C   UNL     1       0.609   9.574  20.803  0.00  0.00    +0.000 A 
ATOM     26  C   UNL     1       0.559  10.898  20.336  0.00  0.00    +0.000 A 
ATOM     27  C   UNL     1       1.173  11.263  19.128  0.00  0.00    +0.000 A 
ATOM     28  C   UNL     1       1.864  10.288  18.389  0.00  0.00    +0.000 A 
BRANCH  25  29
ATOM     29  C   UNL     1      -0.136   9.189  22.061  0.00  0.00    +0.000 C 
ATOM     30  F   UNL     1      -1.009  10.142  22.492  0.00  0.00    +0.000 F 
ATOM     31  F   UNL     1      -0.865   8.049  21.914  0.00  0.00    +0.000 F 
ATOM     32  F   UNL     1       0.709   8.962  23.107  0.00  0.00    +0.000 F 
ENDBRANCH  25  29
BRANCH  27  33
ATOM     33  C   UNL     1       1.010  12.651  18.555  0.00  0.00    +0.000 C 
ATOM     34  F   UNL     1       2.001  12.994  17.685  0.00  0.00    +0.000 F 
ATOM     35  F   UNL     1      -0.159  12.813  17.881  0.00  0.00    +0.000 F 
ATOM     36  F   UNL     1       1.024  13.609  19.525  0.00  0.00    +0.000 F 
ENDBRANCH  27  33
ENDBRANCH  22  23
ENDBRANCH  20  22
ENDBRANCH   1  20
TORSDOF 7
ENDMDL
MODEL 7
REMARK VINA RESULT:      -8.3      0.550      3.050
REMARK  Name = 
REMARK  8 active torsions:
REMARK  status: ('A' for Active; 'I' for Inactive)
REMARK    1  A    between atoms: C_1  and  C_2
REMARK    2  A    between atoms: C_2  and  O_3
REMARK    3  A    between atoms: C_2  and  C_21
REMARK    4  A    between atoms: O_3  and  C_4
REMARK    5  A    between atoms: C_9  and  N_10
REMARK    6  A    between atoms: C_13  and  C_14
REMARK    7  A    between atoms: C_23  and  C_24
REMARK    8  A    between atoms: C_29  and  C_30
REMARK                            x       y       z     vdW  Elec       q    Type
REMARK                         _______ _______ _______ _____ _____    ______ ____
ROOT
ATOM      1  C   UNL     1       3.178   5.910  18.307  0.00  0.00    +0.000 C 
ATOM      2  C   UNL     1       3.215   5.395  19.760  0.00  0.00    +0.000 C 
ATOM      3  N   UNL     1       3.046   3.968  19.640  0.00  0.00    +0.000 N 
ATOM      4  C   UNL     1       1.891   3.318  20.033  0.00  0.00    +0.000 C 
ATOM      5  O   UNL     1       1.101   3.695  20.886  0.00  0.00    +0.000 OA
ATOM      6  C   UNL     1       1.717   2.085  19.148  0.00  0.00    +0.000 C 
ATOM      7  C   UNL     1       2.769   2.235  18.048  0.00  0.00    +0.000 C 
ATOM      8  C   UNL     1       3.591   3.465  18.414  0.00  0.00    +0.000 C 
ATOM      9  C   UNL     1       3.478   4.650  17.431  0.00  0.00    +0.000 C 
ENDROOT
BRANCH   9  10
ATOM     10  C   UNL     1       4.727   4.823  16.586  0.00  0.00    +0.000 A 
ATOM     11  C   UNL     1       4.946   3.979  15.486  0.00  0.00    +0.000 A 
ATOM     12  C   UNL     1       6.085   4.132  14.693  0.00  0.00    +0.000 A 
ATOM     13  C   UNL     1       7.004   5.132  14.997  0.00  0.00    +0.000 A 
ATOM     14  F   UNL     1       8.096   5.276  14.230  0.00  0.00    +0.000 F 
ATOM     15  C   UNL     1       6.814   5.972  16.082  0.00  0.00    +0.000 A 
ATOM     16  C   UNL     1       5.677   5.822  16.875  0.00  0.00    +0.000 A 
ENDBRANCH   9  10
BRANCH   6  17
ATOM     17  N   UNL     1       0.356   2.047  18.590  0.00  0.00    +0.000 NA
ATOM     18  H   UNL     1       0.420   1.959  17.575  0.00  0.00    +0.000 HD
ATOM     19  H   UNL     1      -0.049   2.979  18.726  0.00  0.00    +0.000 HD
ENDBRANCH   6  17
BRANCH   1  20
ATOM     20  O   UNL     1       1.895   6.496  18.001  0.00  0.00    +0.000 OA
BRANCH  20  22
ATOM     21  C   UNL     1       3.273   8.554  18.074  0.00  0.00    +0.000 C 
ATOM     22  C   UNL     1       1.922   7.908  17.733  0.00  0.00    +0.000 C 
BRANCH  22  23
ATOM     23  C   UNL     1       0.884   8.657  18.566  0.00  0.00    +0.000 A 
ATOM     24  C   UNL     1       0.091   9.645  17.952  0.00  0.00    +0.000 A 
ATOM     25  C   UNL     1      -0.606  10.596  18.716  0.00  0.00    +0.000 A 
ATOM     26  C   UNL     1      -0.512  10.538  20.115  0.00  0.00    +0.000 A 
ATOM     27  C   UNL     1       0.249   9.543  20.749  0.00  0.00    +0.000 A 
ATOM     28  C   UNL     1       0.906   8.581  19.965  0.00  0.00    +0.000 A 
BRANCH  25  29
ATOM     29  C   UNL     1      -1.358  11.730  18.056  0.00  0.00    +0.000 C 
ATOM     30  F   UNL     1      -2.451  12.140  18.758  0.00  0.00    +0.000 F 
ATOM     31  F   UNL     1      -0.588  12.837  17.874  0.00  0.00    +0.000 F 
ATOM     32  F   UNL     1      -1.820  11.387  16.820  0.00  0.00    +0.000 F 
ENDBRANCH  25  29
BRANCH  27  33
ATOM     33  C   UNL     1       0.463   9.554  22.244  0.00  0.00    +0.000 C 
ATOM     34  F   UNL     1       1.741   9.255  22.608  0.00  0.00    +0.000 F 
ATOM     35  F   UNL     1       0.179  10.756  22.812  0.00  0.00    +0.000 F 
ATOM     36  F   UNL     1      -0.324   8.640  22.881  0.00  0.00    +0.000 F 
ENDBRANCH  27  33
ENDBRANCH  22  23
ENDBRANCH  20  22
ENDBRANCH   1  20
TORSDOF 7
ENDMDL
MODEL 8
REMARK VINA RESULT:      -8.3      0.659      3.162
REMARK  Name = 
REMARK  8 active torsions:
REMARK  status: ('A' for Active; 'I' for Inactive)
REMARK    1  A    between atoms: C_1  and  C_2
REMARK    2  A    between atoms: C_2  and  O_3
REMARK    3  A    between atoms: C_2  and  C_21
REMARK    4  A    between atoms: O_3  and  C_4
REMARK    5  A    between atoms: C_9  and  N_10
REMARK    6  A    between atoms: C_13  and  C_14
REMARK    7  A    between atoms: C_23  and  C_24
REMARK    8  A    between atoms: C_29  and  C_30
REMARK                            x       y       z     vdW  Elec       q    Type
REMARK                         _______ _______ _______ _____ _____    ______ ____
ROOT
ATOM      1  C   UNL     1       3.183   5.963  18.338  0.00  0.00    +0.000 C 
ATOM      2  C   UNL     1       3.236   5.439  19.787  0.00  0.00    +0.000 C 
ATOM      3  N   UNL     1       3.040   4.015  19.662  0.00  0.00    +0.000 N 
ATOM      4  C   UNL     1       1.880   3.384  20.071  0.00  0.00    +0.000 C 
ATOM      5  O   UNL     1       1.113   3.770  20.940  0.00  0.00    +0.000 OA
ATOM      6  C   UNL     1       1.668   2.160  19.183  0.00  0.00    +0.000 C 
ATOM      7  C   UNL     1       2.704   2.298  18.065  0.00  0.00    +0.000 C 
ATOM      8  C   UNL     1       3.554   3.511  18.423  0.00  0.00    +0.000 C 
ATOM      9  C   UNL     1       3.445   4.703  17.449  0.00  0.00    +0.000 C 
ENDROOT
BRANCH   9  10
ATOM     10  C   UNL     1       4.682   4.859  16.583  0.00  0.00    +0.000 A 
ATOM     11  C   UNL     1       5.661   5.802  16.931  0.00  0.00    +0.000 A 
ATOM     12  C   UNL     1       6.809   5.949  16.150  0.00  0.00    +0.000 A 
ATOM     13  C   UNL     1       6.979   5.152  15.022  0.00  0.00    +0.000 A 
ATOM     14  F   UNL     1       8.086   5.297  14.276  0.00  0.00    +0.000 F 
ATOM     15  C   UNL     1       6.023   4.221  14.654  0.00  0.00    +0.000 A 
ATOM     16  C   UNL     1       4.876   4.071  15.432  0.00  0.00    +0.000 A 
ENDBRANCH   9  10
BRANCH   6  17
ATOM     17  N   UNL     1       0.298   2.150  18.649  0.00  0.00    +0.000 NA
ATOM     18  H   UNL     1       0.342   2.069  17.632  0.00  0.00    +0.000 HD
ATOM     19  H   UNL     1      -0.089   3.087  18.799  0.00  0.00    +0.000 HD
ENDBRANCH   6  17
BRANCH   1  20
ATOM     20  O   UNL     1       1.906   6.574  18.058  0.00  0.00    +0.000 OA
BRANCH  20  22
ATOM     21  C   UNL     1       3.334   8.599  18.047  0.00  0.00    +0.000 C 
ATOM     22  C   UNL     1       1.958   7.979  17.761  0.00  0.00    +0.000 C 
BRANCH  22  23
ATOM     23  C   UNL     1       0.965   8.769  18.611  0.00  0.00    +0.000 A 
ATOM     24  C   UNL     1       0.302   9.875  18.047  0.00  0.00    +0.000 A 
ATOM     25  C   UNL     1      -0.329  10.835  18.855  0.00  0.00    +0.000 A 
ATOM     26  C   UNL     1      -0.302  10.667  20.248  0.00  0.00    +0.000 A 
ATOM     27  C   UNL     1       0.327   9.556  20.832  0.00  0.00    +0.000 A 
ATOM     28  C   UNL     1       0.918   8.590  20.001  0.00  0.00    +0.000 A 
BRANCH  25  29
ATOM     29  C   UNL     1      -0.934  12.085  18.257  0.00  0.00    +0.000 C 
ATOM     30  F   UNL     1      -1.796  12.728  19.094  0.00  0.00    +0.000 F 
ATOM     31  F   UNL     1       0.003  13.006  17.901  0.00  0.00    +0.000 F 
ATOM     32  F   UNL     1      -1.647  11.819  17.126  0.00  0.00    +0.000 F 
ENDBRANCH  25  29
BRANCH  27  33
ATOM     33  C   UNL     1       0.475   9.437  22.330  0.00  0.00    +0.000 C 
ATOM     34  F   UNL     1      -0.314   8.469  22.875  0.00  0.00    +0.000 F 
ATOM     35  F   UNL     1       1.746   9.151  22.716  0.00  0.00    +0.000 F 
ATOM     36  F   UNL     1       0.135  10.591  22.971  0.00  0.00    +0.000 F 
ENDBRANCH  27  33
ENDBRANCH  22  23
ENDBRANCH  20  22
ENDBRANCH   1  20
TORSDOF 7
ENDMDL
MODEL 9
REMARK VINA RESULT:      -8.3      1.616      2.918
REMARK  Name = 
REMARK  8 active torsions:
REMARK  status: ('A' for Active; 'I' for Inactive)
REMARK    1  A    between atoms: C_1  and  C_2
REMARK    2  A    between atoms: C_2  and  O_3
REMARK    3  A    between atoms: C_2  and  C_21
REMARK    4  A    between atoms: O_3  and  C_4
REMARK    5  A    between atoms: C_9  and  N_10
REMARK    6  A    between atoms: C_13  and  C_14
REMARK    7  A    between atoms: C_23  and  C_24
REMARK    8  A    between atoms: C_29  and  C_30
REMARK                            x       y       z     vdW  Elec       q    Type
REMARK                         _______ _______ _______ _____ _____    ______ ____
ROOT
ATOM      1  C   UNL     1       3.356   5.920  18.482  0.00  0.00    +0.000 C 
ATOM      2  C   UNL     1       3.411   5.294  19.890  0.00  0.00    +0.000 C 
ATOM      3  N   UNL     1       3.123   3.897  19.673  0.00  0.00    +0.000 N 
ATOM      4  C   UNL     1       1.936   3.311  20.071  0.00  0.00    +0.000 C 
ATOM      5  O   UNL     1       1.215   3.681  20.985  0.00  0.00    +0.000 OA
ATOM      6  C   UNL     1       1.627   2.167  19.107  0.00  0.00    +0.000 C 
ATOM      7  C   UNL     1       2.642   2.320  17.973  0.00  0.00    +0.000 C 
ATOM      8  C   UNL     1       3.575   3.450  18.389  0.00  0.00    +0.000 C 
ATOM      9  C   UNL     1       3.518   4.712  17.502  0.00  0.00    +0.000 C 
ENDROOT
BRANCH   9  10
ATOM     10  C   UNL     1       4.741   4.853  16.614  0.00  0.00    +0.000 A 
ATOM     11  C   UNL     1       4.792   4.173  15.387  0.00  0.00    +0.000 A 
ATOM     12  C   UNL     1       5.906   4.301  14.555  0.00  0.00    +0.000 A 
ATOM     13  C   UNL     1       6.968   5.110  14.948  0.00  0.00    +0.000 A 
ATOM     14  F   UNL     1       8.035   5.230  14.143  0.00  0.00    +0.000 F 
ATOM     15  C   UNL     1       6.944   5.784  16.157  0.00  0.00    +0.000 A 
ATOM     16  C   UNL     1       5.833   5.659  16.990  0.00  0.00    +0.000 A 
ENDBRANCH   9  10
BRANCH   6  17
ATOM     17  N   UNL     1       0.246   2.278  18.612  0.00  0.00    +0.000 NA
ATOM     18  H   UNL     1      -0.005   3.266  18.556  0.00  0.00    +0.000 HD
ATOM     19  H   UNL     1      -0.366   1.915  19.350  0.00  0.00    +0.000 HD
ENDBRANCH   6  17
BRANCH   1  20
ATOM     20  O   UNL     1       2.114   6.626  18.281  0.00  0.00    +0.000 OA
BRANCH  20  22
ATOM     21  C   UNL     1       3.632   8.452  17.571  0.00  0.00    +0.000 C 
ATOM     22  C   UNL     1       2.223   7.841  17.521  0.00  0.00    +0.000 C 
BRANCH  22  23
ATOM     23  C   UNL     1       1.285   8.922  18.055  0.00  0.00    +0.000 A 
ATOM     24  C   UNL     1      -0.065   8.921  17.656  0.00  0.00    +0.000 A 
ATOM     25  C   UNL     1      -0.871  10.061  17.814  0.00  0.00    +0.000 A 
ATOM     26  C   UNL     1      -0.310  11.209  18.395  0.00  0.00    +0.000 A 
ATOM     27  C   UNL     1       1.026  11.222  18.828  0.00  0.00    +0.000 A 
ATOM     28  C   UNL     1       1.800  10.058  18.694  0.00  0.00    +0.000 A 
BRANCH  25  29
ATOM     29  C   UNL     1      -2.283  10.101  17.274  0.00  0.00    +0.000 C 
ATOM     30  F   UNL     1      -2.854  11.337  17.333  0.00  0.00    +0.000 F 
ATOM     31  F   UNL     1      -2.361   9.710  15.973  0.00  0.00    +0.000 F 
ATOM     32  F   UNL     1      -3.119   9.275  17.965  0.00  0.00    +0.000 F 
ENDBRANCH  25  29
BRANCH  27  33
ATOM     33  C   UNL     1       1.673  12.491  19.331  0.00  0.00    +0.000 C 
ATOM     34  F   UNL     1       2.863  12.765  18.726  0.00  0.00    +0.000 F 
ATOM     35  F   UNL     1       0.895  13.591  19.154  0.00  0.00    +0.000 F 
ATOM     36  F   UNL     1       1.945  12.431  20.666  0.00  0.00    +0.000 F 
ENDBRANCH  27  33
ENDBRANCH  22  23
ENDBRANCH  20  22
ENDBRANCH   1  20
TORSDOF 7
ENDMDL
