MODEL 1
REMARK VINA RESULT:      -7.6      0.000      0.000
REMARK  Name = 
REMARK  8 active torsions:
REMARK  status: ('A' for Active; 'I' for Inactive)
REMARK    1  A    between atoms: C_1  and  O_2
REMARK    2  A    between atoms: O_2  and  C_3
REMARK    3  A    between atoms: C_3  and  C_5
REMARK    4  A    between atoms: C_8  and  O_9
REMARK    5  A    between atoms: O_9  and  C_10
REMARK    6  A    between atoms: C_10  and  C_11
REMARK    7  A    between atoms: C_12  and  C_13
REMARK    8  A    between atoms: C_22  and  C_23
REMARK                            x       y       z     vdW  Elec       q    Type
REMARK                         _______ _______ _______ _____ _____    ______ ____
ROOT
ATOM      1  C   UNL     1       3.145   4.237  19.199  0.00  0.00    +0.000 A 
ATOM      2  C   UNL     1       4.387   3.659  18.770  0.00  0.00    +0.000 A 
ATOM      3  N   UNL     1       4.756   2.677  19.611  0.00  0.00    +0.000 NA
ATOM      4  O   UNL     1       3.793   2.614  20.590  0.00  0.00    +0.000 OA
ATOM      5  C   UNL     1       2.837   3.543  20.351  0.00  0.00    +0.000 A 
ATOM      6  C   UNL     1       1.733   3.605  21.329  0.00  0.00    +0.000 C 
ENDROOT
BRANCH   2   7
ATOM      7  C   UNL     1       5.221   4.018  17.612  0.00  0.00    +0.000 A 
ATOM      8  C   UNL     1       6.432   4.695  17.777  0.00  0.00    +0.000 A 
ATOM      9  C   UNL     1       7.163   5.075  16.649  0.00  0.00    +0.000 A 
ATOM     10  C   UNL     1       6.670   4.763  15.389  0.00  0.00    +0.000 A 
ATOM     11 CL   UNL     1       7.523   5.230  13.976  0.00  0.00    +0.000 Cl
ATOM     12  C   UNL     1       5.471   4.075  15.306  0.00  0.00    +0.000 A 
ATOM     13  N   UNL     1       4.737   3.697  16.383  0.00  0.00    +0.000 NA
ENDBRANCH   2   7
BRANCH   1  14
ATOM     14  C   UNL     1       2.371   5.330  18.537  0.00  0.00    +0.000 C 
BRANCH  14  15
ATOM     15  O   UNL     1       3.045   6.593  18.638  0.00  0.00    +0.000 OA
BRANCH  15  19
ATOM     16  C   UNL     1       0.690   9.459  20.411  0.00  0.00    +0.000 A 
ATOM     17  C   UNL     1       1.035   8.310  21.124  0.00  0.00    +0.000 A 
ATOM     18  C   UNL     1       1.824   7.337  20.507  0.00  0.00    +0.000 A 
ATOM     19  C   UNL     1       2.258   7.565  19.210  0.00  0.00    +0.000 A 
ATOM     20  N   UNL     1       1.924   8.655  18.489  0.00  0.00    +0.000 NA
ATOM     21  C   UNL     1       1.143   9.575  19.104  0.00  0.00    +0.000 A 
BRANCH  16  22
ATOM     22  C   UNL     1      -0.114  10.570  20.967  0.00  0.00    +0.000 C 
ATOM     23  O   UNL     1      -0.887  11.237  20.297  0.00  0.00    +0.000 OA
BRANCH  22  25
ATOM     24  C   UNL     1      -0.996  10.629  23.124  0.00  0.00    +0.000 C 
ATOM     25  O   UNL     1       0.154  10.740  22.283  0.00  0.00    +0.000 OA
ENDBRANCH  22  25
ENDBRANCH  16  22
ENDBRANCH  15  19
ENDBRANCH  14  15
ENDBRANCH   1  14
TORSDOF 6
ENDMDL
MODEL 2
REMARK VINA RESULT:      -7.6      0.610      1.022
REMARK  Name = 
REMARK  8 active torsions:
REMARK  status: ('A' for Active; 'I' for Inactive)
REMARK    1  A    between atoms: C_1  and  O_2
REMARK    2  A    between atoms: O_2  and  C_3
REMARK    3  A    between atoms: C_3  and  C_5
REMARK    4  A    between atoms: C_8  and  O_9
REMARK    5  A    between atoms: O_9  and  C_10
REMARK    6  A    between atoms: C_10  and  C_11
REMARK    7  A    between atoms: C_12  and  C_13
REMARK    8  A    between atoms: C_22  and  C_23
REMARK                            x       y       z     vdW  Elec       q    Type
REMARK                         _______ _______ _______ _____ _____    ______ ____
ROOT
ATOM      1  C   UNL     1       3.202   4.378  19.028  0.00  0.00    +0.000 A 
ATOM      2  C   UNL     1       4.442   3.782  18.618  0.00  0.00    +0.000 A 
ATOM      3  N   UNL     1       4.828   2.854  19.512  0.00  0.00    +0.000 NA
ATOM      4  O   UNL     1       3.877   2.844  20.505  0.00  0.00    +0.000 OA
ATOM      5  C   UNL     1       2.912   3.752  20.223  0.00  0.00    +0.000 A 
ATOM      6  C   UNL     1       1.820   3.866  21.210  0.00  0.00    +0.000 C 
ENDROOT
BRANCH   2   7
ATOM      7  C   UNL     1       5.260   4.077  17.431  0.00  0.00    +0.000 A 
ATOM      8  C   UNL     1       6.503   4.702  17.548  0.00  0.00    +0.000 A 
ATOM      9  C   UNL     1       7.219   5.022  16.392  0.00  0.00    +0.000 A 
ATOM     10  C   UNL     1       6.680   4.704  15.154  0.00  0.00    +0.000 A 
ATOM     11 CL   UNL     1       7.514   5.099  13.708  0.00  0.00    +0.000 Cl
ATOM     12  C   UNL     1       5.450   4.068  15.118  0.00  0.00    +0.000 A 
ATOM     13  N   UNL     1       4.728   3.749  16.224  0.00  0.00    +0.000 NA
ENDBRANCH   2   7
BRANCH   1  14
ATOM     14  C   UNL     1       2.412   5.425  18.312  0.00  0.00    +0.000 C 
BRANCH  14  15
ATOM     15  O   UNL     1       3.073   6.699  18.342  0.00  0.00    +0.000 OA
BRANCH  15  19
ATOM     16  C   UNL     1       0.726   9.678  19.930  0.00  0.00    +0.000 A 
ATOM     17  C   UNL     1       1.083   9.723  18.582  0.00  0.00    +0.000 A 
ATOM     18  C   UNL     1       1.891   8.714  18.056  0.00  0.00    +0.000 A 
ATOM     19  C   UNL     1       2.289   7.685  18.896  0.00  0.00    +0.000 A 
ATOM     20  N   UNL     1       1.977   7.624  20.207  0.00  0.00    +0.000 NA
ATOM     21  C   UNL     1       1.207   8.625  20.696  0.00  0.00    +0.000 A 
BRANCH  16  22
ATOM     22  C   UNL     1      -0.149  10.672  20.590  0.00  0.00    +0.000 C 
ATOM     23  O   UNL     1      -1.093  11.208  20.032  0.00  0.00    +0.000 OA
BRANCH  22  25
ATOM     24  C   UNL     1      -0.796  11.202  22.766  0.00  0.00    +0.000 C 
ATOM     25  O   UNL     1       0.267  10.906  21.857  0.00  0.00    +0.000 OA
ENDBRANCH  22  25
ENDBRANCH  16  22
ENDBRANCH  15  19
ENDBRANCH  14  15
ENDBRANCH   1  14
TORSDOF 6
ENDMDL
MODEL 3
REMARK VINA RESULT:      -7.5      1.337      1.785
REMARK  Name = 
REMARK  8 active torsions:
REMARK  status: ('A' for Active; 'I' for Inactive)
REMARK    1  A    between atoms: C_1  and  O_2
REMARK    2  A    between atoms: O_2  and  C_3
REMARK    3  A    between atoms: C_3  and  C_5
REMARK    4  A    between atoms: C_8  and  O_9
REMARK    5  A    between atoms: O_9  and  C_10
REMARK    6  A    between atoms: C_10  and  C_11
REMARK    7  A    between atoms: C_12  and  C_13
REMARK    8  A    between atoms: C_22  and  C_23
REMARK                            x       y       z     vdW  Elec       q    Type
REMARK                         _______ _______ _______ _____ _____    ______ ____
ROOT
ATOM      1  C   UNL     1       3.109   3.983  19.717  0.00  0.00    +0.000 A 
ATOM      2  C   UNL     1       4.306   3.440  19.139  0.00  0.00    +0.000 A 
ATOM      3  N   UNL     1       4.717   2.371  19.845  0.00  0.00    +0.000 NA
ATOM      4  O   UNL     1       3.825   2.215  20.880  0.00  0.00    +0.000 OA
ATOM      5  C   UNL     1       2.872   3.174  20.809  0.00  0.00    +0.000 A 
ATOM      6  C   UNL     1       1.842   3.145  21.867  0.00  0.00    +0.000 C 
ENDROOT
BRANCH   2   7
ATOM      7  C   UNL     1       5.061   3.910  17.968  0.00  0.00    +0.000 A 
ATOM      8  C   UNL     1       4.492   3.908  16.693  0.00  0.00    +0.000 A 
ATOM      9  C   UNL     1       5.263   4.303  15.597  0.00  0.00    +0.000 A 
ATOM     10  C   UNL     1       6.578   4.696  15.804  0.00  0.00    +0.000 A 
ATOM     11 CL   UNL     1       7.568   5.166  14.485  0.00  0.00    +0.000 Cl
ATOM     12  C   UNL     1       7.068   4.689  17.099  0.00  0.00    +0.000 A 
ATOM     13  N   UNL     1       6.344   4.306  18.182  0.00  0.00    +0.000 NA
ENDBRANCH   2   7
BRANCH   1  14
ATOM     14  C   UNL     1       2.309   5.147  19.230  0.00  0.00    +0.000 C 
BRANCH  14  15
ATOM     15  O   UNL     1       3.124   6.317  19.064  0.00  0.00    +0.000 OA
BRANCH  15  19
ATOM     16  C   UNL     1       0.899   9.774  19.125  0.00  0.00    +0.000 A 
ATOM     17  C   UNL     1       1.010   9.002  20.283  0.00  0.00    +0.000 A 
ATOM     18  C   UNL     1       1.756   7.823  20.247  0.00  0.00    +0.000 A 
ATOM     19  C   UNL     1       2.384   7.477  19.061  0.00  0.00    +0.000 A 
ATOM     20  N   UNL     1       2.280   8.191  17.921  0.00  0.00    +0.000 NA
ATOM     21  C   UNL     1       1.535   9.321  17.977  0.00  0.00    +0.000 A 
BRANCH  16  22
ATOM     22  C   UNL     1       0.161  11.054  19.050  0.00  0.00    +0.000 C 
ATOM     23  O   UNL     1       0.709  12.133  18.886  0.00  0.00    +0.000 OA
BRANCH  22  25
ATOM     24  C   UNL     1      -1.900  10.820  17.986  0.00  0.00    +0.000 C 
ATOM     25  O   UNL     1      -1.167  10.850  19.214  0.00  0.00    +0.000 OA
ENDBRANCH  22  25
ENDBRANCH  16  22
ENDBRANCH  15  19
ENDBRANCH  14  15
ENDBRANCH   1  14
TORSDOF 6
ENDMDL
MODEL 4
REMARK VINA RESULT:      -7.5      2.610      3.959
REMARK  Name = 
REMARK  8 active torsions:
REMARK  status: ('A' for Active; 'I' for Inactive)
REMARK    1  A    between atoms: C_1  and  O_2
REMARK    2  A    between atoms: O_2  and  C_3
REMARK    3  A    between atoms: C_3  and  C_5
REMARK    4  A    between atoms: C_8  and  O_9
REMARK    5  A    between atoms: O_9  and  C_10
REMARK    6  A    between atoms: C_10  and  C_11
REMARK    7  A    between atoms: C_12  and  C_13
REMARK    8  A    between atoms: C_22  and  C_23
REMARK                            x       y       z     vdW  Elec       q    Type
REMARK                         _______ _______ _______ _____ _____    ______ ____
ROOT
ATOM      1  C   UNL     1       5.607   6.310  17.793  0.00  0.00    +0.000 A 
ATOM      2  C   UNL     1       5.489   4.973  18.303  0.00  0.00    +0.000 A 
ATOM      3  N   UNL     1       6.692   4.518  18.694  0.00  0.00    +0.000 NA
ATOM      4  O   UNL     1       7.596   5.521  18.436  0.00  0.00    +0.000 OA
ATOM      5  C   UNL     1       6.955   6.585  17.896  0.00  0.00    +0.000 A 
ATOM      6  C   UNL     1       7.801   7.745  17.550  0.00  0.00    +0.000 C 
ENDROOT
BRANCH   2   7
ATOM      7  C   UNL     1       4.288   4.130  18.410  0.00  0.00    +0.000 A 
ATOM      8  C   UNL     1       3.751   3.492  17.290  0.00  0.00    +0.000 A 
ATOM      9  C   UNL     1       2.574   2.751  17.422  0.00  0.00    +0.000 A 
ATOM     10  C   UNL     1       1.969   2.663  18.668  0.00  0.00    +0.000 A 
ATOM     11 CL   UNL     1       0.510   1.784  18.871  0.00  0.00    +0.000 Cl
ATOM     12  C   UNL     1       2.569   3.308  19.736  0.00  0.00    +0.000 A 
ATOM     13  N   UNL     1       3.710   4.038  19.637  0.00  0.00    +0.000 NA
ENDBRANCH   2   7
BRANCH   1  14
ATOM     14  C   UNL     1       4.514   7.192  17.284  0.00  0.00    +0.000 C 
BRANCH  14  15
ATOM     15  O   UNL     1       3.217   6.674  17.618  0.00  0.00    +0.000 OA
BRANCH  15  19
ATOM     16  C   UNL     1       1.066   9.273  19.968  0.00  0.00    +0.000 A 
ATOM     17  C   UNL     1       1.292   9.580  18.625  0.00  0.00    +0.000 A 
ATOM     18  C   UNL     1       2.036   8.697  17.840  0.00  0.00    +0.000 A 
ATOM     19  C   UNL     1       2.501   7.529  18.424  0.00  0.00    +0.000 A 
ATOM     20  N   UNL     1       2.315   7.214  19.722  0.00  0.00    +0.000 NA
ATOM     21  C   UNL     1       1.607   8.096  20.467  0.00  0.00    +0.000 A 
BRANCH  16  22
ATOM     22  C   UNL     1       0.269  10.114  20.888  0.00  0.00    +0.000 C 
ATOM     23  O   UNL     1       0.032  11.293  20.680  0.00  0.00    +0.000 OA
BRANCH  22  25
ATOM     24  C   UNL     1      -0.707  10.197  23.003  0.00  0.00    +0.000 C 
ATOM     25  O   UNL     1      -0.116   9.402  21.973  0.00  0.00    +0.000 OA
ENDBRANCH  22  25
ENDBRANCH  16  22
ENDBRANCH  15  19
ENDBRANCH  14  15
ENDBRANCH   1  14
TORSDOF 6
ENDMDL
MODEL 5
REMARK VINA RESULT:      -7.4      1.227      1.655
REMARK  Name = 
REMARK  8 active torsions:
REMARK  status: ('A' for Active; 'I' for Inactive)
REMARK    1  A    between atoms: C_1  and  O_2
REMARK    2  A    between atoms: O_2  and  C_3
REMARK    3  A    between atoms: C_3  and  C_5
REMARK    4  A    between atoms: C_8  and  O_9
REMARK    5  A    between atoms: O_9  and  C_10
REMARK    6  A    between atoms: C_10  and  C_11
REMARK    7  A    between atoms: C_12  and  C_13
REMARK    8  A    between atoms: C_22  and  C_23
REMARK                            x       y       z     vdW  Elec       q    Type
REMARK                         _______ _______ _______ _____ _____    ______ ____
ROOT
ATOM      1  C   UNL     1       3.115   4.034  19.537  0.00  0.00    +0.000 A 
ATOM      2  C   UNL     1       4.347   3.470  19.060  0.00  0.00    +0.000 A 
ATOM      3  N   UNL     1       4.720   2.444  19.844  0.00  0.00    +0.000 NA
ATOM      4  O   UNL     1       3.771   2.336  20.833  0.00  0.00    +0.000 OA
ATOM      5  C   UNL     1       2.819   3.283  20.655  0.00  0.00    +0.000 A 
ATOM      6  C   UNL     1       1.729   3.302  21.652  0.00  0.00    +0.000 C 
ENDROOT
BRANCH   2   7
ATOM      7  C   UNL     1       5.166   3.884  17.911  0.00  0.00    +0.000 A 
ATOM      8  C   UNL     1       6.342   4.616  18.088  0.00  0.00    +0.000 A 
ATOM      9  C   UNL     1       7.058   5.044  16.968  0.00  0.00    +0.000 A 
ATOM     10  C   UNL     1       6.586   4.725  15.703  0.00  0.00    +0.000 A 
ATOM     11 CL   UNL     1       7.421   5.250  14.300  0.00  0.00    +0.000 Cl
ATOM     12  C   UNL     1       5.422   3.981  15.606  0.00  0.00    +0.000 A 
ATOM     13  N   UNL     1       4.702   3.555  16.676  0.00  0.00    +0.000 NA
ENDBRANCH   2   7
BRANCH   1  14
ATOM     14  C   UNL     1       2.339   5.164  18.944  0.00  0.00    +0.000 C 
BRANCH  14  15
ATOM     15  O   UNL     1       3.117   6.370  18.890  0.00  0.00    +0.000 OA
BRANCH  15  19
ATOM     16  C   UNL     1       0.815   9.763  19.200  0.00  0.00    +0.000 A 
ATOM     17  C   UNL     1       1.373   9.415  17.968  0.00  0.00    +0.000 A 
ATOM     18  C   UNL     1       2.165   8.269  17.878  0.00  0.00    +0.000 A 
ATOM     19  C   UNL     1       2.344   7.501  19.018  0.00  0.00    +0.000 A 
ATOM     20  N   UNL     1       1.835   7.821  20.225  0.00  0.00    +0.000 NA
ATOM     21  C   UNL     1       1.087   8.948  20.290  0.00  0.00    +0.000 A 
BRANCH  16  22
ATOM     22  C   UNL     1      -0.062  10.935  19.411  0.00  0.00    +0.000 C 
ATOM     23  O   UNL     1      -1.281  10.868  19.405  0.00  0.00    +0.000 OA
BRANCH  22  25
ATOM     24  C   UNL     1       0.276  13.140  18.733  0.00  0.00    +0.000 C 
ATOM     25  O   UNL     1       0.675  12.058  19.579  0.00  0.00    +0.000 OA
ENDBRANCH  22  25
ENDBRANCH  16  22
ENDBRANCH  15  19
ENDBRANCH  14  15
ENDBRANCH   1  14
TORSDOF 6
ENDMDL
MODEL 6
REMARK VINA RESULT:      -7.4      1.526      2.030
REMARK  Name = 
REMARK  8 active torsions:
REMARK  status: ('A' for Active; 'I' for Inactive)
REMARK    1  A    between atoms: C_1  and  O_2
REMARK    2  A    between atoms: O_2  and  C_3
REMARK    3  A    between atoms: C_3  and  C_5
REMARK    4  A    between atoms: C_8  and  O_9
REMARK    5  A    between atoms: O_9  and  C_10
REMARK    6  A    between atoms: C_10  and  C_11
REMARK    7  A    between atoms: C_12  and  C_13
REMARK    8  A    between atoms: C_22  and  C_23
REMARK                            x       y       z     vdW  Elec       q    Type
REMARK                         _______ _______ _______ _____ _____    ______ ____
ROOT
ATOM      1  C   UNL     1       3.257   4.046  19.647  0.00  0.00    +0.000 A 
ATOM      2  C   UNL     1       4.401   3.468  18.999  0.00  0.00    +0.000 A 
ATOM      3  N   UNL     1       4.778   2.347  19.638  0.00  0.00    +0.000 NA
ATOM      4  O   UNL     1       3.918   2.189  20.699  0.00  0.00    +0.000 OA
ATOM      5  C   UNL     1       3.017   3.200  20.710  0.00  0.00    +0.000 A 
ATOM      6  C   UNL     1       2.027   3.174  21.806  0.00  0.00    +0.000 C 
ENDROOT
BRANCH   2   7
ATOM      7  C   UNL     1       5.136   3.953  17.821  0.00  0.00    +0.000 A 
ATOM      8  C   UNL     1       4.554   3.943  16.551  0.00  0.00    +0.000 A 
ATOM      9  C   UNL     1       5.307   4.352  15.449  0.00  0.00    +0.000 A 
ATOM     10  C   UNL     1       6.618   4.767  15.644  0.00  0.00    +0.000 A 
ATOM     11 CL   UNL     1       7.587   5.256  14.316  0.00  0.00    +0.000 Cl
ATOM     12  C   UNL     1       7.120   4.767  16.934  0.00  0.00    +0.000 A 
ATOM     13  N   UNL     1       6.414   4.370  18.024  0.00  0.00    +0.000 NA
ENDBRANCH   2   7
BRANCH   1  14
ATOM     14  C   UNL     1       2.504   5.272  19.247  0.00  0.00    +0.000 C 
BRANCH  14  15
ATOM     15  O   UNL     1       2.536   6.272  20.276  0.00  0.00    +0.000 OA
BRANCH  15  19
ATOM     16  C   UNL     1       1.032   9.861  18.946  0.00  0.00    +0.000 A 
ATOM     17  C   UNL     1       1.691   9.013  18.054  0.00  0.00    +0.000 A 
ATOM     18  C   UNL     1       2.209   7.804  18.519  0.00  0.00    +0.000 A 
ATOM     19  C   UNL     1       2.025   7.478  19.854  0.00  0.00    +0.000 A 
ATOM     20  N   UNL     1       1.411   8.284  20.744  0.00  0.00    +0.000 NA
ATOM     21  C   UNL     1       0.933   9.460  20.271  0.00  0.00    +0.000 A 
BRANCH  16  22
ATOM     22  C   UNL     1       0.416  11.150  18.563  0.00  0.00    +0.000 C 
ATOM     23  O   UNL     1       0.985  12.224  18.682  0.00  0.00    +0.000 OA
BRANCH  22  25
ATOM     24  C   UNL     1      -1.857  11.444  18.988  0.00  0.00    +0.000 C 
ATOM     25  O   UNL     1      -0.843  10.960  18.104  0.00  0.00    +0.000 OA
ENDBRANCH  22  25
ENDBRANCH  16  22
ENDBRANCH  15  19
ENDBRANCH  14  15
ENDBRANCH   1  14
TORSDOF 6
ENDMDL
MODEL 7
REMARK VINA RESULT:      -7.3      2.192      2.615
REMARK  Name = 
REMARK  8 active torsions:
REMARK  status: ('A' for Active; 'I' for Inactive)
REMARK    1  A    between atoms: C_1  and  O_2
REMARK    2  A    between atoms: O_2  and  C_3
REMARK    3  A    between atoms: C_3  and  C_5
REMARK    4  A    between atoms: C_8  and  O_9
REMARK    5  A    between atoms: O_9  and  C_10
REMARK    6  A    between atoms: C_10  and  C_11
REMARK    7  A    between atoms: C_12  and  C_13
REMARK    8  A    between atoms: C_22  and  C_23
REMARK                            x       y       z     vdW  Elec       q    Type
REMARK                         _______ _______ _______ _____ _____    ______ ____
ROOT
ATOM      1  C   UNL     1       2.444   4.230  18.776  0.00  0.00    +0.000 A 
ATOM      2  C   UNL     1       3.559   4.184  17.872  0.00  0.00    +0.000 A 
ATOM      3  N   UNL     1       3.430   3.143  17.031  0.00  0.00    +0.000 NA
ATOM      4  O   UNL     1       2.267   2.497  17.377  0.00  0.00    +0.000 OA
ATOM      5  C   UNL     1       1.682   3.138  18.417  0.00  0.00    +0.000 A 
ATOM      6  C   UNL     1       0.420   2.552  18.913  0.00  0.00    +0.000 C 
ENDROOT
BRANCH   2   7
ATOM      7  C   UNL     1       4.724   5.078  17.798  0.00  0.00    +0.000 A 
ATOM      8  C   UNL     1       5.801   4.935  18.677  0.00  0.00    +0.000 A 
ATOM      9  C   UNL     1       6.859   5.844  18.616  0.00  0.00    +0.000 A 
ATOM     10  C   UNL     1       6.819   6.866  17.678  0.00  0.00    +0.000 A 
ATOM     11 CL   UNL     1       8.087   8.017  17.584  0.00  0.00    +0.000 Cl
ATOM     12  C   UNL     1       5.727   6.933  16.829  0.00  0.00    +0.000 A 
ATOM     13  N   UNL     1       4.682   6.068  16.867  0.00  0.00    +0.000 NA
ENDBRANCH   2   7
BRANCH   1  14
ATOM     14  C   UNL     1       2.178   5.239  19.846  0.00  0.00    +0.000 C 
BRANCH  14  15
ATOM     15  O   UNL     1       2.990   6.411  19.680  0.00  0.00    +0.000 OA
BRANCH  15  19
ATOM     16  C   UNL     1       0.766   9.790  18.943  0.00  0.00    +0.000 A 
ATOM     17  C   UNL     1       1.464   9.180  17.899  0.00  0.00    +0.000 A 
ATOM     18  C   UNL     1       2.227   8.042  18.164  0.00  0.00    +0.000 A 
ATOM     19  C   UNL     1       2.240   7.543  19.457  0.00  0.00    +0.000 A 
ATOM     20  N   UNL     1       1.592   8.121  20.490  0.00  0.00    +0.000 NA
ATOM     21  C   UNL     1       0.874   9.235  20.211  0.00  0.00    +0.000 A 
BRANCH  16  22
ATOM     22  C   UNL     1      -0.097  10.981  18.779  0.00  0.00    +0.000 C 
ATOM     23  O   UNL     1       0.214  12.092  19.177  0.00  0.00    +0.000 OA
BRANCH  22  25
ATOM     24  C   UNL     1      -2.374  11.439  18.577  0.00  0.00    +0.000 C 
ATOM     25  O   UNL     1      -1.257  10.648  18.164  0.00  0.00    +0.000 OA
ENDBRANCH  22  25
ENDBRANCH  16  22
ENDBRANCH  15  19
ENDBRANCH  14  15
ENDBRANCH   1  14
TORSDOF 6
ENDMDL
MODEL 8
REMARK VINA RESULT:      -7.3      2.649      3.973
REMARK  Name = 
REMARK  8 active torsions:
REMARK  status: ('A' for Active; 'I' for Inactive)
REMARK    1  A    between atoms: C_1  and  O_2
REMARK    2  A    between atoms: O_2  and  C_3
REMARK    3  A    between atoms: C_3  and  C_5
REMARK    4  A    between atoms: C_8  and  O_9
REMARK    5  A    between atoms: O_9  and  C_10
REMARK    6  A    between atoms: C_10  and  C_11
REMARK    7  A    between atoms: C_12  and  C_13
REMARK    8  A    between atoms: C_22  and  C_23
REMARK                            x       y       z     vdW  Elec       q    Type
REMARK                         _______ _______ _______ _____ _____    ______ ____
ROOT
ATOM      1  C   UNL     1       5.649   6.392  17.727  0.00  0.00    +0.000 A 
ATOM      2  C   UNL     1       5.513   5.079  18.293  0.00  0.00    +0.000 A 
ATOM      3  N   UNL     1       6.701   4.646  18.750  0.00  0.00    +0.000 NA
ATOM      4  O   UNL     1       7.613   5.638  18.478  0.00  0.00    +0.000 OA
ATOM      5  C   UNL     1       6.992   6.674  17.866  0.00  0.00    +0.000 A 
ATOM      6  C   UNL     1       7.850   7.819  17.499  0.00  0.00    +0.000 C 
ENDROOT
BRANCH   2   7
ATOM      7  C   UNL     1       4.309   4.240  18.395  0.00  0.00    +0.000 A 
ATOM      8  C   UNL     1       3.796   3.574  17.280  0.00  0.00    +0.000 A 
ATOM      9  C   UNL     1       2.616   2.838  17.405  0.00  0.00    +0.000 A 
ATOM     10  C   UNL     1       1.983   2.780  18.639  0.00  0.00    +0.000 A 
ATOM     11 CL   UNL     1       0.520   1.908  18.832  0.00  0.00    +0.000 Cl
ATOM     12  C   UNL     1       2.561   3.452  19.703  0.00  0.00    +0.000 A 
ATOM     13  N   UNL     1       3.705   4.179  19.611  0.00  0.00    +0.000 NA
ENDBRANCH   2   7
BRANCH   1  14
ATOM     14  C   UNL     1       4.575   7.247  17.138  0.00  0.00    +0.000 C 
BRANCH  14  15
ATOM     15  O   UNL     1       3.268   6.778  17.499  0.00  0.00    +0.000 OA
BRANCH  15  19
ATOM     16  C   UNL     1       1.150   9.509  19.727  0.00  0.00    +0.000 A 
ATOM     17  C   UNL     1       1.557   8.308  20.310  0.00  0.00    +0.000 A 
ATOM     18  C   UNL     1       2.264   7.382  19.541  0.00  0.00    +0.000 A 
ATOM     19  C   UNL     1       2.557   7.707  18.225  0.00  0.00    +0.000 A 
ATOM     20  N   UNL     1       2.160   8.849  17.628  0.00  0.00    +0.000 NA
ATOM     21  C   UNL     1       1.461   9.723  18.391  0.00  0.00    +0.000 A 
BRANCH  16  22
ATOM     22  C   UNL     1       0.424  10.577  20.449  0.00  0.00    +0.000 C 
ATOM     23  O   UNL     1       0.939  11.271  21.311  0.00  0.00    +0.000 OA
BRANCH  22  25
ATOM     24  C   UNL     1      -1.282  11.953  19.655  0.00  0.00    +0.000 C 
ATOM     25  O   UNL     1      -0.864  10.640  20.036  0.00  0.00    +0.000 OA
ENDBRANCH  22  25
ENDBRANCH  16  22
ENDBRANCH  15  19
ENDBRANCH  14  15
ENDBRANCH   1  14
TORSDOF 6
ENDMDL
MODEL 9
REMARK VINA RESULT:      -7.3      3.607      7.489
REMARK  Name = 
REMARK  8 active torsions:
REMARK  status: ('A' for Active; 'I' for Inactive)
REMARK    1  A    between atoms: C_1  and  O_2
REMARK    2  A    between atoms: O_2  and  C_3
REMARK    3  A    between atoms: C_3  and  C_5
REMARK    4  A    between atoms: C_8  and  O_9
REMARK    5  A    between atoms: O_9  and  C_10
REMARK    6  A    between atoms: C_10  and  C_11
REMARK    7  A    between atoms: C_12  and  C_13
REMARK    8  A    between atoms: C_22  and  C_23
REMARK                            x       y       z     vdW  Elec       q    Type
REMARK                         _______ _______ _______ _____ _____    ______ ____
ROOT
ATOM      1  C   UNL     1       3.458   3.921  19.003  0.00  0.00    +0.000 A 
ATOM      2  C   UNL     1       2.273   4.717  18.845  0.00  0.00    +0.000 A 
ATOM      3  N   UNL     1       1.300   3.988  18.270  0.00  0.00    +0.000 NA
ATOM      4  O   UNL     1       1.828   2.741  18.033  0.00  0.00    +0.000 OA
ATOM      5  C   UNL     1       3.111   2.700  18.463  0.00  0.00    +0.000 A 
ATOM      6  C   UNL     1       3.821   1.420  18.265  0.00  0.00    +0.000 C 
ENDROOT
BRANCH   2   7
ATOM      7  C   UNL     1       2.053   6.126  19.205  0.00  0.00    +0.000 A 
ATOM      8  C   UNL     1       1.678   6.490  20.500  0.00  0.00    +0.000 A 
ATOM      9  C   UNL     1       1.417   7.832  20.786  0.00  0.00    +0.000 A 
ATOM     10  C   UNL     1       1.544   8.774  19.775  0.00  0.00    +0.000 A 
ATOM     11 CL   UNL     1       1.211  10.430  20.075  0.00  0.00    +0.000 Cl
ATOM     12  C   UNL     1       1.937   8.340  18.520  0.00  0.00    +0.000 A 
ATOM     13  N   UNL     1       2.192   7.042  18.211  0.00  0.00    +0.000 NA
ENDBRANCH   2   7
BRANCH   1  14
ATOM     14  C   UNL     1       4.754   4.329  19.622  0.00  0.00    +0.000 C 
BRANCH  14  15
ATOM     15  O   UNL     1       5.262   5.538  19.037  0.00  0.00    +0.000 OA
BRANCH  15  19
ATOM     16  C   UNL     1       6.490   5.046  15.144  0.00  0.00    +0.000 A 
ATOM     17  C   UNL     1       5.461   5.942  15.437  0.00  0.00    +0.000 A 
ATOM     18  C   UNL     1       5.043   6.091  16.760  0.00  0.00    +0.000 A 
ATOM     19  C   UNL     1       5.690   5.356  17.742  0.00  0.00    +0.000 A 
ATOM     20  N   UNL     1       6.673   4.469  17.488  0.00  0.00    +0.000 NA
ATOM     21  C   UNL     1       7.047   4.329  16.195  0.00  0.00    +0.000 A 
BRANCH  16  22
ATOM     22  C   UNL     1       7.037   4.825  13.787  0.00  0.00    +0.000 C 
ATOM     23  O   UNL     1       7.830   5.585  13.254  0.00  0.00    +0.000 OA
BRANCH  22  25
ATOM     24  C   UNL     1       6.781   3.568  11.842  0.00  0.00    +0.000 C 
ATOM     25  O   UNL     1       6.516   3.702  13.240  0.00  0.00    +0.000 OA
ENDBRANCH  22  25
ENDBRANCH  16  22
ENDBRANCH  15  19
ENDBRANCH  14  15
ENDBRANCH   1  14
TORSDOF 6
ENDMDL
