MODEL 1
REMARK VINA RESULT:      -7.6      0.000      0.000
REMARK  Name = 
REMARK  11 active torsions:
REMARK  status: ('A' for Active; 'I' for Inactive)
REMARK    1  A    between atoms: N_1  and  C_2
REMARK    2  A    between atoms: C_8  and  O_9
REMARK    3  A    between atoms: O_9  and  C_10
REMARK    4  A    between atoms: C_10  and  C_11
REMARK    5  A    between atoms: C_11  and  N_12
REMARK    6  A    between atoms: N_12  and  S_13
REMARK    7  A    between atoms: S_13  and  C_16
REMARK    8  A    between atoms: C_16  and  C_17
REMARK    9  A    between atoms: C_17  and  C_18
REMARK   10  A    between atoms: C_23  and  C_24
REMARK   11  A    between atoms: C_24  and  C_25
REMARK                            x       y       z     vdW  Elec       q    Type
REMARK                         _______ _______ _______ _____ _____    ______ ____
ROOT
ATOM      1  C   UNL     1       2.432   4.111  17.360  0.00  0.00    +0.000 C 
ATOM      2  C   UNL     1       3.152   2.870  17.889  0.00  0.00    +0.000 C 
ATOM      3  C   UNL     1       4.651   2.934  17.605  0.00  0.00    +0.000 C 
ATOM      4  C   UNL     1       5.257   4.318  17.551  0.00  0.00    +0.000 A 
ATOM      5  C   UNL     1       6.640   4.422  17.340  0.00  0.00    +0.000 A 
ATOM      6  C   UNL     1       7.257   5.670  17.241  0.00  0.00    +0.000 A 
ATOM      7  C   UNL     1       6.502   6.835  17.345  0.00  0.00    +0.000 A 
ATOM      8  C   UNL     1       5.130   6.744  17.592  0.00  0.00    +0.000 A 
ATOM      9  C   UNL     1       4.495   5.493  17.692  0.00  0.00    +0.000 A 
ATOM     10  C   UNL     1       3.002   5.418  17.992  0.00  0.00    +0.000 C 
ENDROOT
BRANCH   1  11
ATOM     11  N   UNL     1       0.981   3.953  17.447  0.00  0.00    +0.000 NA
ATOM     12  H   UNL     1       0.553   3.849  16.530  0.00  0.00    +0.000 HD
ATOM     13  H   UNL     1       0.721   3.155  18.022  0.00  0.00    +0.000 HD
ENDBRANCH   1  11
BRANCH   7  14
ATOM     14  O   UNL     1       7.005   8.107  17.255  0.00  0.00    +0.000 OA
BRANCH  14  15
ATOM     15  C   UNL     1       8.244   8.323  17.942  0.00  0.00    +0.000 C 
BRANCH  15  16
ATOM     16  C   UNL     1       8.520   9.823  18.050  0.00  0.00    +0.000 C 
BRANCH  16  17
ATOM     17  N   UNL     1       9.226  10.143  19.307  0.00  0.00    +0.000 NA
ATOM     18  H   UNL     1       9.779   9.392  19.724  0.00  0.00    +0.000 HD
BRANCH  17  19
ATOM     19  S   UNL     1      10.056  11.604  19.382  0.00  0.00    +0.000 S 
ATOM     20  O   UNL     1      11.396  11.320  18.929  0.00  0.00    +0.000 OA
ATOM     21  O   UNL     1       9.243  12.595  18.711  0.00  0.00    +0.000 OA
BRANCH  19  22
ATOM     22  C   UNL     1      10.079  11.933  21.135  0.00  0.00    +0.000 C 
BRANCH  22  23
ATOM     23  C   UNL     1       8.665  11.949  21.690  0.00  0.00    +0.000 C 
BRANCH  23  24
ATOM     24  C   UNL     1       8.635  12.401  23.121  0.00  0.00    +0.000 C 
ATOM     25  C   UNL     1       7.512  13.261  23.646  0.00  0.00    +0.000 C 
ATOM     26  C   UNL     1       7.610  11.820  24.058  0.00  0.00    +0.000 C 
ENDBRANCH  23  24
ENDBRANCH  22  23
ENDBRANCH  19  22
ENDBRANCH  17  19
ENDBRANCH  16  17
ENDBRANCH  15  16
ENDBRANCH  14  15
ENDBRANCH   7  14
BRANCH  10  27
ATOM     27  C   UNL     1       2.669   5.702  19.496  0.00  0.00    +0.000 C 
BRANCH  27  28
ATOM     28  C   UNL     1       2.105   7.063  19.860  0.00  0.00    +0.000 A 
ATOM     29  C   UNL     1       1.504   7.289  21.104  0.00  0.00    +0.000 A 
ATOM     30  C   UNL     1       0.750   8.439  21.338  0.00  0.00    +0.000 A 
ATOM     31  C   UNL     1       0.669   9.430  20.362  0.00  0.00    +0.000 A 
ATOM     32 CL   UNL     1      -0.366  10.777  20.670  0.00  0.00    +0.000 Cl
ATOM     33  C   UNL     1       1.394   9.290  19.174  0.00  0.00    +0.000 A 
ATOM     34 CL   UNL     1       1.404  10.510  17.952  0.00  0.00    +0.000 Cl
ATOM     35  C   UNL     1       2.112   8.111  18.926  0.00  0.00    +0.000 A 
ENDBRANCH  27  28
ENDBRANCH  10  27
TORSDOF 11
ENDMDL
MODEL 2
REMARK VINA RESULT:      -7.5      2.166      3.037
REMARK  Name = 
REMARK  11 active torsions:
REMARK  status: ('A' for Active; 'I' for Inactive)
REMARK    1  A    between atoms: N_1  and  C_2
REMARK    2  A    between atoms: C_8  and  O_9
REMARK    3  A    between atoms: O_9  and  C_10
REMARK    4  A    between atoms: C_10  and  C_11
REMARK    5  A    between atoms: C_11  and  N_12
REMARK    6  A    between atoms: N_12  and  S_13
REMARK    7  A    between atoms: S_13  and  C_16
REMARK    8  A    between atoms: C_16  and  C_17
REMARK    9  A    between atoms: C_17  and  C_18
REMARK   10  A    between atoms: C_23  and  C_24
REMARK   11  A    between atoms: C_24  and  C_25
REMARK                            x       y       z     vdW  Elec       q    Type
REMARK                         _______ _______ _______ _____ _____    ______ ____
ROOT
ATOM      1  C   UNL     1       2.643   4.368  17.576  0.00  0.00    +0.000 C 
ATOM      2  C   UNL     1       3.186   3.296  18.521  0.00  0.00    +0.000 C 
ATOM      3  C   UNL     1       4.713   3.251  18.491  0.00  0.00    +0.000 C 
ATOM      4  C   UNL     1       5.408   4.558  18.187  0.00  0.00    +0.000 A 
ATOM      5  C   UNL     1       6.811   4.574  18.196  0.00  0.00    +0.000 A 
ATOM      6  C   UNL     1       7.516   5.738  17.886  0.00  0.00    +0.000 A 
ATOM      7  C   UNL     1       6.831   6.904  17.556  0.00  0.00    +0.000 A 
ATOM      8  C   UNL     1       5.434   6.911  17.580  0.00  0.00    +0.000 A 
ATOM      9  C   UNL     1       4.711   5.744  17.889  0.00  0.00    +0.000 A 
ATOM     10  C   UNL     1       3.188   5.783  17.938  0.00  0.00    +0.000 C 
ENDROOT
BRANCH   1  11
ATOM     11  N   UNL     1       1.189   4.269  17.452  0.00  0.00    +0.000 NA
ATOM     12  H   UNL     1       0.767   3.810  18.256  0.00  0.00    +0.000 HD
ATOM     13  H   UNL     1       0.756   5.182  17.332  0.00  0.00    +0.000 HD
ENDBRANCH   1  11
BRANCH   7  14
ATOM     14  O   UNL     1       7.424   8.096  17.230  0.00  0.00    +0.000 OA
BRANCH  14  15
ATOM     15  C   UNL     1       8.559   8.453  18.028  0.00  0.00    +0.000 C 
BRANCH  15  16
ATOM     16  C   UNL     1       8.457   9.919  18.448  0.00  0.00    +0.000 C 
BRANCH  16  17
ATOM     17  N   UNL     1       9.520  10.271  19.410  0.00  0.00    +0.000 NA
ATOM     18  H   UNL     1      10.374   9.712  19.371  0.00  0.00    +0.000 HD
BRANCH  17  19
ATOM     19  S   UNL     1       9.885  11.901  19.603  0.00  0.00    +0.000 S 
ATOM     20  O   UNL     1       8.616  12.586  19.651  0.00  0.00    +0.000 OA
ATOM     21  O   UNL     1      10.823  12.005  20.700  0.00  0.00    +0.000 OA
BRANCH  19  22
ATOM     22  C   UNL     1      10.709  12.286  18.069  0.00  0.00    +0.000 C 
BRANCH  22  23
ATOM     23  C   UNL     1      10.116  13.540  17.448  0.00  0.00    +0.000 C 
BRANCH  23  24
ATOM     24  C   UNL     1      10.885  14.769  17.835  0.00  0.00    +0.000 C 
ATOM     25  C   UNL     1      12.032  15.270  16.993  0.00  0.00    +0.000 C 
ATOM     26  C   UNL     1      10.733  16.024  17.018  0.00  0.00    +0.000 C 
ENDBRANCH  23  24
ENDBRANCH  22  23
ENDBRANCH  19  22
ENDBRANCH  17  19
ENDBRANCH  16  17
ENDBRANCH  15  16
ENDBRANCH  14  15
ENDBRANCH   7  14
BRANCH  10  27
ATOM     27  C   UNL     1       2.640   6.462  19.240  0.00  0.00    +0.000 C 
BRANCH  27  28
ATOM     28  C   UNL     1       1.972   7.819  19.113  0.00  0.00    +0.000 A 
ATOM     29  C   UNL     1       2.041   8.551  17.922  0.00  0.00    +0.000 A 
ATOM     30  C   UNL     1       1.673   9.896  17.884  0.00  0.00    +0.000 A 
ATOM     31  C   UNL     1       1.134  10.503  19.016  0.00  0.00    +0.000 A 
ATOM     32 CL   UNL     1       0.800  12.195  18.937  0.00  0.00    +0.000 Cl
ATOM     33  C   UNL     1       0.912   9.742  20.168  0.00  0.00    +0.000 A 
ATOM     34 CL   UNL     1       0.177  10.404  21.584  0.00  0.00    +0.000 Cl
ATOM     35  C   UNL     1       1.327   8.403  20.214  0.00  0.00    +0.000 A 
ENDBRANCH  27  28
ENDBRANCH  10  27
TORSDOF 11
ENDMDL
MODEL 3
REMARK VINA RESULT:      -7.4      1.007      1.621
REMARK  Name = 
REMARK  11 active torsions:
REMARK  status: ('A' for Active; 'I' for Inactive)
REMARK    1  A    between atoms: N_1  and  C_2
REMARK    2  A    between atoms: C_8  and  O_9
REMARK    3  A    between atoms: O_9  and  C_10
REMARK    4  A    between atoms: C_10  and  C_11
REMARK    5  A    between atoms: C_11  and  N_12
REMARK    6  A    between atoms: N_12  and  S_13
REMARK    7  A    between atoms: S_13  and  C_16
REMARK    8  A    between atoms: C_16  and  C_17
REMARK    9  A    between atoms: C_17  and  C_18
REMARK   10  A    between atoms: C_23  and  C_24
REMARK   11  A    between atoms: C_24  and  C_25
REMARK                            x       y       z     vdW  Elec       q    Type
REMARK                         _______ _______ _______ _____ _____    ______ ____
ROOT
ATOM      1  C   UNL     1       2.672   4.453  17.489  0.00  0.00    +0.000 C 
ATOM      2  C   UNL     1       3.203   3.333  18.384  0.00  0.00    +0.000 C 
ATOM      3  C   UNL     1       4.724   3.221  18.289  0.00  0.00    +0.000 C 
ATOM      4  C   UNL     1       5.466   4.502  17.988  0.00  0.00    +0.000 A 
ATOM      5  C   UNL     1       6.867   4.455  17.939  0.00  0.00    +0.000 A 
ATOM      6  C   UNL     1       7.612   5.593  17.628  0.00  0.00    +0.000 A 
ATOM      7  C   UNL     1       6.969   6.798  17.356  0.00  0.00    +0.000 A 
ATOM      8  C   UNL     1       5.576   6.867  17.439  0.00  0.00    +0.000 A 
ATOM      9  C   UNL     1       4.813   5.726  17.749  0.00  0.00    +0.000 A 
ATOM     10  C   UNL     1       3.296   5.832  17.862  0.00  0.00    +0.000 C 
ENDROOT
BRANCH   1  11
ATOM     11  N   UNL     1       1.211   4.423  17.423  0.00  0.00    +0.000 NA
ATOM     12  H   UNL     1       0.831   3.549  17.779  0.00  0.00    +0.000 HD
ATOM     13  H   UNL     1       0.793   5.195  17.937  0.00  0.00    +0.000 HD
ENDBRANCH   1  11
BRANCH   7  14
ATOM     14  O   UNL     1       7.602   7.970  17.034  0.00  0.00    +0.000 OA
BRANCH  14  15
ATOM     15  C   UNL     1       7.686   8.930  18.094  0.00  0.00    +0.000 C 
BRANCH  15  16
ATOM     16  C   UNL     1       8.717  10.001  17.741  0.00  0.00    +0.000 C 
BRANCH  16  17
ATOM     17  N   UNL     1       9.468  10.430  18.939  0.00  0.00    +0.000 NA
ATOM     18  H   UNL     1       9.907   9.691  19.491  0.00  0.00    +0.000 HD
BRANCH  17  19
ATOM     19  S   UNL     1      10.501  11.747  18.779  0.00  0.00    +0.000 S 
ATOM     20  O   UNL     1      11.634  11.465  19.626  0.00  0.00    +0.000 OA
ATOM     21  O   UNL     1      10.677  11.986  17.363  0.00  0.00    +0.000 OA
BRANCH  19  22
ATOM     22  C   UNL     1       9.540  13.068  19.496  0.00  0.00    +0.000 C 
BRANCH  22  23
ATOM     23  C   UNL     1      10.134  13.493  20.828  0.00  0.00    +0.000 C 
BRANCH  23  24
ATOM     24  C   UNL     1       9.595  12.675  21.964  0.00  0.00    +0.000 C 
ATOM     25  C   UNL     1       8.716  13.290  23.024  0.00  0.00    +0.000 C 
ATOM     26  C   UNL     1       8.126  12.352  22.011  0.00  0.00    +0.000 C 
ENDBRANCH  23  24
ENDBRANCH  22  23
ENDBRANCH  19  22
ENDBRANCH  17  19
ENDBRANCH  16  17
ENDBRANCH  15  16
ENDBRANCH  14  15
ENDBRANCH   7  14
BRANCH  10  27
ATOM     27  C   UNL     1       2.833   6.500  19.202  0.00  0.00    +0.000 C 
BRANCH  27  28
ATOM     28  C   UNL     1       2.066   7.807  19.121  0.00  0.00    +0.000 A 
ATOM     29  C   UNL     1       2.036   8.558  17.941  0.00  0.00    +0.000 A 
ATOM     30  C   UNL     1       1.571   9.874  17.938  0.00  0.00    +0.000 A 
ATOM     31  C   UNL     1       1.035  10.426  19.100  0.00  0.00    +0.000 A 
ATOM     32 CL   UNL     1       0.579  12.090  19.060  0.00  0.00    +0.000 Cl
ATOM     33  C   UNL     1       0.913   9.635  20.247  0.00  0.00    +0.000 A 
ATOM     34 CL   UNL     1       0.190  10.225  21.700  0.00  0.00    +0.000 Cl
ATOM     35  C   UNL     1       1.425   8.330  20.256  0.00  0.00    +0.000 A 
ENDBRANCH  27  28
ENDBRANCH  10  27
TORSDOF 11
ENDMDL
MODEL 4
REMARK VINA RESULT:      -7.3      4.655      8.093
REMARK  Name = 
REMARK  11 active torsions:
REMARK  status: ('A' for Active; 'I' for Inactive)
REMARK    1  A    between atoms: N_1  and  C_2
REMARK    2  A    between atoms: C_8  and  O_9
REMARK    3  A    between atoms: O_9  and  C_10
REMARK    4  A    between atoms: C_10  and  C_11
REMARK    5  A    between atoms: C_11  and  N_12
REMARK    6  A    between atoms: N_12  and  S_13
REMARK    7  A    between atoms: S_13  and  C_16
REMARK    8  A    between atoms: C_16  and  C_17
REMARK    9  A    between atoms: C_17  and  C_18
REMARK   10  A    between atoms: C_23  and  C_24
REMARK   11  A    between atoms: C_24  and  C_25
REMARK                            x       y       z     vdW  Elec       q    Type
REMARK                         _______ _______ _______ _____ _____    ______ ____
ROOT
ATOM      1  C   UNL     1      -0.949  11.204  21.430  0.00  0.00    +0.000 C 
ATOM      2  C   UNL     1      -0.519  10.595  22.765  0.00  0.00    +0.000 C 
ATOM      3  C   UNL     1       0.045   9.187  22.578  0.00  0.00    +0.000 C 
ATOM      4  C   UNL     1       0.720   8.915  21.254  0.00  0.00    +0.000 A 
ATOM      5  C   UNL     1       1.294   7.650  21.056  0.00  0.00    +0.000 A 
ATOM      6  C   UNL     1       1.900   7.320  19.844  0.00  0.00    +0.000 A 
ATOM      7  C   UNL     1       1.938   8.246  18.805  0.00  0.00    +0.000 A 
ATOM      8  C   UNL     1       1.403   9.521  19.002  0.00  0.00    +0.000 A 
ATOM      9  C   UNL     1       0.788   9.867  20.219  0.00  0.00    +0.000 A 
ATOM     10  C   UNL     1       0.238  11.274  20.422  0.00  0.00    +0.000 C 
ENDROOT
BRANCH   1  11
ATOM     11  N   UNL     1      -1.673  12.458  21.636  0.00  0.00    +0.000 NA
ATOM     12  H   UNL     1      -1.097  13.161  22.091  0.00  0.00    +0.000 HD
ATOM     13  H   UNL     1      -2.025  12.839  20.761  0.00  0.00    +0.000 HD
ENDBRANCH   1  11
BRANCH   7  14
ATOM     14  O   UNL     1       2.499   8.022  17.574  0.00  0.00    +0.000 OA
BRANCH  14  15
ATOM     15  C   UNL     1       3.930   7.953  17.560  0.00  0.00    +0.000 C 
BRANCH  15  16
ATOM     16  C   UNL     1       4.376   6.532  17.216  0.00  0.00    +0.000 C 
BRANCH  16  17
ATOM     17  N   UNL     1       5.216   5.965  18.290  0.00  0.00    +0.000 NA
ATOM     18  H   UNL     1       4.920   6.155  19.250  0.00  0.00    +0.000 HD
BRANCH  17  19
ATOM     19  S   UNL     1       5.713   4.367  18.127  0.00  0.00    +0.000 S 
ATOM     20  O   UNL     1       6.982   4.417  17.442  0.00  0.00    +0.000 OA
ATOM     21  O   UNL     1       5.599   3.746  19.428  0.00  0.00    +0.000 OA
BRANCH  19  22
ATOM     22  C   UNL     1       4.474   3.699  17.031  0.00  0.00    +0.000 C 
BRANCH  22  23
ATOM     23  C   UNL     1       3.660   2.630  17.740  0.00  0.00    +0.000 C 
BRANCH  23  24
ATOM     24  C   UNL     1       2.186   2.874  17.607  0.00  0.00    +0.000 C 
ATOM     25  C   UNL     1       1.331   3.181  18.811  0.00  0.00    +0.000 C 
ATOM     26  C   UNL     1       1.644   4.262  17.817  0.00  0.00    +0.000 C 
ENDBRANCH  23  24
ENDBRANCH  22  23
ENDBRANCH  19  22
ENDBRANCH  17  19
ENDBRANCH  16  17
ENDBRANCH  15  16
ENDBRANCH  14  15
ENDBRANCH   7  14
BRANCH  10  27
ATOM     27  C   UNL     1       1.361  12.331  20.695  0.00  0.00    +0.000 C 
BRANCH  27  28
ATOM     28  C   UNL     1       1.585  13.420  19.662  0.00  0.00    +0.000 A 
ATOM     29  C   UNL     1       2.771  13.484  18.922  0.00  0.00    +0.000 A 
ATOM     30  C   UNL     1       3.095  14.620  18.180  0.00  0.00    +0.000 A 
ATOM     31  C   UNL     1       2.188  15.674  18.088  0.00  0.00    +0.000 A 
ATOM     32 CL   UNL     1       2.692  17.095  17.247  0.00  0.00    +0.000 Cl
ATOM     33  C   UNL     1       0.933  15.559  18.693  0.00  0.00    +0.000 A 
ATOM     34 CL   UNL     1      -0.272  16.789  18.558  0.00  0.00    +0.000 Cl
ATOM     35  C   UNL     1       0.632  14.434  19.475  0.00  0.00    +0.000 A 
ENDBRANCH  27  28
ENDBRANCH  10  27
TORSDOF 11
ENDMDL
MODEL 5
REMARK VINA RESULT:      -7.1      4.443      7.677
REMARK  Name = 
REMARK  11 active torsions:
REMARK  status: ('A' for Active; 'I' for Inactive)
REMARK    1  A    between atoms: N_1  and  C_2
REMARK    2  A    between atoms: C_8  and  O_9
REMARK    3  A    between atoms: O_9  and  C_10
REMARK    4  A    between atoms: C_10  and  C_11
REMARK    5  A    between atoms: C_11  and  N_12
REMARK    6  A    between atoms: N_12  and  S_13
REMARK    7  A    between atoms: S_13  and  C_16
REMARK    8  A    between atoms: C_16  and  C_17
REMARK    9  A    between atoms: C_17  and  C_18
REMARK   10  A    between atoms: C_23  and  C_24
REMARK   11  A    between atoms: C_24  and  C_25
REMARK                            x       y       z     vdW  Elec       q    Type
REMARK                         _______ _______ _______ _____ _____    ______ ____
ROOT
ATOM      1  C   UNL     1      -0.588  10.732  18.606  0.00  0.00    +0.000 C 
ATOM      2  C   UNL     1      -0.628  10.994  20.112  0.00  0.00    +0.000 C 
ATOM      3  C   UNL     1      -0.173   9.767  20.901  0.00  0.00    +0.000 C 
ATOM      4  C   UNL     1       0.830   8.870  20.213  0.00  0.00    +0.000 A 
ATOM      5  C   UNL     1       1.311   7.758  20.920  0.00  0.00    +0.000 A 
ATOM      6  C   UNL     1       2.209   6.868  20.329  0.00  0.00    +0.000 A 
ATOM      7  C   UNL     1       2.638   7.072  19.021  0.00  0.00    +0.000 A 
ATOM      8  C   UNL     1       2.196   8.196  18.320  0.00  0.00    +0.000 A 
ATOM      9  C   UNL     1       1.288   9.100  18.902  0.00  0.00    +0.000 A 
ATOM     10  C   UNL     1       0.842  10.336  18.129  0.00  0.00    +0.000 C 
ENDROOT
BRANCH   1  11
ATOM     11  N   UNL     1      -1.216  11.827  17.867  0.00  0.00    +0.000 NA
ATOM     12  H   UNL     1      -2.015  11.511  17.323  0.00  0.00    +0.000 HD
ATOM     13  H   UNL     1      -1.515  12.578  18.484  0.00  0.00    +0.000 HD
ENDBRANCH   1  11
BRANCH   7  14
ATOM     14  O   UNL     1       3.510   6.257  18.346  0.00  0.00    +0.000 OA
BRANCH  14  15
ATOM     15  C   UNL     1       3.871   5.050  19.028  0.00  0.00    +0.000 C 
BRANCH  15  16
ATOM     16  C   UNL     1       5.356   5.084  19.389  0.00  0.00    +0.000 C 
BRANCH  16  17
ATOM     17  N   UNL     1       6.149   4.259  18.455  0.00  0.00    +0.000 NA
ATOM     18  H   UNL     1       5.674   3.454  18.041  0.00  0.00    +0.000 HD
BRANCH  17  19
ATOM     19  S   UNL     1       7.074   5.060  17.303  0.00  0.00    +0.000 S 
ATOM     20  O   UNL     1       7.324   6.375  17.842  0.00  0.00    +0.000 OA
ATOM     21  O   UNL     1       8.171   4.186  16.948  0.00  0.00    +0.000 OA
BRANCH  19  22
ATOM     22  C   UNL     1       5.940   5.188  15.931  0.00  0.00    +0.000 C 
BRANCH  22  23
ATOM     23  C   UNL     1       6.051   3.965  15.036  0.00  0.00    +0.000 C 
BRANCH  23  24
ATOM     24  C   UNL     1       5.952   4.328  13.584  0.00  0.00    +0.000 C 
ATOM     25  C   UNL     1       6.472   3.406  12.509  0.00  0.00    +0.000 C 
ATOM     26  C   UNL     1       4.992   3.581  12.698  0.00  0.00    +0.000 C 
ENDBRANCH  23  24
ENDBRANCH  22  23
ENDBRANCH  19  22
ENDBRANCH  17  19
ENDBRANCH  16  17
ENDBRANCH  15  16
ENDBRANCH  14  15
ENDBRANCH   7  14
BRANCH  10  27
ATOM     27  C   UNL     1       1.934  11.459  18.097  0.00  0.00    +0.000 C 
BRANCH  27  28
ATOM     28  C   UNL     1       1.721  12.689  18.961  0.00  0.00    +0.000 A 
ATOM     29  C   UNL     1       2.068  12.691  20.317  0.00  0.00    +0.000 A 
ATOM     30  C   UNL     1       1.630  13.705  21.169  0.00  0.00    +0.000 A 
ATOM     31  C   UNL     1       0.919  14.788  20.654  0.00  0.00    +0.000 A 
ATOM     32 CL   UNL     1       0.312  15.953  21.774  0.00  0.00    +0.000 Cl
ATOM     33  C   UNL     1       0.701  14.879  19.276  0.00  0.00    +0.000 A 
ATOM     34 CL   UNL     1      -0.103  16.228  18.557  0.00  0.00    +0.000 Cl
ATOM     35  C   UNL     1       1.104  13.834  18.433  0.00  0.00    +0.000 A 
ENDBRANCH  27  28
ENDBRANCH  10  27
TORSDOF 11
ENDMDL
MODEL 6
REMARK VINA RESULT:      -7.1      5.333      8.981
REMARK  Name = 
REMARK  11 active torsions:
REMARK  status: ('A' for Active; 'I' for Inactive)
REMARK    1  A    between atoms: N_1  and  C_2
REMARK    2  A    between atoms: C_8  and  O_9
REMARK    3  A    between atoms: O_9  and  C_10
REMARK    4  A    between atoms: C_10  and  C_11
REMARK    5  A    between atoms: C_11  and  N_12
REMARK    6  A    between atoms: N_12  and  S_13
REMARK    7  A    between atoms: S_13  and  C_16
REMARK    8  A    between atoms: C_16  and  C_17
REMARK    9  A    between atoms: C_17  and  C_18
REMARK   10  A    between atoms: C_23  and  C_24
REMARK   11  A    between atoms: C_24  and  C_25
REMARK                            x       y       z     vdW  Elec       q    Type
REMARK                         _______ _______ _______ _____ _____    ______ ____
ROOT
ATOM      1  C   UNL     1      -1.015  12.045  18.617  0.00  0.00    +0.000 C 
ATOM      2  C   UNL     1      -1.255  12.997  19.789  0.00  0.00    +0.000 C 
ATOM      3  C   UNL     1      -1.271  12.245  21.119  0.00  0.00    +0.000 C 
ATOM      4  C   UNL     1      -0.419  10.999  21.187  0.00  0.00    +0.000 A 
ATOM      5  C   UNL     1      -0.367  10.303  22.404  0.00  0.00    +0.000 A 
ATOM      6  C   UNL     1       0.369   9.124  22.524  0.00  0.00    +0.000 A 
ATOM      7  C   UNL     1       1.061   8.616  21.428  0.00  0.00    +0.000 A 
ATOM      8  C   UNL     1       1.047   9.319  20.221  0.00  0.00    +0.000 A 
ATOM      9  C   UNL     1       0.308  10.508  20.086  0.00  0.00    +0.000 A 
ATOM     10  C   UNL     1       0.331  11.274  18.768  0.00  0.00    +0.000 C 
ENDROOT
BRANCH   1  11
ATOM     11  N   UNL     1      -1.206  12.731  17.338  0.00  0.00    +0.000 NA
ATOM     12  H   UNL     1      -0.656  13.585  17.278  0.00  0.00    +0.000 HD
ATOM     13  H   UNL     1      -0.970  12.133  16.550  0.00  0.00    +0.000 HD
ENDBRANCH   1  11
BRANCH   7  14
ATOM     14  O   UNL     1       1.806   7.465  21.436  0.00  0.00    +0.000 OA
BRANCH  14  15
ATOM     15  C   UNL     1       1.574   6.580  20.333  0.00  0.00    +0.000 C 
BRANCH  15  16
ATOM     16  C   UNL     1       1.988   5.159  20.714  0.00  0.00    +0.000 C 
BRANCH  16  17
ATOM     17  N   UNL     1       1.140   4.159  20.034  0.00  0.00    +0.000 NA
ATOM     18  H   UNL     1       0.172   4.430  19.852  0.00  0.00    +0.000 HD
BRANCH  17  19
ATOM     19  S   UNL     1       1.793   3.358  18.709  0.00  0.00    +0.000 S 
ATOM     20  O   UNL     1       1.722   1.951  19.023  0.00  0.00    +0.000 OA
ATOM     21  O   UNL     1       1.148   3.886  17.526  0.00  0.00    +0.000 OA
BRANCH  19  22
ATOM     22  C   UNL     1       3.496   3.889  18.751  0.00  0.00    +0.000 C 
BRANCH  22  23
ATOM     23  C   UNL     1       3.847   4.647  17.481  0.00  0.00    +0.000 C 
BRANCH  23  24
ATOM     24  C   UNL     1       4.852   3.905  16.651  0.00  0.00    +0.000 C 
ATOM     25  C   UNL     1       5.379   4.480  15.360  0.00  0.00    +0.000 C 
ATOM     26  C   UNL     1       6.266   4.415  16.570  0.00  0.00    +0.000 C 
ENDBRANCH  23  24
ENDBRANCH  22  23
ENDBRANCH  19  22
ENDBRANCH  17  19
ENDBRANCH  16  17
ENDBRANCH  15  16
ENDBRANCH  14  15
ENDBRANCH   7  14
BRANCH  10  27
ATOM     27  C   UNL     1       1.658  12.080  18.558  0.00  0.00    +0.000 C 
BRANCH  27  28
ATOM     28  C   UNL     1       1.848  13.363  19.346  0.00  0.00    +0.000 A 
ATOM     29  C   UNL     1       2.235  13.337  20.691  0.00  0.00    +0.000 A 
ATOM     30  C   UNL     1       2.147  14.480  21.486  0.00  0.00    +0.000 A 
ATOM     31  C   UNL     1       1.762  15.695  20.920  0.00  0.00    +0.000 A 
ATOM     32 CL   UNL     1       1.567  17.045  21.977  0.00  0.00    +0.000 Cl
ATOM     33  C   UNL     1       1.524  15.770  19.544  0.00  0.00    +0.000 A 
ATOM     34 CL   UNL     1       1.119  17.254  18.759  0.00  0.00    +0.000 Cl
ATOM     35  C   UNL     1       1.570  14.609  18.760  0.00  0.00    +0.000 A 
ENDBRANCH  27  28
ENDBRANCH  10  27
TORSDOF 11
ENDMDL
MODEL 7
REMARK VINA RESULT:      -7.1      4.690      8.526
REMARK  Name = 
REMARK  11 active torsions:
REMARK  status: ('A' for Active; 'I' for Inactive)
REMARK    1  A    between atoms: N_1  and  C_2
REMARK    2  A    between atoms: C_8  and  O_9
REMARK    3  A    between atoms: O_9  and  C_10
REMARK    4  A    between atoms: C_10  and  C_11
REMARK    5  A    between atoms: C_11  and  N_12
REMARK    6  A    between atoms: N_12  and  S_13
REMARK    7  A    between atoms: S_13  and  C_16
REMARK    8  A    between atoms: C_16  and  C_17
REMARK    9  A    between atoms: C_17  and  C_18
REMARK   10  A    between atoms: C_23  and  C_24
REMARK   11  A    between atoms: C_24  and  C_25
REMARK                            x       y       z     vdW  Elec       q    Type
REMARK                         _______ _______ _______ _____ _____    ______ ____
ROOT
ATOM      1  C   UNL     1      -1.133  11.370  21.108  0.00  0.00    +0.000 C 
ATOM      2  C   UNL     1      -0.894  10.870  22.533  0.00  0.00    +0.000 C 
ATOM      3  C   UNL     1      -0.332   9.450  22.535  0.00  0.00    +0.000 C 
ATOM      4  C   UNL     1       0.510   9.068  21.340  0.00  0.00    +0.000 A 
ATOM      5  C   UNL     1       1.086   7.789  21.323  0.00  0.00    +0.000 A 
ATOM      6  C   UNL     1       1.843   7.358  20.233  0.00  0.00    +0.000 A 
ATOM      7  C   UNL     1       2.033   8.197  19.138  0.00  0.00    +0.000 A 
ATOM      8  C   UNL     1       1.496   9.486  19.159  0.00  0.00    +0.000 A 
ATOM      9  C   UNL     1       0.729   9.932  20.251  0.00  0.00    +0.000 A 
ATOM     10  C   UNL     1       0.178  11.354  20.265  0.00  0.00    +0.000 C 
ENDROOT
BRANCH   1  11
ATOM     11  N   UNL     1      -1.860  12.640  21.113  0.00  0.00    +0.000 NA
ATOM     12  H   UNL     1      -1.674  13.189  20.277  0.00  0.00    +0.000 HD
ATOM     13  H   UNL     1      -2.864  12.501  21.198  0.00  0.00    +0.000 HD
ENDBRANCH   1  11
BRANCH   7  14
ATOM     14  O   UNL     1       2.750   7.871  18.016  0.00  0.00    +0.000 OA
BRANCH  14  15
ATOM     15  C   UNL     1       2.889   6.467  17.766  0.00  0.00    +0.000 C 
BRANCH  15  16
ATOM     16  C   UNL     1       4.323   6.029  18.064  0.00  0.00    +0.000 C 
BRANCH  16  17
ATOM     17  N   UNL     1       5.214   6.315  16.921  0.00  0.00    +0.000 NA
ATOM     18  H   UNL     1       5.635   7.246  16.892  0.00  0.00    +0.000 HD
BRANCH  17  19
ATOM     19  S   UNL     1       6.341   5.140  16.501  0.00  0.00    +0.000 S 
ATOM     20  O   UNL     1       7.612   5.621  16.986  0.00  0.00    +0.000 OA
ATOM     21  O   UNL     1       5.816   3.865  16.939  0.00  0.00    +0.000 OA
BRANCH  19  22
ATOM     22  C   UNL     1       6.318   5.218  14.719  0.00  0.00    +0.000 C 
BRANCH  22  23
ATOM     23  C   UNL     1       5.973   3.859  14.133  0.00  0.00    +0.000 C 
BRANCH  23  24
ATOM     24  C   UNL     1       6.002   3.877  12.633  0.00  0.00    +0.000 C 
ATOM     25  C   UNL     1       6.435   2.667  11.844  0.00  0.00    +0.000 C 
ATOM     26  C   UNL     1       4.989   3.072  11.864  0.00  0.00    +0.000 C 
ENDBRANCH  23  24
ENDBRANCH  22  23
ENDBRANCH  19  22
ENDBRANCH  17  19
ENDBRANCH  16  17
ENDBRANCH  15  16
ENDBRANCH  14  15
ENDBRANCH   7  14
BRANCH  10  27
ATOM     27  C   UNL     1       1.271  12.425  20.601  0.00  0.00    +0.000 C 
BRANCH  27  28
ATOM     28  C   UNL     1       1.566  13.495  19.566  0.00  0.00    +0.000 A 
ATOM     29  C   UNL     1       2.686  13.406  18.732  0.00  0.00    +0.000 A 
ATOM     30  C   UNL     1       3.110  14.502  17.980  0.00  0.00    +0.000 A 
ATOM     31  C   UNL     1       2.359  15.676  17.975  0.00  0.00    +0.000 A 
ATOM     32 CL   UNL     1       2.993  17.030  17.112  0.00  0.00    +0.000 Cl
ATOM     33  C   UNL     1       1.152  15.726  18.679  0.00  0.00    +0.000 A 
ATOM     34 CL   UNL     1       0.130  17.118  18.658  0.00  0.00    +0.000 Cl
ATOM     35  C   UNL     1       0.757  14.638  19.470  0.00  0.00    +0.000 A 
ENDBRANCH  27  28
ENDBRANCH  10  27
TORSDOF 11
ENDMDL
MODEL 8
REMARK VINA RESULT:      -7.1      4.339      7.754
REMARK  Name = 
REMARK  11 active torsions:
REMARK  status: ('A' for Active; 'I' for Inactive)
REMARK    1  A    between atoms: N_1  and  C_2
REMARK    2  A    between atoms: C_8  and  O_9
REMARK    3  A    between atoms: O_9  and  C_10
REMARK    4  A    between atoms: C_10  and  C_11
REMARK    5  A    between atoms: C_11  and  N_12
REMARK    6  A    between atoms: N_12  and  S_13
REMARK    7  A    between atoms: S_13  and  C_16
REMARK    8  A    between atoms: C_16  and  C_17
REMARK    9  A    between atoms: C_17  and  C_18
REMARK   10  A    between atoms: C_23  and  C_24
REMARK   11  A    between atoms: C_24  and  C_25
REMARK                            x       y       z     vdW  Elec       q    Type
REMARK                         _______ _______ _______ _____ _____    ______ ____
ROOT
ATOM      1  C   UNL     1      -1.050  11.095  21.562  0.00  0.00    +0.000 C 
ATOM      2  C   UNL     1      -0.553  10.436  22.849  0.00  0.00    +0.000 C 
ATOM      3  C   UNL     1       0.114   9.092  22.564  0.00  0.00    +0.000 C 
ATOM      4  C   UNL     1       0.787   8.959  21.217  0.00  0.00    +0.000 A 
ATOM      5  C   UNL     1       1.453   7.758  20.931  0.00  0.00    +0.000 A 
ATOM      6  C   UNL     1       2.063   7.555  19.693  0.00  0.00    +0.000 A 
ATOM      7  C   UNL     1       2.013   8.546  18.717  0.00  0.00    +0.000 A 
ATOM      8  C   UNL     1       1.386   9.761  19.003  0.00  0.00    +0.000 A 
ATOM      9  C   UNL     1       0.765   9.978  20.247  0.00  0.00    +0.000 A 
ATOM     10  C   UNL     1       0.112  11.323  20.548  0.00  0.00    +0.000 C 
ENDROOT
BRANCH   1  11
ATOM     11  N   UNL     1      -1.865  12.274  21.857  0.00  0.00    +0.000 NA
ATOM     12  H   UNL     1      -2.192  12.733  21.011  0.00  0.00    +0.000 HD
ATOM     13  H   UNL     1      -2.668  12.042  22.436  0.00  0.00    +0.000 HD
ENDBRANCH   1  11
BRANCH   7  14
ATOM     14  O   UNL     1       2.571   8.447  17.468  0.00  0.00    +0.000 OA
BRANCH  14  15
ATOM     15  C   UNL     1       3.265   7.221  17.205  0.00  0.00    +0.000 C 
BRANCH  15  16
ATOM     16  C   UNL     1       4.771   7.477  17.165  0.00  0.00    +0.000 C 
BRANCH  16  17
ATOM     17  N   UNL     1       5.421   6.658  16.122  0.00  0.00    +0.000 NA
ATOM     18  H   UNL     1       5.513   7.085  15.198  0.00  0.00    +0.000 HD
BRANCH  17  19
ATOM     19  S   UNL     1       6.827   5.838  16.542  0.00  0.00    +0.000 S 
ATOM     20  O   UNL     1       7.480   5.512  15.297  0.00  0.00    +0.000 OA
ATOM     21  O   UNL     1       7.503   6.629  17.547  0.00  0.00    +0.000 OA
BRANCH  19  22
ATOM     22  C   UNL     1       6.185   4.346  17.282  0.00  0.00    +0.000 C 
BRANCH  22  23
ATOM     23  C   UNL     1       4.877   3.947  16.620  0.00  0.00    +0.000 C 
BRANCH  23  24
ATOM     24  C   UNL     1       3.989   3.185  17.559  0.00  0.00    +0.000 C 
ATOM     25  C   UNL     1       3.048   3.897  18.499  0.00  0.00    +0.000 C 
ATOM     26  C   UNL     1       2.505   3.153  17.313  0.00  0.00    +0.000 C 
ENDBRANCH  23  24
ENDBRANCH  22  23
ENDBRANCH  19  22
ENDBRANCH  17  19
ENDBRANCH  16  17
ENDBRANCH  15  16
ENDBRANCH  14  15
ENDBRANCH   7  14
BRANCH  10  27
ATOM     27  C   UNL     1       1.155  12.444  20.878  0.00  0.00    +0.000 C 
BRANCH  27  28
ATOM     28  C   UNL     1       1.478  13.461  19.799  0.00  0.00    +0.000 A 
ATOM     29  C   UNL     1       2.607  13.319  18.984  0.00  0.00    +0.000 A 
ATOM     30  C   UNL     1       3.056  14.373  18.188  0.00  0.00    +0.000 A 
ATOM     31  C   UNL     1       2.322  15.556  18.119  0.00  0.00    +0.000 A 
ATOM     32 CL   UNL     1       2.986  16.859  17.203  0.00  0.00    +0.000 Cl
ATOM     33  C   UNL     1       1.107  15.655  18.805  0.00  0.00    +0.000 A 
ATOM     34 CL   UNL     1       0.105  17.058  18.707  0.00  0.00    +0.000 Cl
ATOM     35  C   UNL     1       0.687  14.609  19.639  0.00  0.00    +0.000 A 
ENDBRANCH  27  28
ENDBRANCH  10  27
TORSDOF 11
ENDMDL
MODEL 9
REMARK VINA RESULT:      -7.0      4.709      8.017
REMARK  Name = 
REMARK  11 active torsions:
REMARK  status: ('A' for Active; 'I' for Inactive)
REMARK    1  A    between atoms: N_1  and  C_2
REMARK    2  A    between atoms: C_8  and  O_9
REMARK    3  A    between atoms: O_9  and  C_10
REMARK    4  A    between atoms: C_10  and  C_11
REMARK    5  A    between atoms: C_11  and  N_12
REMARK    6  A    between atoms: N_12  and  S_13
REMARK    7  A    between atoms: S_13  and  C_16
REMARK    8  A    between atoms: C_16  and  C_17
REMARK    9  A    between atoms: C_17  and  C_18
REMARK   10  A    between atoms: C_23  and  C_24
REMARK   11  A    between atoms: C_24  and  C_25
REMARK                            x       y       z     vdW  Elec       q    Type
REMARK                         _______ _______ _______ _____ _____    ______ ____
ROOT
ATOM      1  C   UNL     1       1.297  12.031  20.625  0.00  0.00    +0.000 C 
ATOM      2  C   UNL     1       0.993  12.499  19.202  0.00  0.00    +0.000 C 
ATOM      3  C   UNL     1       1.630  11.575  18.166  0.00  0.00    +0.000 C 
ATOM      4  C   UNL     1       1.792  10.130  18.577  0.00  0.00    +0.000 A 
ATOM      5  C   UNL     1       2.330   9.235  17.639  0.00  0.00    +0.000 A 
ATOM      6  C   UNL     1       2.542   7.896  17.966  0.00  0.00    +0.000 A 
ATOM      7  C   UNL     1       2.225   7.427  19.239  0.00  0.00    +0.000 A 
ATOM      8  C   UNL     1       1.655   8.299  20.169  0.00  0.00    +0.000 A 
ATOM      9  C   UNL     1       1.438   9.653  19.853  0.00  0.00    +0.000 A 
ATOM     10  C   UNL     1       0.787  10.579  20.874  0.00  0.00    +0.000 C 
ENDROOT
BRANCH   1  11
ATOM     11  N   UNL     1       0.864  13.025  21.607  0.00  0.00    +0.000 NA
ATOM     12  H   UNL     1      -0.131  12.957  21.806  0.00  0.00    +0.000 HD
ATOM     13  H   UNL     1       1.380  12.944  22.481  0.00  0.00    +0.000 HD
ENDBRANCH   1  11
BRANCH   7  14
ATOM     14  O   UNL     1       2.400   6.136  19.665  0.00  0.00    +0.000 OA
BRANCH  14  15
ATOM     15  C   UNL     1       3.760   5.688  19.713  0.00  0.00    +0.000 C 
BRANCH  15  16
ATOM     16  C   UNL     1       4.012   4.684  18.588  0.00  0.00    +0.000 C 
BRANCH  16  17
ATOM     17  N   UNL     1       4.595   5.348  17.404  0.00  0.00    +0.000 NA
ATOM     18  H   UNL     1       4.437   6.354  17.321  0.00  0.00    +0.000 HD
BRANCH  17  19
ATOM     19  S   UNL     1       6.179   4.959  16.996  0.00  0.00    +0.000 S 
ATOM     20  O   UNL     1       6.728   6.140  16.375  0.00  0.00    +0.000 OA
ATOM     21  O   UNL     1       6.798   4.386  18.171  0.00  0.00    +0.000 OA
BRANCH  19  22
ATOM     22  C   UNL     1       5.949   3.693  15.761  0.00  0.00    +0.000 C 
BRANCH  22  23
ATOM     23  C   UNL     1       5.756   4.319  14.390  0.00  0.00    +0.000 C 
BRANCH  23  24
ATOM     24  C   UNL     1       6.565   3.617  13.339  0.00  0.00    +0.000 C 
ATOM     25  C   UNL     1       5.925   3.098  12.075  0.00  0.00    +0.000 C 
ATOM     26  C   UNL     1       6.822   4.301  12.023  0.00  0.00    +0.000 C 
ENDBRANCH  23  24
ENDBRANCH  22  23
ENDBRANCH  19  22
ENDBRANCH  17  19
ENDBRANCH  16  17
ENDBRANCH  15  16
ENDBRANCH  14  15
ENDBRANCH   7  14
BRANCH  10  27
ATOM     27  C   UNL     1      -0.761  10.363  20.990  0.00  0.00    +0.000 C 
BRANCH  27  28
ATOM     28  C   UNL     1      -1.642  10.885  19.871  0.00  0.00    +0.000 A 
ATOM     29  C   UNL     1      -2.463  12.003  20.057  0.00  0.00    +0.000 A 
ATOM     30  C   UNL     1      -3.464  12.320  19.139  0.00  0.00    +0.000 A 
ATOM     31  C   UNL     1      -3.595  11.578  17.967  0.00  0.00    +0.000 A 
ATOM     32 CL   UNL     1      -4.921  11.950  16.926  0.00  0.00    +0.000 Cl
ATOM     33  C   UNL     1      -2.682  10.555  17.692  0.00  0.00    +0.000 A 
ATOM     34 CL   UNL     1      -2.733   9.643  16.227  0.00  0.00    +0.000 Cl
ATOM     35  C   UNL     1      -1.707  10.213  18.640  0.00  0.00    +0.000 A 
ENDBRANCH  27  28
ENDBRANCH  10  27
TORSDOF 11
ENDMDL
