MODEL 1
REMARK VINA RESULT:      -8.0      0.000      0.000
REMARK  Name = 
REMARK  7 active torsions:
REMARK  status: ('A' for Active; 'I' for Inactive)
REMARK    1  A    between atoms: C_1  and  O_2
REMARK    2  A    between atoms: O_2  and  C_3
REMARK    3  A    between atoms: C_8  and  C_9
REMARK    4  A    between atoms: C_15  and  C_16
REMARK    5  A    between atoms: C_16  and  C_17
REMARK    6  A    between atoms: C_17  and  N_18
REMARK    7  A    between atoms: C_19  and  C_20
REMARK                            x       y       z     vdW  Elec       q    Type
REMARK                         _______ _______ _______ _____ _____    ______ ____
ROOT
ATOM      1  C   UNL     1       7.149   4.984  14.594  0.00  0.00    +0.000 A 
ATOM      2  C   UNL     1       6.077   4.252  13.942  0.00  0.00    +0.000 A 
ATOM      3  C   UNL     1       5.032   3.783  14.649  0.00  0.00    +0.000 A 
ATOM      4  C   UNL     1       4.958   4.003  16.056  0.00  0.00    +0.000 A 
ATOM      5  N   UNL     1       4.052   3.622  16.923  0.00  0.00    +0.000 NA
ATOM      6  C   UNL     1       4.462   4.118  18.138  0.00  0.00    +0.000 A 
ATOM      7  C   UNL     1       5.688   4.785  18.028  0.00  0.00    +0.000 A 
ATOM      8  N   UNL     1       5.992   4.720  16.664  0.00  0.00    +0.000 N 
ATOM      9  C   UNL     1       7.070   5.199  15.915  0.00  0.00    +0.000 A 
ENDROOT
BRANCH   6  10
ATOM     10  C   UNL     1       3.657   3.889  19.339  0.00  0.00    +0.000 A 
ATOM     11  C   UNL     1       2.816   4.909  19.813  0.00  0.00    +0.000 A 
ATOM     12  C   UNL     1       2.059   4.742  20.978  0.00  0.00    +0.000 A 
ATOM     13  C   UNL     1       2.125   3.543  21.687  0.00  0.00    +0.000 A 
ATOM     14  C   UNL     1       2.961   2.526  21.239  0.00  0.00    +0.000 A 
ATOM     15  C   UNL     1       3.733   2.707  20.087  0.00  0.00    +0.000 A 
ENDBRANCH   6  10
BRANCH   1  17
ATOM     16  C   UNL     1       8.182   5.612  12.515  0.00  0.00    +0.000 C 
ATOM     17  O   UNL     1       8.273   5.403  13.917  0.00  0.00    +0.000 OA
ENDBRANCH   1  17
BRANCH   7  18
ATOM     18  C   UNL     1       6.510   5.406  19.134  0.00  0.00    +0.000 C 
BRANCH  18  19
ATOM     19  C   UNL     1       7.965   5.774  18.873  0.00  0.00    +0.000 C 
BRANCH  19  20
ATOM     20  N   UNL     1       8.276   7.173  19.104  0.00  0.00    +0.000 N 
ATOM     21  C   UNL     1       8.143   8.118  18.114  0.00  0.00    +0.000 C 
ATOM     22  C   UNL     1       8.687   9.473  18.477  0.00  0.00    +0.000 C 
ATOM     23  O   UNL     1       7.624   7.898  17.025  0.00  0.00    +0.000 OA
ATOM     24  H   UNL     1       8.867   7.391  19.897  0.00  0.00    +0.000 HD
ENDBRANCH  19  20
ENDBRANCH  18  19
ENDBRANCH   7  18
TORSDOF 5
ENDMDL
MODEL 2
REMARK VINA RESULT:      -8.0      0.101      1.007
REMARK  Name = 
REMARK  7 active torsions:
REMARK  status: ('A' for Active; 'I' for Inactive)
REMARK    1  A    between atoms: C_1  and  O_2
REMARK    2  A    between atoms: O_2  and  C_3
REMARK    3  A    between atoms: C_8  and  C_9
REMARK    4  A    between atoms: C_15  and  C_16
REMARK    5  A    between atoms: C_16  and  C_17
REMARK    6  A    between atoms: C_17  and  N_18
REMARK    7  A    between atoms: C_19  and  C_20
REMARK                            x       y       z     vdW  Elec       q    Type
REMARK                         _______ _______ _______ _____ _____    ______ ____
ROOT
ATOM      1  C   UNL     1       7.061   5.032  14.573  0.00  0.00    +0.000 A 
ATOM      2  C   UNL     1       5.974   4.299  13.946  0.00  0.00    +0.000 A 
ATOM      3  C   UNL     1       4.938   3.843  14.674  0.00  0.00    +0.000 A 
ATOM      4  C   UNL     1       4.889   4.077  16.080  0.00  0.00    +0.000 A 
ATOM      5  N   UNL     1       3.995   3.709  16.965  0.00  0.00    +0.000 NA
ATOM      6  C   UNL     1       4.428   4.214  18.169  0.00  0.00    +0.000 A 
ATOM      7  C   UNL     1       5.655   4.873  18.032  0.00  0.00    +0.000 A 
ATOM      8  N   UNL     1       5.936   4.794  16.665  0.00  0.00    +0.000 N 
ATOM      9  C   UNL     1       7.004   5.260  15.894  0.00  0.00    +0.000 A 
ENDROOT
BRANCH   6  10
ATOM     10  C   UNL     1       3.641   4.000  19.385  0.00  0.00    +0.000 A 
ATOM     11  C   UNL     1       3.739   2.775  20.064  0.00  0.00    +0.000 A 
ATOM     12  C   UNL     1       2.976   2.519  21.209  0.00  0.00    +0.000 A 
ATOM     13  C   UNL     1       2.105   3.492  21.700  0.00  0.00    +0.000 A 
ATOM     14  C   UNL     1       1.987   4.707  21.034  0.00  0.00    +0.000 A 
ATOM     15  C   UNL     1       2.735   4.949  19.877  0.00  0.00    +0.000 A 
ENDBRANCH   6  10
BRANCH   1  17
ATOM     16  C   UNL     1       8.100   5.508  12.458  0.00  0.00    +0.000 C 
ATOM     17  O   UNL     1       8.176   5.438  13.874  0.00  0.00    +0.000 OA
ENDBRANCH   1  17
BRANCH   7  18
ATOM     18  C   UNL     1       6.498   5.499  19.119  0.00  0.00    +0.000 C 
BRANCH  18  19
ATOM     19  C   UNL     1       7.958   5.833  18.839  0.00  0.00    +0.000 C 
BRANCH  19  20
ATOM     20  N   UNL     1       8.302   7.227  19.053  0.00  0.00    +0.000 N 
ATOM     21  C   UNL     1       8.099   8.181  18.083  0.00  0.00    +0.000 C 
ATOM     22  C   UNL     1       8.685   9.528  18.410  0.00  0.00    +0.000 C 
ATOM     23  O   UNL     1       7.492   7.974  17.039  0.00  0.00    +0.000 OA
ATOM     24  H   UNL     1       8.957   7.434  19.797  0.00  0.00    +0.000 HD
ENDBRANCH  19  20
ENDBRANCH  18  19
ENDBRANCH   7  18
TORSDOF 5
ENDMDL
MODEL 3
REMARK VINA RESULT:      -7.7      2.896      4.630
REMARK  Name = 
REMARK  7 active torsions:
REMARK  status: ('A' for Active; 'I' for Inactive)
REMARK    1  A    between atoms: C_1  and  O_2
REMARK    2  A    between atoms: O_2  and  C_3
REMARK    3  A    between atoms: C_8  and  C_9
REMARK    4  A    between atoms: C_15  and  C_16
REMARK    5  A    between atoms: C_16  and  C_17
REMARK    6  A    between atoms: C_17  and  N_18
REMARK    7  A    between atoms: C_19  and  C_20
REMARK                            x       y       z     vdW  Elec       q    Type
REMARK                         _______ _______ _______ _____ _____    ______ ____
ROOT
ATOM      1  C   UNL     1       7.492   7.548  17.714  0.00  0.00    +0.000 A 
ATOM      2  C   UNL     1       8.189   6.524  18.474  0.00  0.00    +0.000 A 
ATOM      3  C   UNL     1       7.517   5.494  19.021  0.00  0.00    +0.000 A 
ATOM      4  C   UNL     1       6.105   5.388  18.860  0.00  0.00    +0.000 A 
ATOM      5  N   UNL     1       5.269   4.490  19.320  0.00  0.00    +0.000 NA
ATOM      6  C   UNL     1       4.028   4.856  18.851  0.00  0.00    +0.000 A 
ATOM      7  C   UNL     1       4.093   6.048  18.120  0.00  0.00    +0.000 A 
ATOM      8  N   UNL     1       5.452   6.375  18.116  0.00  0.00    +0.000 N 
ATOM      9  C   UNL     1       6.164   7.438  17.555  0.00  0.00    +0.000 A 
ENDROOT
BRANCH   6  10
ATOM     10  C   UNL     1       2.850   4.046  19.167  0.00  0.00    +0.000 A 
ATOM     11  C   UNL     1       2.468   3.013  18.295  0.00  0.00    +0.000 A 
ATOM     12  C   UNL     1       1.328   2.241  18.543  0.00  0.00    +0.000 A 
ATOM     13  C   UNL     1       0.553   2.485  19.676  0.00  0.00    +0.000 A 
ATOM     14  C   UNL     1       0.909   3.511  20.544  0.00  0.00    +0.000 A 
ATOM     15  C   UNL     1       2.037   4.295  20.280  0.00  0.00    +0.000 A 
ENDBRANCH   6  10
BRANCH   1  17
ATOM     16  C   UNL     1       8.521   9.683  18.119  0.00  0.00    +0.000 C 
ATOM     17  O   UNL     1       8.133   8.660  17.214  0.00  0.00    +0.000 OA
ENDBRANCH   1  17
BRANCH   7  18
ATOM     18  C   UNL     1       2.950   6.821  17.502  0.00  0.00    +0.000 C 
BRANCH  18  19
ATOM     19  C   UNL     1       2.454   8.094  18.175  0.00  0.00    +0.000 C 
BRANCH  19  20
ATOM     20  N   UNL     1       2.031   7.915  19.553  0.00  0.00    +0.000 N 
ATOM     21  C   UNL     1       1.256   8.849  20.201  0.00  0.00    +0.000 C 
ATOM     22  C   UNL     1       1.075   8.587  21.671  0.00  0.00    +0.000 C 
ATOM     23  O   UNL     1       0.744   9.814  19.646  0.00  0.00    +0.000 OA
ATOM     24  H   UNL     1       2.553   7.254  20.115  0.00  0.00    +0.000 HD
ENDBRANCH  19  20
ENDBRANCH  18  19
ENDBRANCH   7  18
TORSDOF 5
ENDMDL
MODEL 4
REMARK VINA RESULT:      -7.6      3.915      7.258
REMARK  Name = 
REMARK  7 active torsions:
REMARK  status: ('A' for Active; 'I' for Inactive)
REMARK    1  A    between atoms: C_1  and  O_2
REMARK    2  A    between atoms: O_2  and  C_3
REMARK    3  A    between atoms: C_8  and  C_9
REMARK    4  A    between atoms: C_15  and  C_16
REMARK    5  A    between atoms: C_16  and  C_17
REMARK    6  A    between atoms: C_17  and  N_18
REMARK    7  A    between atoms: C_19  and  C_20
REMARK                            x       y       z     vdW  Elec       q    Type
REMARK                         _______ _______ _______ _____ _____    ______ ____
ROOT
ATOM      1  C   UNL     1       0.565   9.091  20.374  0.00  0.00    +0.000 A 
ATOM      2  C   UNL     1       0.685   9.949  19.207  0.00  0.00    +0.000 A 
ATOM      3  C   UNL     1       1.524   9.635  18.203  0.00  0.00    +0.000 A 
ATOM      4  C   UNL     1       2.309   8.447  18.266  0.00  0.00    +0.000 A 
ATOM      5  N   UNL     1       3.189   7.972  17.419  0.00  0.00    +0.000 NA
ATOM      6  C   UNL     1       3.634   6.789  17.963  0.00  0.00    +0.000 A 
ATOM      7  C   UNL     1       3.047   6.551  19.211  0.00  0.00    +0.000 A 
ATOM      8  N   UNL     1       2.173   7.627  19.389  0.00  0.00    +0.000 N 
ATOM      9  C   UNL     1       1.297   7.969  20.424  0.00  0.00    +0.000 A 
ENDROOT
BRANCH   6  10
ATOM     10  C   UNL     1       4.625   5.977  17.254  0.00  0.00    +0.000 A 
ATOM     11  C   UNL     1       5.916   6.489  17.045  0.00  0.00    +0.000 A 
ATOM     12  C   UNL     1       6.879   5.759  16.340  0.00  0.00    +0.000 A 
ATOM     13  C   UNL     1       6.569   4.495  15.839  0.00  0.00    +0.000 A 
ATOM     14  C   UNL     1       5.292   3.977  16.027  0.00  0.00    +0.000 A 
ATOM     15  C   UNL     1       4.325   4.720  16.712  0.00  0.00    +0.000 A 
ENDBRANCH   6  10
BRANCH   1  17
ATOM     16  C   UNL     1       0.386   9.473  22.741  0.00  0.00    +0.000 C 
ATOM     17  O   UNL     1      -0.218   9.425  21.457  0.00  0.00    +0.000 OA
ENDBRANCH   1  17
BRANCH   7  18
ATOM     18  C   UNL     1       3.320   5.409  20.162  0.00  0.00    +0.000 C 
BRANCH  18  19
ATOM     19  C   UNL     1       2.298   4.288  20.303  0.00  0.00    +0.000 C 
BRANCH  19  20
ATOM     20  N   UNL     1       2.458   3.212  19.341  0.00  0.00    +0.000 N 
ATOM     21  C   UNL     1       3.484   2.301  19.436  0.00  0.00    +0.000 C 
ATOM     22  C   UNL     1       3.602   1.378  18.254  0.00  0.00    +0.000 C 
ATOM     23  O   UNL     1       4.245   2.228  20.394  0.00  0.00    +0.000 OA
ATOM     24  H   UNL     1       1.993   3.316  18.447  0.00  0.00    +0.000 HD
ENDBRANCH  19  20
ENDBRANCH  18  19
ENDBRANCH   7  18
TORSDOF 5
ENDMDL
MODEL 5
REMARK VINA RESULT:      -7.5      3.208      4.744
REMARK  Name = 
REMARK  7 active torsions:
REMARK  status: ('A' for Active; 'I' for Inactive)
REMARK    1  A    between atoms: C_1  and  O_2
REMARK    2  A    between atoms: O_2  and  C_3
REMARK    3  A    between atoms: C_8  and  C_9
REMARK    4  A    between atoms: C_15  and  C_16
REMARK    5  A    between atoms: C_16  and  C_17
REMARK    6  A    between atoms: C_17  and  N_18
REMARK    7  A    between atoms: C_19  and  C_20
REMARK                            x       y       z     vdW  Elec       q    Type
REMARK                         _______ _______ _______ _____ _____    ______ ____
ROOT
ATOM      1  C   UNL     1       7.423   7.552  17.707  0.00  0.00    +0.000 A 
ATOM      2  C   UNL     1       8.114   6.504  18.440  0.00  0.00    +0.000 A 
ATOM      3  C   UNL     1       7.432   5.481  18.989  0.00  0.00    +0.000 A 
ATOM      4  C   UNL     1       6.014   5.407  18.855  0.00  0.00    +0.000 A 
ATOM      5  N   UNL     1       5.168   4.521  19.321  0.00  0.00    +0.000 NA
ATOM      6  C   UNL     1       3.927   4.920  18.882  0.00  0.00    +0.000 A 
ATOM      7  C   UNL     1       4.002   6.119  18.165  0.00  0.00    +0.000 A 
ATOM      8  N   UNL     1       5.368   6.417  18.137  0.00  0.00    +0.000 N 
ATOM      9  C   UNL     1       6.091   7.472  17.575  0.00  0.00    +0.000 A 
ENDROOT
BRANCH   6  10
ATOM     10  C   UNL     1       2.738   4.131  19.212  0.00  0.00    +0.000 A 
ATOM     11  C   UNL     1       2.278   4.097  20.539  0.00  0.00    +0.000 A 
ATOM     12  C   UNL     1       1.168   3.326  20.901  0.00  0.00    +0.000 A 
ATOM     13  C   UNL     1       0.492   2.579  19.936  0.00  0.00    +0.000 A 
ATOM     14  C   UNL     1       0.941   2.591  18.620  0.00  0.00    +0.000 A 
ATOM     15  C   UNL     1       2.065   3.346  18.267  0.00  0.00    +0.000 A 
ENDBRANCH   6  10
BRANCH   1  17
ATOM     16  C   UNL     1       8.517   9.654  18.118  0.00  0.00    +0.000 C 
ATOM     17  O   UNL     1       8.079   8.656  17.208  0.00  0.00    +0.000 OA
ENDBRANCH   1  17
BRANCH   7  18
ATOM     18  C   UNL     1       2.864   6.924  17.580  0.00  0.00    +0.000 C 
BRANCH  18  19
ATOM     19  C   UNL     1       2.682   8.379  17.995  0.00  0.00    +0.000 C 
BRANCH  19  20
ATOM     20  N   UNL     1       1.395   8.945  17.631  0.00  0.00    +0.000 N 
ATOM     21  C   UNL     1       0.695   9.763  18.487  0.00  0.00    +0.000 C 
ATOM     22  C   UNL     1      -0.694  10.101  18.020  0.00  0.00    +0.000 C 
ATOM     23  O   UNL     1       1.148  10.194  19.541  0.00  0.00    +0.000 OA
ATOM     24  H   UNL     1       0.889   8.498  16.876  0.00  0.00    +0.000 HD
ENDBRANCH  19  20
ENDBRANCH  18  19
ENDBRANCH   7  18
TORSDOF 5
ENDMDL
MODEL 6
REMARK VINA RESULT:      -7.5      3.153      4.975
REMARK  Name = 
REMARK  7 active torsions:
REMARK  status: ('A' for Active; 'I' for Inactive)
REMARK    1  A    between atoms: C_1  and  O_2
REMARK    2  A    between atoms: O_2  and  C_3
REMARK    3  A    between atoms: C_8  and  C_9
REMARK    4  A    between atoms: C_15  and  C_16
REMARK    5  A    between atoms: C_16  and  C_17
REMARK    6  A    between atoms: C_17  and  N_18
REMARK    7  A    between atoms: C_19  and  C_20
REMARK                            x       y       z     vdW  Elec       q    Type
REMARK                         _______ _______ _______ _____ _____    ______ ____
ROOT
ATOM      1  C   UNL     1       5.751   4.489  15.755  0.00  0.00    +0.000 A 
ATOM      2  C   UNL     1       6.586   5.665  15.934  0.00  0.00    +0.000 A 
ATOM      3  C   UNL     1       6.157   6.712  16.664  0.00  0.00    +0.000 A 
ATOM      4  C   UNL     1       4.872   6.681  17.281  0.00  0.00    +0.000 A 
ATOM      5  N   UNL     1       4.263   7.586  18.006  0.00  0.00    +0.000 NA
ATOM      6  C   UNL     1       3.054   7.033  18.361  0.00  0.00    +0.000 A 
ATOM      7  C   UNL     1       2.890   5.764  17.794  0.00  0.00    +0.000 A 
ATOM      8  N   UNL     1       4.088   5.537  17.108  0.00  0.00    +0.000 N 
ATOM      9  C   UNL     1       4.548   4.460  16.346  0.00  0.00    +0.000 A 
ENDROOT
BRANCH   6  10
ATOM     10  C   UNL     1       2.118   7.781  19.202  0.00  0.00    +0.000 A 
ATOM     11  C   UNL     1       1.530   8.955  18.705  0.00  0.00    +0.000 A 
ATOM     12  C   UNL     1       0.659   9.718  19.491  0.00  0.00    +0.000 A 
ATOM     13  C   UNL     1       0.354   9.311  20.790  0.00  0.00    +0.000 A 
ATOM     14  C   UNL     1       0.937   8.158  21.303  0.00  0.00    +0.000 A 
ATOM     15  C   UNL     1       1.825   7.412  20.521  0.00  0.00    +0.000 A 
ENDBRANCH   6  10
BRANCH   1  17
ATOM     16  C   UNL     1       6.347   3.691  13.566  0.00  0.00    +0.000 C 
ATOM     17  O   UNL     1       6.122   3.438  14.945  0.00  0.00    +0.000 OA
ENDBRANCH   1  17
BRANCH   7  18
ATOM     18  C   UNL     1       1.682   4.859  17.878  0.00  0.00    +0.000 C 
BRANCH  18  19
ATOM     19  C   UNL     1       1.499   3.961  19.095  0.00  0.00    +0.000 C 
BRANCH  19  20
ATOM     20  N   UNL     1       2.741   3.547  19.722  0.00  0.00    +0.000 N 
ATOM     21  C   UNL     1       3.405   2.406  19.331  0.00  0.00    +0.000 C 
ATOM     22  C   UNL     1       4.566   2.036  20.213  0.00  0.00    +0.000 C 
ATOM     23  O   UNL     1       3.096   1.739  18.351  0.00  0.00    +0.000 OA
ATOM     24  H   UNL     1       2.953   3.934  20.633  0.00  0.00    +0.000 HD
ENDBRANCH  19  20
ENDBRANCH  18  19
ENDBRANCH   7  18
TORSDOF 5
ENDMDL
MODEL 7
REMARK VINA RESULT:      -7.4      3.470      7.091
REMARK  Name = 
REMARK  7 active torsions:
REMARK  status: ('A' for Active; 'I' for Inactive)
REMARK    1  A    between atoms: C_1  and  O_2
REMARK    2  A    between atoms: O_2  and  C_3
REMARK    3  A    between atoms: C_8  and  C_9
REMARK    4  A    between atoms: C_15  and  C_16
REMARK    5  A    between atoms: C_16  and  C_17
REMARK    6  A    between atoms: C_17  and  N_18
REMARK    7  A    between atoms: C_19  and  C_20
REMARK                            x       y       z     vdW  Elec       q    Type
REMARK                         _______ _______ _______ _____ _____    ______ ____
ROOT
ATOM      1  C   UNL     1       1.513   8.054  20.345  0.00  0.00    +0.000 A 
ATOM      2  C   UNL     1       1.355   8.995  19.249  0.00  0.00    +0.000 A 
ATOM      3  C   UNL     1       2.028   8.830  18.095  0.00  0.00    +0.000 A 
ATOM      4  C   UNL     1       2.907   7.720  17.927  0.00  0.00    +0.000 A 
ATOM      5  N   UNL     1       3.661   7.388  16.907  0.00  0.00    +0.000 NA
ATOM      6  C   UNL     1       4.290   6.220  17.269  0.00  0.00    +0.000 A 
ATOM      7  C   UNL     1       3.953   5.845  18.575  0.00  0.00    +0.000 A 
ATOM      8  N   UNL     1       3.038   6.818  18.986  0.00  0.00    +0.000 N 
ATOM      9  C   UNL     1       2.333   7.005  20.178  0.00  0.00    +0.000 A 
ENDROOT
BRANCH   6  10
ATOM     10  C   UNL     1       5.204   5.554  16.339  0.00  0.00    +0.000 A 
ATOM     11  C   UNL     1       6.585   5.793  16.438  0.00  0.00    +0.000 A 
ATOM     12  C   UNL     1       7.487   5.205  15.545  0.00  0.00    +0.000 A 
ATOM     13  C   UNL     1       7.022   4.359  14.539  0.00  0.00    +0.000 A 
ATOM     14  C   UNL     1       5.658   4.120  14.419  0.00  0.00    +0.000 A 
ATOM     15  C   UNL     1       4.758   4.728  15.299  0.00  0.00    +0.000 A 
ENDBRANCH   6  10
BRANCH   1  17
ATOM     16  C   UNL     1      -0.208   9.114  21.647  0.00  0.00    +0.000 C 
ATOM     17  O   UNL     1       0.908   8.239  21.569  0.00  0.00    +0.000 OA
ENDBRANCH   1  17
BRANCH   7  18
ATOM     18  C   UNL     1       4.482   4.673  19.369  0.00  0.00    +0.000 C 
BRANCH  18  19
ATOM     19  C   UNL     1       4.296   3.258  18.836  0.00  0.00    +0.000 C 
BRANCH  19  20
ATOM     20  N   UNL     1       2.993   2.682  19.117  0.00  0.00    +0.000 N 
ATOM     21  C   UNL     1       1.942   2.802  18.237  0.00  0.00    +0.000 C 
ATOM     22  C   UNL     1       0.627   2.309  18.776  0.00  0.00    +0.000 C 
ATOM     23  O   UNL     1       2.048   3.264  17.106  0.00  0.00    +0.000 OA
ATOM     24  H   UNL     1       2.785   2.455  20.081  0.00  0.00    +0.000 HD
ENDBRANCH  19  20
ENDBRANCH  18  19
ENDBRANCH   7  18
TORSDOF 5
ENDMDL
MODEL 8
REMARK VINA RESULT:      -7.4      3.133      5.200
REMARK  Name = 
REMARK  7 active torsions:
REMARK  status: ('A' for Active; 'I' for Inactive)
REMARK    1  A    between atoms: C_1  and  O_2
REMARK    2  A    between atoms: O_2  and  C_3
REMARK    3  A    between atoms: C_8  and  C_9
REMARK    4  A    between atoms: C_15  and  C_16
REMARK    5  A    between atoms: C_16  and  C_17
REMARK    6  A    between atoms: C_17  and  N_18
REMARK    7  A    between atoms: C_19  and  C_20
REMARK                            x       y       z     vdW  Elec       q    Type
REMARK                         _______ _______ _______ _____ _____    ______ ____
ROOT
ATOM      1  C   UNL     1       5.789   4.460  15.724  0.00  0.00    +0.000 A 
ATOM      2  C   UNL     1       6.665   5.586  16.000  0.00  0.00    +0.000 A 
ATOM      3  C   UNL     1       6.250   6.613  16.765  0.00  0.00    +0.000 A 
ATOM      4  C   UNL     1       4.938   6.609  17.324  0.00  0.00    +0.000 A 
ATOM      5  N   UNL     1       4.337   7.504  18.069  0.00  0.00    +0.000 NA
ATOM      6  C   UNL     1       3.090   6.990  18.342  0.00  0.00    +0.000 A 
ATOM      7  C   UNL     1       2.897   5.760  17.702  0.00  0.00    +0.000 A 
ATOM      8  N   UNL     1       4.113   5.513  17.058  0.00  0.00    +0.000 N 
ATOM      9  C   UNL     1       4.560   4.456  16.261  0.00  0.00    +0.000 A 
ENDROOT
BRANCH   6  10
ATOM     10  C   UNL     1       2.151   7.736  19.181  0.00  0.00    +0.000 A 
ATOM     11  C   UNL     1       1.575   8.919  18.688  0.00  0.00    +0.000 A 
ATOM     12  C   UNL     1       0.701   9.680  19.473  0.00  0.00    +0.000 A 
ATOM     13  C   UNL     1       0.381   9.264  20.765  0.00  0.00    +0.000 A 
ATOM     14  C   UNL     1       0.951   8.102  21.273  0.00  0.00    +0.000 A 
ATOM     15  C   UNL     1       1.842   7.357  20.494  0.00  0.00    +0.000 A 
ENDBRANCH   6  10
BRANCH   1  17
ATOM     16  C   UNL     1       6.228   3.703  13.484  0.00  0.00    +0.000 C 
ATOM     17  O   UNL     1       6.149   3.436  14.877  0.00  0.00    +0.000 OA
ENDBRANCH   1  17
BRANCH   7  18
ATOM     18  C   UNL     1       1.648   4.909  17.687  0.00  0.00    +0.000 C 
BRANCH  18  19
ATOM     19  C   UNL     1       1.723   3.456  18.138  0.00  0.00    +0.000 C 
BRANCH  19  20
ATOM     20  N   UNL     1       1.310   3.237  19.513  0.00  0.00    +0.000 N 
ATOM     21  C   UNL     1       2.219   2.967  20.509  0.00  0.00    +0.000 C 
ATOM     22  C   UNL     1       1.598   2.584  21.825  0.00  0.00    +0.000 C 
ATOM     23  O   UNL     1       3.434   3.033  20.360  0.00  0.00    +0.000 OA
ATOM     24  H   UNL     1       0.340   2.991  19.672  0.00  0.00    +0.000 HD
ENDBRANCH  19  20
ENDBRANCH  18  19
ENDBRANCH   7  18
TORSDOF 5
ENDMDL
MODEL 9
REMARK VINA RESULT:      -7.4      4.578      7.765
REMARK  Name = 
REMARK  7 active torsions:
REMARK  status: ('A' for Active; 'I' for Inactive)
REMARK    1  A    between atoms: C_1  and  O_2
REMARK    2  A    between atoms: O_2  and  C_3
REMARK    3  A    between atoms: C_8  and  C_9
REMARK    4  A    between atoms: C_15  and  C_16
REMARK    5  A    between atoms: C_16  and  C_17
REMARK    6  A    between atoms: C_17  and  N_18
REMARK    7  A    between atoms: C_19  and  C_20
REMARK                            x       y       z     vdW  Elec       q    Type
REMARK                         _______ _______ _______ _____ _____    ______ ____
ROOT
ATOM      1  C   UNL     1       0.343   9.963  20.625  0.00  0.00    +0.000 A 
ATOM      2  C   UNL     1       0.432  10.744  19.402  0.00  0.00    +0.000 A 
ATOM      3  C   UNL     1       1.132  10.292  18.345  0.00  0.00    +0.000 A 
ATOM      4  C   UNL     1       1.797   9.032  18.407  0.00  0.00    +0.000 A 
ATOM      5  N   UNL     1       2.537   8.424  17.512  0.00  0.00    +0.000 NA
ATOM      6  C   UNL     1       2.913   7.230  18.083  0.00  0.00    +0.000 A 
ATOM      7  C   UNL     1       2.432   7.120  19.393  0.00  0.00    +0.000 A 
ATOM      8  N   UNL     1       1.691   8.290  19.586  0.00  0.00    +0.000 N 
ATOM      9  C   UNL     1       0.960   8.774  20.675  0.00  0.00    +0.000 A 
ENDROOT
BRANCH   6  10
ATOM     10  C   UNL     1       3.743   6.283  17.337  0.00  0.00    +0.000 A 
ATOM     11  C   UNL     1       3.481   4.907  17.438  0.00  0.00    +0.000 A 
ATOM     12  C   UNL     1       4.275   3.968  16.768  0.00  0.00    +0.000 A 
ATOM     13  C   UNL     1       5.342   4.393  15.978  0.00  0.00    +0.000 A 
ATOM     14  C   UNL     1       5.622   5.751  15.875  0.00  0.00    +0.000 A 
ATOM     15  C   UNL     1       4.841   6.684  16.564  0.00  0.00    +0.000 A 
ENDBRANCH   6  10
BRANCH   1  17
ATOM     16  C   UNL     1      -0.639  11.808  21.814  0.00  0.00    +0.000 C 
ATOM     17  O   UNL     1      -0.292  10.433  21.754  0.00  0.00    +0.000 OA
ENDBRANCH   1  17
BRANCH   7  18
ATOM     18  C   UNL     1       2.681   6.005  20.382  0.00  0.00    +0.000 C 
BRANCH  18  19
ATOM     19  C   UNL     1       1.518   5.138  20.848  0.00  0.00    +0.000 C 
BRANCH  19  20
ATOM     20  N   UNL     1       1.199   4.039  19.954  0.00  0.00    +0.000 N 
ATOM     21  C   UNL     1       1.830   2.821  20.050  0.00  0.00    +0.000 C 
ATOM     22  C   UNL     1       1.509   1.869  18.930  0.00  0.00    +0.000 C 
ATOM     23  O   UNL     1       2.588   2.515  20.964  0.00  0.00    +0.000 OA
ATOM     24  H   UNL     1       0.733   4.268  19.085  0.00  0.00    +0.000 HD
ENDBRANCH  19  20
ENDBRANCH  18  19
ENDBRANCH   7  18
TORSDOF 5
ENDMDL
