MODEL 1
REMARK VINA RESULT:      -8.9      0.000      0.000
REMARK  Name = 
REMARK  6 active torsions:
REMARK  status: ('A' for Active; 'I' for Inactive)
REMARK    1  A    between atoms: C_2  and  C_3
REMARK    2  A    between atoms: C_5  and  C_6
REMARK    3  A    between atoms: C_14  and  C_15
REMARK    4  A    between atoms: C_15  and  O_16
REMARK    5  A    between atoms: C_23  and  O_24
REMARK    6  A    between atoms: O_24  and  C_25
REMARK                            x       y       z     vdW  Elec       q    Type
REMARK                         _______ _______ _______ _____ _____    ______ ____
ROOT
ATOM      1  C   UNL     1       1.461   9.325  19.278  0.00  0.00    +0.000 A 
ATOM      2  C   UNL     1       1.467  10.353  18.361  0.00  0.00    +0.000 A 
ATOM      3  C   UNL     1       0.664  11.417  18.661  0.00  0.00    +0.000 A 
ATOM      4  N   UNL     1      -0.082  11.478  19.771  0.00  0.00    +0.000 NA
ATOM      5  C   UNL     1       0.016  10.476  20.653  0.00  0.00    +0.000 A 
ATOM      6  N   UNL     1      -0.738  10.495  21.823  0.00  0.00    +0.000 N 
ATOM      7  C   UNL     1      -1.123  11.666  22.482  0.00  0.00    +0.000 A 
ATOM      8  C   UNL     1      -2.304  11.670  23.219  0.00  0.00    +0.000 A 
ATOM      9  C   UNL     1      -2.779  12.870  23.760  0.00  0.00    +0.000 A 
ATOM     10  C   UNL     1      -1.998  14.018  23.607  0.00  0.00    +0.000 A 
ATOM     11  C   UNL     1      -0.807  13.917  22.916  0.00  0.00    +0.000 A 
ATOM     12  N   UNL     1      -0.364  12.774  22.365  0.00  0.00    +0.000 NA
ATOM     13  N   UNL     1       0.758   9.382  20.435  0.00  0.00    +0.000 NA
ATOM     14  H   UNL     1      -0.461   9.745  22.437  0.00  0.00    +0.000 HD
ENDROOT
BRANCH   1  17
ATOM     15  C   UNL     1       2.604   5.748  19.780  0.00  0.00    +0.000 A 
ATOM     16  C   UNL     1       2.067   7.023  20.000  0.00  0.00    +0.000 A 
ATOM     17  C   UNL     1       2.170   8.057  19.060  0.00  0.00    +0.000 A 
ATOM     18  C   UNL     1       2.886   7.790  17.886  0.00  0.00    +0.000 A 
ATOM     19  C   UNL     1       3.442   6.534  17.660  0.00  0.00    +0.000 A 
ATOM     20  C   UNL     1       3.313   5.499  18.594  0.00  0.00    +0.000 A 
BRANCH  15  22
ATOM     21  N   UNL     1       2.064   3.949  21.558  0.00  0.00    +0.000 NA
ATOM     22  C   UNL     1       2.317   4.778  20.782  0.00  0.00    +0.000 C 
ENDBRANCH  15  22
BRANCH  20  23
ATOM     23  O   UNL     1       3.846   4.320  18.157  0.00  0.00    +0.000 OA
BRANCH  23  24
ATOM     24  C   UNL     1       5.264   4.141  18.032  0.00  0.00    +0.000 C 
ATOM     25  C   UNL     1       6.034   5.140  18.901  0.00  0.00    +0.000 C 
ATOM     26  C   UNL     1       7.486   5.273  18.476  0.00  0.00    +0.000 C 
ATOM     27  O   UNL     1       7.586   5.539  17.080  0.00  0.00    +0.000 OA
ATOM     28  C   UNL     1       7.074   4.462  16.301  0.00  0.00    +0.000 C 
ATOM     29  C   UNL     1       5.585   4.301  16.541  0.00  0.00    +0.000 C 
ENDBRANCH  23  24
ENDBRANCH  20  23
ENDBRANCH   1  17
BRANCH   9  30
ATOM     30  C   UNL     1      -4.073  12.948  24.524  0.00  0.00    +0.000 C 
BRANCH  30  31
ATOM     31  O   UNL     1      -4.594  11.658  24.814  0.00  0.00    +0.000 OA
ATOM     32  H   UNL     1      -5.563  11.741  24.821  0.00  0.00    +0.000 HD
ENDBRANCH  30  31
ENDBRANCH   9  30
TORSDOF 6
ENDMDL
MODEL 2
REMARK VINA RESULT:      -8.4      2.242     10.585
REMARK  Name = 
REMARK  6 active torsions:
REMARK  status: ('A' for Active; 'I' for Inactive)
REMARK    1  A    between atoms: C_2  and  C_3
REMARK    2  A    between atoms: C_5  and  C_6
REMARK    3  A    between atoms: C_14  and  C_15
REMARK    4  A    between atoms: C_15  and  O_16
REMARK    5  A    between atoms: C_23  and  O_24
REMARK    6  A    between atoms: O_24  and  C_25
REMARK                            x       y       z     vdW  Elec       q    Type
REMARK                         _______ _______ _______ _____ _____    ______ ____
ROOT
ATOM      1  C   UNL     1       1.588   7.733  20.227  0.00  0.00    +0.000 A 
ATOM      2  C   UNL     1       1.484   6.540  20.909  0.00  0.00    +0.000 A 
ATOM      3  C   UNL     1       2.200   5.499  20.391  0.00  0.00    +0.000 A 
ATOM      4  N   UNL     1       2.962   5.611  19.296  0.00  0.00    +0.000 NA
ATOM      5  C   UNL     1       3.075   6.817  18.725  0.00  0.00    +0.000 A 
ATOM      6  N   UNL     1       3.859   6.984  17.588  0.00  0.00    +0.000 N 
ATOM      7  C   UNL     1       4.998   6.224  17.308  0.00  0.00    +0.000 A 
ATOM      8  C   UNL     1       5.354   6.002  15.980  0.00  0.00    +0.000 A 
ATOM      9  C   UNL     1       6.401   5.123  15.682  0.00  0.00    +0.000 A 
ATOM     10  C   UNL     1       7.111   4.557  16.742  0.00  0.00    +0.000 A 
ATOM     11  C   UNL     1       6.735   4.877  18.032  0.00  0.00    +0.000 A 
ATOM     12  N   UNL     1       5.708   5.693  18.324  0.00  0.00    +0.000 NA
ATOM     13  N   UNL     1       2.394   7.890  19.149  0.00  0.00    +0.000 NA
ATOM     14  H   UNL     1       3.945   7.961  17.356  0.00  0.00    +0.000 HD
ENDROOT
BRANCH   1  17
ATOM     15  C   UNL     1      -0.463  10.891  19.818  0.00  0.00    +0.000 A 
ATOM     16  C   UNL     1       0.406   9.820  19.571  0.00  0.00    +0.000 A 
ATOM     17  C   UNL     1       0.797   8.921  20.572  0.00  0.00    +0.000 A 
ATOM     18  C   UNL     1       0.324   9.157  21.869  0.00  0.00    +0.000 A 
ATOM     19  C   UNL     1      -0.525  10.227  22.135  0.00  0.00    +0.000 A 
ATOM     20  C   UNL     1      -0.932  11.107  21.124  0.00  0.00    +0.000 A 
BRANCH  15  22
ATOM     21  N   UNL     1      -1.172  12.308  17.773  0.00  0.00    +0.000 NA
ATOM     22  C   UNL     1      -0.852  11.645  18.674  0.00  0.00    +0.000 C 
ENDBRANCH  15  22
BRANCH  20  23
ATOM     23  O   UNL     1      -1.831  12.037  21.558  0.00  0.00    +0.000 OA
BRANCH  23  24
ATOM     24  C   UNL     1      -1.861  12.467  22.928  0.00  0.00    +0.000 C 
ATOM     25  C   UNL     1      -3.294  12.527  23.465  0.00  0.00    +0.000 C 
ATOM     26  C   UNL     1      -3.400  13.369  24.725  0.00  0.00    +0.000 C 
ATOM     27  O   UNL     1      -2.810  14.651  24.532  0.00  0.00    +0.000 OA
ATOM     28  C   UNL     1      -1.413  14.554  24.274  0.00  0.00    +0.000 C 
ATOM     29  C   UNL     1      -1.169  13.834  22.962  0.00  0.00    +0.000 C 
ENDBRANCH  23  24
ENDBRANCH  20  23
ENDBRANCH   1  17
BRANCH   9  30
ATOM     30  C   UNL     1       6.801   4.805  14.266  0.00  0.00    +0.000 C 
BRANCH  30  31
ATOM     31  O   UNL     1       7.931   5.560  13.854  0.00  0.00    +0.000 OA
ATOM     32  H   UNL     1       8.716   5.013  14.031  0.00  0.00    +0.000 HD
ENDBRANCH  30  31
ENDBRANCH   9  30
TORSDOF 6
ENDMDL
MODEL 3
REMARK VINA RESULT:      -8.3      2.193     10.669
REMARK  Name = 
REMARK  6 active torsions:
REMARK  status: ('A' for Active; 'I' for Inactive)
REMARK    1  A    between atoms: C_2  and  C_3
REMARK    2  A    between atoms: C_5  and  C_6
REMARK    3  A    between atoms: C_14  and  C_15
REMARK    4  A    between atoms: C_15  and  O_16
REMARK    5  A    between atoms: C_23  and  O_24
REMARK    6  A    between atoms: O_24  and  C_25
REMARK                            x       y       z     vdW  Elec       q    Type
REMARK                         _______ _______ _______ _____ _____    ______ ____
ROOT
ATOM      1  C   UNL     1       1.465   7.876  20.442  0.00  0.00    +0.000 A 
ATOM      2  C   UNL     1       1.234   6.659  21.046  0.00  0.00    +0.000 A 
ATOM      3  C   UNL     1       1.855   5.587  20.470  0.00  0.00    +0.000 A 
ATOM      4  N   UNL     1       2.644   5.692  19.393  0.00  0.00    +0.000 NA
ATOM      5  C   UNL     1       2.882   6.914  18.902  0.00  0.00    +0.000 A 
ATOM      6  N   UNL     1       3.698   7.075  17.787  0.00  0.00    +0.000 N 
ATOM      7  C   UNL     1       4.763   6.226  17.471  0.00  0.00    +0.000 A 
ATOM      8  C   UNL     1       5.119   6.055  16.136  0.00  0.00    +0.000 A 
ATOM      9  C   UNL     1       6.081   5.098  15.794  0.00  0.00    +0.000 A 
ATOM     10  C   UNL     1       6.714   4.400  16.824  0.00  0.00    +0.000 A 
ATOM     11  C   UNL     1       6.349   4.674  18.127  0.00  0.00    +0.000 A 
ATOM     12  N   UNL     1       5.401   5.567  18.459  0.00  0.00    +0.000 NA
ATOM     13  N   UNL     1       2.300   8.020  19.386  0.00  0.00    +0.000 NA
ATOM     14  H   UNL     1       3.881   8.052  17.618  0.00  0.00    +0.000 HD
ENDROOT
BRANCH   1  17
ATOM     15  C   UNL     1      -0.299  11.220  20.210  0.00  0.00    +0.000 A 
ATOM     16  C   UNL     1       0.468  10.089  19.902  0.00  0.00    +0.000 A 
ATOM     17  C   UNL     1       0.786   9.111  20.854  0.00  0.00    +0.000 A 
ATOM     18  C   UNL     1       0.348   9.326  22.167  0.00  0.00    +0.000 A 
ATOM     19  C   UNL     1      -0.400  10.453  22.494  0.00  0.00    +0.000 A 
ATOM     20  C   UNL     1      -0.735  11.413  21.531  0.00  0.00    +0.000 A 
BRANCH  15  22
ATOM     21  N   UNL     1      -0.890  12.699  18.173  0.00  0.00    +0.000 NA
ATOM     22  C   UNL     1      -0.628  12.060  19.109  0.00  0.00    +0.000 C 
ENDBRANCH  15  22
BRANCH  20  23
ATOM     23  O   UNL     1      -1.544  12.398  22.021  0.00  0.00    +0.000 OA
BRANCH  23  24
ATOM     24  C   UNL     1      -2.911  12.137  22.372  0.00  0.00    +0.000 C 
ATOM     25  C   UNL     1      -3.878  12.808  21.393  0.00  0.00    +0.000 C 
ATOM     26  C   UNL     1      -5.283  12.921  21.959  0.00  0.00    +0.000 C 
ATOM     27  O   UNL     1      -5.266  13.528  23.248  0.00  0.00    +0.000 OA
ATOM     28  C   UNL     1      -4.554  12.736  24.193  0.00  0.00    +0.000 C 
ATOM     29  C   UNL     1      -3.090  12.646  23.807  0.00  0.00    +0.000 C 
ENDBRANCH  23  24
ENDBRANCH  20  23
ENDBRANCH   1  17
BRANCH   9  30
ATOM     30  C   UNL     1       6.472   4.832  14.365  0.00  0.00    +0.000 C 
BRANCH  30  31
ATOM     31  O   UNL     1       7.687   5.483  14.020  0.00  0.00    +0.000 OA
ATOM     32  H   UNL     1       7.507   6.012  13.223  0.00  0.00    +0.000 HD
ENDBRANCH  30  31
ENDBRANCH   9  30
TORSDOF 6
ENDMDL
MODEL 4
REMARK VINA RESULT:      -8.3      1.849      2.885
REMARK  Name = 
REMARK  6 active torsions:
REMARK  status: ('A' for Active; 'I' for Inactive)
REMARK    1  A    between atoms: C_2  and  C_3
REMARK    2  A    between atoms: C_5  and  C_6
REMARK    3  A    between atoms: C_14  and  C_15
REMARK    4  A    between atoms: C_15  and  O_16
REMARK    5  A    between atoms: C_23  and  O_24
REMARK    6  A    between atoms: O_24  and  C_25
REMARK                            x       y       z     vdW  Elec       q    Type
REMARK                         _______ _______ _______ _____ _____    ______ ____
ROOT
ATOM      1  C   UNL     1       1.329   9.329  19.187  0.00  0.00    +0.000 A 
ATOM      2  C   UNL     1       1.160  10.259  18.184  0.00  0.00    +0.000 A 
ATOM      3  C   UNL     1       0.290  11.275  18.461  0.00  0.00    +0.000 A 
ATOM      4  N   UNL     1      -0.361  11.382  19.625  0.00  0.00    +0.000 NA
ATOM      5  C   UNL     1      -0.095  10.483  20.582  0.00  0.00    +0.000 A 
ATOM      6  N   UNL     1      -0.744  10.554  21.811  0.00  0.00    +0.000 N 
ATOM      7  C   UNL     1      -1.180  11.747  22.395  0.00  0.00    +0.000 A 
ATOM      8  C   UNL     1      -2.288  11.723  23.236  0.00  0.00    +0.000 A 
ATOM      9  C   UNL     1      -2.825  12.926  23.708  0.00  0.00    +0.000 A 
ATOM     10  C   UNL     1      -2.171  14.115  23.379  0.00  0.00    +0.000 A 
ATOM     11  C   UNL     1      -1.039  14.048  22.591  0.00  0.00    +0.000 A 
ATOM     12  N   UNL     1      -0.540  12.899  22.107  0.00  0.00    +0.000 NA
ATOM     13  N   UNL     1       0.725   9.441  20.394  0.00  0.00    +0.000 NA
ATOM     14  H   UNL     1      -0.347   9.894  22.461  0.00  0.00    +0.000 HD
ENDROOT
BRANCH   1  17
ATOM     15  C   UNL     1       3.807   6.870  17.718  0.00  0.00    +0.000 A 
ATOM     16  C   UNL     1       2.917   7.941  17.869  0.00  0.00    +0.000 A 
ATOM     17  C   UNL     1       2.132   8.112  19.018  0.00  0.00    +0.000 A 
ATOM     18  C   UNL     1       2.227   7.131  20.014  0.00  0.00    +0.000 A 
ATOM     19  C   UNL     1       3.093   6.051  19.870  0.00  0.00    +0.000 A 
ATOM     20  C   UNL     1       3.892   5.901  18.730  0.00  0.00    +0.000 A 
BRANCH  15  22
ATOM     21  N   UNL     1       5.234   6.885  15.561  0.00  0.00    +0.000 NA
ATOM     22  C   UNL     1       4.612   6.901  16.544  0.00  0.00    +0.000 C 
ENDBRANCH  15  22
BRANCH  20  23
ATOM     23  O   UNL     1       4.738   4.832  18.811  0.00  0.00    +0.000 OA
BRANCH  23  24
ATOM     24  C   UNL     1       4.360   3.540  18.314  0.00  0.00    +0.000 C 
ATOM     25  C   UNL     1       3.001   3.586  17.610  0.00  0.00    +0.000 C 
ATOM     26  C   UNL     1       2.382   2.206  17.463  0.00  0.00    +0.000 C 
ATOM     27  O   UNL     1       2.353   1.526  18.714  0.00  0.00    +0.000 OA
ATOM     28  C   UNL     1       3.664   1.286  19.215  0.00  0.00    +0.000 C 
ATOM     29  C   UNL     1       4.356   2.600  19.525  0.00  0.00    +0.000 C 
ENDBRANCH  23  24
ENDBRANCH  20  23
ENDBRANCH   1  17
BRANCH   9  30
ATOM     30  C   UNL     1      -4.051  12.969  24.580  0.00  0.00    +0.000 C 
BRANCH  30  31
ATOM     31  O   UNL     1      -4.593  11.673  24.793  0.00  0.00    +0.000 OA
ATOM     32  H   UNL     1      -5.560  11.757  24.724  0.00  0.00    +0.000 HD
ENDBRANCH  30  31
ENDBRANCH   9  30
TORSDOF 6
ENDMDL
MODEL 5
REMARK VINA RESULT:      -8.2      2.492     10.330
REMARK  Name = 
REMARK  6 active torsions:
REMARK  status: ('A' for Active; 'I' for Inactive)
REMARK    1  A    between atoms: C_2  and  C_3
REMARK    2  A    between atoms: C_5  and  C_6
REMARK    3  A    between atoms: C_14  and  C_15
REMARK    4  A    between atoms: C_15  and  O_16
REMARK    5  A    between atoms: C_23  and  O_24
REMARK    6  A    between atoms: O_24  and  C_25
REMARK                            x       y       z     vdW  Elec       q    Type
REMARK                         _______ _______ _______ _____ _____    ______ ____
ROOT
ATOM      1  C   UNL     1       1.700   7.601  20.239  0.00  0.00    +0.000 A 
ATOM      2  C   UNL     1       1.559   6.376  20.856  0.00  0.00    +0.000 A 
ATOM      3  C   UNL     1       2.241   5.343  20.278  0.00  0.00    +0.000 A 
ATOM      4  N   UNL     1       3.004   5.489  19.188  0.00  0.00    +0.000 NA
ATOM      5  C   UNL     1       3.154   6.721  18.683  0.00  0.00    +0.000 A 
ATOM      6  N   UNL     1       3.940   6.925  17.554  0.00  0.00    +0.000 N 
ATOM      7  C   UNL     1       5.053   6.145  17.228  0.00  0.00    +0.000 A 
ATOM      8  C   UNL     1       5.399   5.986  15.889  0.00  0.00    +0.000 A 
ATOM      9  C   UNL     1       6.417   5.091  15.539  0.00  0.00    +0.000 A 
ATOM     10  C   UNL     1       7.111   4.446  16.564  0.00  0.00    +0.000 A 
ATOM     11  C   UNL     1       6.748   4.707  17.871  0.00  0.00    +0.000 A 
ATOM     12  N   UNL     1       5.749   5.538  18.211  0.00  0.00    +0.000 NA
ATOM     13  N   UNL     1       2.508   7.790  19.168  0.00  0.00    +0.000 NA
ATOM     14  H   UNL     1       4.056   7.910  17.375  0.00  0.00    +0.000 HD
ENDROOT
BRANCH   1  17
ATOM     15  C   UNL     1      -0.483  10.689  20.023  0.00  0.00    +0.000 A 
ATOM     16  C   UNL     1       0.360   9.621  19.687  0.00  0.00    +0.000 A 
ATOM     17  C   UNL     1       0.948   8.792  20.652  0.00  0.00    +0.000 A 
ATOM     18  C   UNL     1       0.705   9.098  21.997  0.00  0.00    +0.000 A 
ATOM     19  C   UNL     1      -0.114  10.167  22.348  0.00  0.00    +0.000 A 
ATOM     20  C   UNL     1      -0.719  10.975  21.377  0.00  0.00    +0.000 A 
BRANCH  15  22
ATOM     21  N   UNL     1      -1.559  11.964  18.047  0.00  0.00    +0.000 NA
ATOM     22  C   UNL     1      -1.089  11.363  18.926  0.00  0.00    +0.000 C 
ENDBRANCH  15  22
BRANCH  20  23
ATOM     23  O   UNL     1      -1.555  11.913  21.912  0.00  0.00    +0.000 OA
BRANCH  23  24
ATOM     24  C   UNL     1      -1.226  13.310  21.885  0.00  0.00    +0.000 C 
ATOM     25  C   UNL     1       0.268  13.529  21.636  0.00  0.00    +0.000 C 
ATOM     26  C   UNL     1       0.718  14.927  22.025  0.00  0.00    +0.000 C 
ATOM     27  O   UNL     1       0.310  15.242  23.353  0.00  0.00    +0.000 OA
ATOM     28  C   UNL     1      -1.109  15.265  23.477  0.00  0.00    +0.000 C 
ATOM     29  C   UNL     1      -1.681  13.882  23.233  0.00  0.00    +0.000 C 
ENDBRANCH  23  24
ENDBRANCH  20  23
ENDBRANCH   1  17
BRANCH   9  30
ATOM     30  C   UNL     1       6.803   4.839  14.107  0.00  0.00    +0.000 C 
BRANCH  30  31
ATOM     31  O   UNL     1       7.957   5.578  13.732  0.00  0.00    +0.000 OA
ATOM     32  H   UNL     1       8.334   5.136  12.952  0.00  0.00    +0.000 HD
ENDBRANCH  30  31
ENDBRANCH   9  30
TORSDOF 6
ENDMDL
MODEL 6
REMARK VINA RESULT:      -8.2      3.412      3.778
REMARK  Name = 
REMARK  6 active torsions:
REMARK  status: ('A' for Active; 'I' for Inactive)
REMARK    1  A    between atoms: C_2  and  C_3
REMARK    2  A    between atoms: C_5  and  C_6
REMARK    3  A    between atoms: C_14  and  C_15
REMARK    4  A    between atoms: C_15  and  O_16
REMARK    5  A    between atoms: C_23  and  O_24
REMARK    6  A    between atoms: O_24  and  C_25
REMARK                            x       y       z     vdW  Elec       q    Type
REMARK                         _______ _______ _______ _____ _____    ______ ____
ROOT
ATOM      1  C   UNL     1       0.618  10.181  19.210  0.00  0.00    +0.000 A 
ATOM      2  C   UNL     1       0.960  11.282  19.965  0.00  0.00    +0.000 A 
ATOM      3  C   UNL     1       0.031  12.282  20.007  0.00  0.00    +0.000 A 
ATOM      4  N   UNL     1      -1.144  12.214  19.369  0.00  0.00    +0.000 NA
ATOM      5  C   UNL     1      -1.442  11.085  18.713  0.00  0.00    +0.000 A 
ATOM      6  N   UNL     1      -2.652  10.965  18.038  0.00  0.00    +0.000 N 
ATOM      7  C   UNL     1      -3.832  11.605  18.431  0.00  0.00    +0.000 A 
ATOM      8  C   UNL     1      -4.772  11.946  17.463  0.00  0.00    +0.000 A 
ATOM      9  C   UNL     1      -5.885  12.716  17.820  0.00  0.00    +0.000 A 
ATOM     10  C   UNL     1      -6.053  13.050  19.165  0.00  0.00    +0.000 A 
ATOM     11  C   UNL     1      -5.107  12.619  20.074  0.00  0.00    +0.000 A 
ATOM     12  N   UNL     1      -4.020  11.909  19.732  0.00  0.00    +0.000 NA
ATOM     13  N   UNL     1      -0.585  10.062  18.598  0.00  0.00    +0.000 NA
ATOM     14  H   UNL     1      -2.783  10.022  17.706  0.00  0.00    +0.000 HD
ENDROOT
BRANCH   1  17
ATOM     15  C   UNL     1       2.317   6.813  19.549  0.00  0.00    +0.000 A 
ATOM     16  C   UNL     1       1.560   7.961  19.816  0.00  0.00    +0.000 A 
ATOM     17  C   UNL     1       1.542   9.069  18.957  0.00  0.00    +0.000 A 
ATOM     18  C   UNL     1       2.360   9.015  17.821  0.00  0.00    +0.000 A 
ATOM     19  C   UNL     1       3.131   7.889  17.550  0.00  0.00    +0.000 A 
ATOM     20  C   UNL     1       3.125   6.777  18.401  0.00  0.00    +0.000 A 
BRANCH  15  22
ATOM     21  N   UNL     1       1.985   4.817  21.159  0.00  0.00    +0.000 NA
ATOM     22  C   UNL     1       2.140   5.734  20.460  0.00  0.00    +0.000 C 
ENDBRANCH  15  22
BRANCH  20  23
ATOM     23  O   UNL     1       3.874   5.739  17.925  0.00  0.00    +0.000 OA
BRANCH  23  24
ATOM     24  C   UNL     1       5.211   5.941  17.443  0.00  0.00    +0.000 C 
ATOM     25  C   UNL     1       5.386   5.385  16.027  0.00  0.00    +0.000 C 
ATOM     26  C   UNL     1       6.848   5.188  15.663  0.00  0.00    +0.000 C 
ATOM     27  O   UNL     1       7.523   4.428  16.661  0.00  0.00    +0.000 OA
ATOM     28  C   UNL     1       7.546   5.105  17.914  0.00  0.00    +0.000 C 
ATOM     29  C   UNL     1       6.138   5.256  18.455  0.00  0.00    +0.000 C 
ENDBRANCH  23  24
ENDBRANCH  20  23
ENDBRANCH   1  17
BRANCH   9  30
ATOM     30  C   UNL     1      -6.910  13.157  16.810  0.00  0.00    +0.000 C 
BRANCH  30  31
ATOM     31  O   UNL     1      -6.750  14.525  16.458  0.00  0.00    +0.000 OA
ATOM     32  H   UNL     1      -6.403  14.543  15.549  0.00  0.00    +0.000 HD
ENDBRANCH  30  31
ENDBRANCH   9  30
TORSDOF 6
ENDMDL
MODEL 7
REMARK VINA RESULT:      -8.1      2.268      2.879
REMARK  Name = 
REMARK  6 active torsions:
REMARK  status: ('A' for Active; 'I' for Inactive)
REMARK    1  A    between atoms: C_2  and  C_3
REMARK    2  A    between atoms: C_5  and  C_6
REMARK    3  A    between atoms: C_14  and  C_15
REMARK    4  A    between atoms: C_15  and  O_16
REMARK    5  A    between atoms: C_23  and  O_24
REMARK    6  A    between atoms: O_24  and  C_25
REMARK                            x       y       z     vdW  Elec       q    Type
REMARK                         _______ _______ _______ _____ _____    ______ ____
ROOT
ATOM      1  C   UNL     1       1.458   8.495  20.447  0.00  0.00    +0.000 A 
ATOM      2  C   UNL     1       1.186   8.399  21.794  0.00  0.00    +0.000 A 
ATOM      3  C   UNL     1       0.685   9.529  22.377  0.00  0.00    +0.000 A 
ATOM      4  N   UNL     1       0.462  10.662  21.700  0.00  0.00    +0.000 NA
ATOM      5  C   UNL     1       0.681  10.662  20.379  0.00  0.00    +0.000 A 
ATOM      6  N   UNL     1       0.460  11.814  19.631  0.00  0.00    +0.000 N 
ATOM      7  C   UNL     1      -0.504  12.776  19.947  0.00  0.00    +0.000 A 
ATOM      8  C   UNL     1      -0.284  14.101  19.582  0.00  0.00    +0.000 A 
ATOM      9  C   UNL     1      -1.166  15.095  20.020  0.00  0.00    +0.000 A 
ATOM     10  C   UNL     1      -2.292  14.706  20.748  0.00  0.00    +0.000 A 
ATOM     11  C   UNL     1      -2.472  13.363  21.015  0.00  0.00    +0.000 A 
ATOM     12  N   UNL     1      -1.610  12.408  20.627  0.00  0.00    +0.000 NA
ATOM     13  N   UNL     1       1.192   9.610  19.726  0.00  0.00    +0.000 NA
ATOM     14  H   UNL     1       0.546  11.621  18.646  0.00  0.00    +0.000 HD
ENDROOT
BRANCH   1  17
ATOM     15  C   UNL     1       2.672   5.036  19.493  0.00  0.00    +0.000 A 
ATOM     16  C   UNL     1       2.189   6.128  20.225  0.00  0.00    +0.000 A 
ATOM     17  C   UNL     1       2.109   7.420  19.687  0.00  0.00    +0.000 A 
ATOM     18  C   UNL     1       2.583   7.604  18.382  0.00  0.00    +0.000 A 
ATOM     19  C   UNL     1       3.083   6.533  17.647  0.00  0.00    +0.000 A 
ATOM     20  C   UNL     1       3.136   5.240  18.183  0.00  0.00    +0.000 A 
BRANCH  15  22
ATOM     21  N   UNL     1       2.558   2.754  20.705  0.00  0.00    +0.000 NA
ATOM     22  C   UNL     1       2.583   3.772  20.142  0.00  0.00    +0.000 C 
ENDBRANCH  15  22
BRANCH  20  23
ATOM     23  O   UNL     1       3.572   4.309  17.284  0.00  0.00    +0.000 OA
BRANCH  23  24
ATOM     24  C   UNL     1       4.967   3.996  17.149  0.00  0.00    +0.000 C 
ATOM     25  C   UNL     1       5.809   4.728  18.197  0.00  0.00    +0.000 C 
ATOM     26  C   UNL     1       7.282   4.770  17.825  0.00  0.00    +0.000 C 
ATOM     27  O   UNL     1       7.458   5.269  16.502  0.00  0.00    +0.000 OA
ATOM     28  C   UNL     1       6.860   4.414  15.532  0.00  0.00    +0.000 C 
ATOM     29  C   UNL     1       5.355   4.383  15.717  0.00  0.00    +0.000 C 
ENDBRANCH  23  24
ENDBRANCH  20  23
ENDBRANCH   1  17
BRANCH   9  30
ATOM     30  C   UNL     1      -0.955  16.550  19.700  0.00  0.00    +0.000 C 
BRANCH  30  31
ATOM     31  O   UNL     1      -2.103  17.131  19.097  0.00  0.00    +0.000 OA
ATOM     32  H   UNL     1      -2.756  17.266  19.806  0.00  0.00    +0.000 HD
ENDBRANCH  30  31
ENDBRANCH   9  30
TORSDOF 6
ENDMDL
MODEL 8
REMARK VINA RESULT:      -8.1      0.878      1.225
REMARK  Name = 
REMARK  6 active torsions:
REMARK  status: ('A' for Active; 'I' for Inactive)
REMARK    1  A    between atoms: C_2  and  C_3
REMARK    2  A    between atoms: C_5  and  C_6
REMARK    3  A    between atoms: C_14  and  C_15
REMARK    4  A    between atoms: C_15  and  O_16
REMARK    5  A    between atoms: C_23  and  O_24
REMARK    6  A    between atoms: O_24  and  C_25
REMARK                            x       y       z     vdW  Elec       q    Type
REMARK                         _______ _______ _______ _____ _____    ______ ____
ROOT
ATOM      1  C   UNL     1       0.921   9.865  19.225  0.00  0.00    +0.000 A 
ATOM      2  C   UNL     1       0.660  10.826  18.273  0.00  0.00    +0.000 A 
ATOM      3  C   UNL     1      -0.252  11.779  18.630  0.00  0.00    +0.000 A 
ATOM      4  N   UNL     1      -0.858  11.798  19.824  0.00  0.00    +0.000 NA
ATOM      5  C   UNL     1      -0.502  10.876  20.727  0.00  0.00    +0.000 A 
ATOM      6  N   UNL     1      -1.101  10.857  21.983  0.00  0.00    +0.000 N 
ATOM      7  C   UNL     1      -1.575  11.998  22.638  0.00  0.00    +0.000 A 
ATOM      8  C   UNL     1      -2.644  11.876  23.521  0.00  0.00    +0.000 A 
ATOM      9  C   UNL     1      -3.224  13.026  24.068  0.00  0.00    +0.000 A 
ATOM     10  C   UNL     1      -2.651  14.262  23.767  0.00  0.00    +0.000 A 
ATOM     11  C   UNL     1      -1.552  14.293  22.932  0.00  0.00    +0.000 A 
ATOM     12  N   UNL     1      -1.012  13.195  22.376  0.00  0.00    +0.000 NA
ATOM     13  N   UNL     1       0.365   9.890  20.460  0.00  0.00    +0.000 NA
ATOM     14  H   UNL     1      -0.641  10.194  22.586  0.00  0.00    +0.000 HD
ENDROOT
BRANCH   1  17
ATOM     15  C   UNL     1       2.451   6.418  19.578  0.00  0.00    +0.000 A 
ATOM     16  C   UNL     1       1.761   7.607  19.844  0.00  0.00    +0.000 A 
ATOM     17  C   UNL     1       1.781   8.703  18.969  0.00  0.00    +0.000 A 
ATOM     18  C   UNL     1       2.571   8.591  17.817  0.00  0.00    +0.000 A 
ATOM     19  C   UNL     1       3.278   7.423  17.548  0.00  0.00    +0.000 A 
ATOM     20  C   UNL     1       3.232   6.324  18.414  0.00  0.00    +0.000 A 
BRANCH  15  22
ATOM     21  N   UNL     1       2.013   4.488  21.243  0.00  0.00    +0.000 NA
ATOM     22  C   UNL     1       2.239   5.362  20.508  0.00  0.00    +0.000 C 
ENDBRANCH  15  22
BRANCH  20  23
ATOM     23  O   UNL     1       3.916   5.243  17.938  0.00  0.00    +0.000 OA
BRANCH  23  24
ATOM     24  C   UNL     1       4.938   5.384  16.940  0.00  0.00    +0.000 C 
ATOM     25  C   UNL     1       5.152   4.080  16.168  0.00  0.00    +0.000 C 
ATOM     26  C   UNL     1       6.480   4.058  15.431  0.00  0.00    +0.000 C 
ATOM     27  O   UNL     1       7.554   4.383  16.308  0.00  0.00    +0.000 OA
ATOM     28  C   UNL     1       7.439   5.709  16.814  0.00  0.00    +0.000 C 
ATOM     29  C   UNL     1       6.202   5.833  17.683  0.00  0.00    +0.000 C 
ENDBRANCH  23  24
ENDBRANCH  20  23
ENDBRANCH   1  17
BRANCH   9  30
ATOM     30  C   UNL     1      -4.412  12.962  24.990  0.00  0.00    +0.000 C 
BRANCH  30  31
ATOM     31  O   UNL     1      -5.041  11.688  24.955  0.00  0.00    +0.000 OA
ATOM     32  H   UNL     1      -5.473  11.563  25.817  0.00  0.00    +0.000 HD
ENDBRANCH  30  31
ENDBRANCH   9  30
TORSDOF 6
ENDMDL
MODEL 9
REMARK VINA RESULT:      -8.1      2.603     10.463
REMARK  Name = 
REMARK  6 active torsions:
REMARK  status: ('A' for Active; 'I' for Inactive)
REMARK    1  A    between atoms: C_2  and  C_3
REMARK    2  A    between atoms: C_5  and  C_6
REMARK    3  A    between atoms: C_14  and  C_15
REMARK    4  A    between atoms: C_15  and  O_16
REMARK    5  A    between atoms: C_23  and  O_24
REMARK    6  A    between atoms: O_24  and  C_25
REMARK                            x       y       z     vdW  Elec       q    Type
REMARK                         _______ _______ _______ _____ _____    ______ ____
ROOT
ATOM      1  C   UNL     1       1.243   9.078  19.840  0.00  0.00    +0.000 A 
ATOM      2  C   UNL     1       1.678   9.431  18.581  0.00  0.00    +0.000 A 
ATOM      3  C   UNL     1       2.418   8.487  17.927  0.00  0.00    +0.000 A 
ATOM      4  N   UNL     1       2.708   7.291  18.454  0.00  0.00    +0.000 NA
ATOM      5  C   UNL     1       2.191   6.988  19.652  0.00  0.00    +0.000 A 
ATOM      6  N   UNL     1       2.460   5.756  20.240  0.00  0.00    +0.000 N 
ATOM      7  C   UNL     1       2.693   4.582  19.518  0.00  0.00    +0.000 A 
ATOM      8  C   UNL     1       3.515   3.601  20.067  0.00  0.00    +0.000 A 
ATOM      9  C   UNL     1       3.877   2.490  19.297  0.00  0.00    +0.000 A 
ATOM     10  C   UNL     1       3.328   2.365  18.020  0.00  0.00    +0.000 A 
ATOM     11  C   UNL     1       2.470   3.350  17.572  0.00  0.00    +0.000 A 
ATOM     12  N   UNL     1       2.147   4.436  18.293  0.00  0.00    +0.000 NA
ATOM     13  N   UNL     1       1.474   7.856  20.377  0.00  0.00    +0.000 NA
ATOM     14  H   UNL     1       1.902   5.629  21.070  0.00  0.00    +0.000 HD
ENDROOT
BRANCH   1  17
ATOM     15  C   UNL     1      -0.424  12.243  21.086  0.00  0.00    +0.000 A 
ATOM     16  C   UNL     1       0.357  11.346  20.346  0.00  0.00    +0.000 A 
ATOM     17  C   UNL     1       0.539  10.011  20.730  0.00  0.00    +0.000 A 
ATOM     18  C   UNL     1      -0.055   9.600  21.930  0.00  0.00    +0.000 A 
ATOM     19  C   UNL     1      -0.818  10.483  22.687  0.00  0.00    +0.000 A 
ATOM     20  C   UNL     1      -1.016  11.810  22.284  0.00  0.00    +0.000 A 
BRANCH  15  22
ATOM     21  N   UNL     1      -0.726  14.560  19.978  0.00  0.00    +0.000 NA
ATOM     22  C   UNL     1      -0.601  13.530  20.505  0.00  0.00    +0.000 C 
ENDBRANCH  15  22
BRANCH  20  23
ATOM     23  O   UNL     1      -1.864  12.494  23.107  0.00  0.00    +0.000 OA
BRANCH  23  24
ATOM     24  C   UNL     1      -3.281  12.273  23.072  0.00  0.00    +0.000 C 
ATOM     25  C   UNL     1      -3.950  13.101  21.971  0.00  0.00    +0.000 C 
ATOM     26  C   UNL     1      -5.449  13.230  22.178  0.00  0.00    +0.000 C 
ATOM     27  O   UNL     1      -5.744  13.690  23.494  0.00  0.00    +0.000 OA
ATOM     28  C   UNL     1      -5.316  12.760  24.484  0.00  0.00    +0.000 C 
ATOM     29  C   UNL     1      -3.805  12.632  24.467  0.00  0.00    +0.000 C 
ENDBRANCH  23  24
ENDBRANCH  20  23
ENDBRANCH   1  17
BRANCH   9  30
ATOM     30  C   UNL     1       4.800   1.422  19.817  0.00  0.00    +0.000 C 
BRANCH  30  31
ATOM     31  O   UNL     1       5.178   1.661  21.166  0.00  0.00    +0.000 OA
ATOM     32  H   UNL     1       6.139   1.520  21.219  0.00  0.00    +0.000 HD
ENDBRANCH  30  31
ENDBRANCH   9  30
TORSDOF 6
ENDMDL
