MODEL 1
REMARK VINA RESULT:      -7.4      0.000      0.000
REMARK  Name = 
REMARK  9 active torsions:
REMARK  status: ('A' for Active; 'I' for Inactive)
REMARK    1  A    between atoms: C_1  and  C_2
REMARK    2  A    between atoms: C_2  and  C_3
REMARK    3  A    between atoms: C_2  and  C_4
REMARK    4  A    between atoms: C_4  and  N_5
REMARK    5  A    between atoms: C_4  and  C_17
REMARK    6  A    between atoms: N_8  and  C_9
REMARK    7  A    between atoms: C_9  and  C_10
REMARK    8  A    between atoms: C_10  and  C_11
REMARK    9  A    between atoms: N_19  and  O_20
REMARK                            x       y       z     vdW  Elec       q    Type
REMARK                         _______ _______ _______ _____ _____    ______ ____
ROOT
ATOM      1  N   UNL     1       3.657   2.790  18.631  0.00  0.00    +0.000 N 
ATOM      2  C   UNL     1       4.162   3.781  17.837  0.00  0.00    +0.000 C 
ATOM      3  O   UNL     1       4.070   4.973  18.103  0.00  0.00    +0.000 OA
ATOM      4  N   UNL     1       4.753   3.288  16.705  0.00  0.00    +0.000 N 
ATOM      5  H   UNL     1       4.141   1.900  18.600  0.00  0.00    +0.000 HD
ATOM      6  H   UNL     1       4.384   2.399  16.403  0.00  0.00    +0.000 HD
ENDROOT
BRANCH   1   7
ATOM      7  C   UNL     1       3.032   3.132  19.910  0.00  0.00    +0.000 C 
BRANCH   7   8
ATOM      8  C   UNL     1       3.722   2.325  21.022  0.00  0.00    +0.000 C 
ATOM      9  O   UNL     1       3.199   2.096  22.116  0.00  0.00    +0.000 OA
ATOM     10  N   UNL     1       4.981   1.871  20.714  0.00  0.00    +0.000 N 
ATOM     11  H   UNL     1       5.504   2.106  19.877  0.00  0.00    +0.000 HD
BRANCH  10  12
ATOM     12  O   UNL     1       5.658   1.143  21.715  0.00  0.00    +0.000 OA
ATOM     13  H   UNL     1       5.016   0.431  21.934  0.00  0.00    +0.000 HD
ENDBRANCH  10  12
ENDBRANCH   7   8
BRANCH   7  15
ATOM     14  C   UNL     1       0.952   2.406  18.586  0.00  0.00    +0.000 C 
ATOM     15  C   UNL     1       1.494   2.938  19.916  0.00  0.00    +0.000 C 
ATOM     16  C   UNL     1       0.742   4.221  20.290  0.00  0.00    +0.000 C 
ENDBRANCH   7  15
ENDBRANCH   1   7
BRANCH   4  17
ATOM     17  C   UNL     1       5.163   4.208  15.654  0.00  0.00    +0.000 C 
BRANCH  17  18
ATOM     18  C   UNL     1       6.680   4.424  15.589  0.00  0.00    +0.000 C 
BRANCH  18  19
ATOM     19  C   UNL     1       7.171   5.320  16.698  0.00  0.00    +0.000 A 
ATOM     20  C   UNL     1       7.645   4.768  17.896  0.00  0.00    +0.000 A 
ATOM     21  C   UNL     1       8.097   5.595  18.924  0.00  0.00    +0.000 A 
ATOM     22  C   UNL     1       8.074   6.980  18.764  0.00  0.00    +0.000 A 
ATOM     23  C   UNL     1       7.601   7.537  17.576  0.00  0.00    +0.000 A 
ATOM     24  C   UNL     1       7.150   6.711  16.547  0.00  0.00    +0.000 A 
ENDBRANCH  18  19
ENDBRANCH  17  18
ENDBRANCH   4  17
TORSDOF 7
ENDMDL
MODEL 2
REMARK VINA RESULT:      -7.0      4.485      6.676
REMARK  Name = 
REMARK  9 active torsions:
REMARK  status: ('A' for Active; 'I' for Inactive)
REMARK    1  A    between atoms: C_1  and  C_2
REMARK    2  A    between atoms: C_2  and  C_3
REMARK    3  A    between atoms: C_2  and  C_4
REMARK    4  A    between atoms: C_4  and  N_5
REMARK    5  A    between atoms: C_4  and  C_17
REMARK    6  A    between atoms: N_8  and  C_9
REMARK    7  A    between atoms: C_9  and  C_10
REMARK    8  A    between atoms: C_10  and  C_11
REMARK    9  A    between atoms: N_19  and  O_20
REMARK                            x       y       z     vdW  Elec       q    Type
REMARK                         _______ _______ _______ _____ _____    ______ ____
ROOT
ATOM      1  N   UNL     1       6.917   6.886  16.733  0.00  0.00    +0.000 N 
ATOM      2  C   UNL     1       7.710   7.419  17.710  0.00  0.00    +0.000 C 
ATOM      3  O   UNL     1       8.148   6.772  18.653  0.00  0.00    +0.000 OA
ATOM      4  N   UNL     1       7.932   8.757  17.525  0.00  0.00    +0.000 N 
ATOM      5  H   UNL     1       6.983   7.317  15.817  0.00  0.00    +0.000 HD
ATOM      6  H   UNL     1       7.200   9.229  17.016  0.00  0.00    +0.000 HD
ENDROOT
BRANCH   1   7
ATOM      7  C   UNL     1       6.616   5.454  16.743  0.00  0.00    +0.000 C 
BRANCH   7   8
ATOM      8  C   UNL     1       6.882   4.888  15.338  0.00  0.00    +0.000 C 
ATOM      9  O   UNL     1       7.741   5.342  14.577  0.00  0.00    +0.000 OA
ATOM     10  N   UNL     1       6.085   3.830  14.978  0.00  0.00    +0.000 N 
ATOM     11  H   UNL     1       5.300   3.475  15.513  0.00  0.00    +0.000 HD
BRANCH  10  12
ATOM     12  O   UNL     1       6.283   3.293  13.688  0.00  0.00    +0.000 OA
ATOM     13  H   UNL     1       6.683   4.047  13.200  0.00  0.00    +0.000 HD
ENDBRANCH  10  12
ENDBRANCH   7   8
BRANCH   7  15
ATOM     14  C   UNL     1       4.268   6.355  17.275  0.00  0.00    +0.000 C 
ATOM     15  C   UNL     1       5.185   5.129  17.241  0.00  0.00    +0.000 C 
ATOM     16  C   UNL     1       5.181   4.459  18.621  0.00  0.00    +0.000 C 
ENDBRANCH   7  15
ENDBRANCH   1   7
BRANCH   4  17
ATOM     17  C   UNL     1       8.585   9.524  18.576  0.00  0.00    +0.000 C 
BRANCH  17  18
ATOM     18  C   UNL     1       9.394  10.716  18.049  0.00  0.00    +0.000 C 
BRANCH  18  19
ATOM     19  C   UNL     1       9.685  11.723  19.132  0.00  0.00    +0.000 A 
ATOM     20  C   UNL     1       9.507  11.384  20.480  0.00  0.00    +0.000 A 
ATOM     21  C   UNL     1       9.774  12.316  21.484  0.00  0.00    +0.000 A 
ATOM     22  C   UNL     1      10.215  13.595  21.146  0.00  0.00    +0.000 A 
ATOM     23  C   UNL     1      10.392  13.941  19.808  0.00  0.00    +0.000 A 
ATOM     24  C   UNL     1      10.127  13.010  18.804  0.00  0.00    +0.000 A 
ENDBRANCH  18  19
ENDBRANCH  17  18
ENDBRANCH   4  17
TORSDOF 7
ENDMDL
MODEL 3
REMARK VINA RESULT:      -7.0      4.189      6.372
REMARK  Name = 
REMARK  9 active torsions:
REMARK  status: ('A' for Active; 'I' for Inactive)
REMARK    1  A    between atoms: C_1  and  C_2
REMARK    2  A    between atoms: C_2  and  C_3
REMARK    3  A    between atoms: C_2  and  C_4
REMARK    4  A    between atoms: C_4  and  N_5
REMARK    5  A    between atoms: C_4  and  C_17
REMARK    6  A    between atoms: N_8  and  C_9
REMARK    7  A    between atoms: C_9  and  C_10
REMARK    8  A    between atoms: C_10  and  C_11
REMARK    9  A    between atoms: N_19  and  O_20
REMARK                            x       y       z     vdW  Elec       q    Type
REMARK                         _______ _______ _______ _____ _____    ______ ____
ROOT
ATOM      1  N   UNL     1       6.034   6.787  16.717  0.00  0.00    +0.000 N 
ATOM      2  C   UNL     1       7.191   7.190  17.322  0.00  0.00    +0.000 C 
ATOM      3  O   UNL     1       8.025   6.414  17.770  0.00  0.00    +0.000 OA
ATOM      4  N   UNL     1       7.293   8.554  17.391  0.00  0.00    +0.000 N 
ATOM      5  H   UNL     1       5.658   7.409  16.010  0.00  0.00    +0.000 HD
ATOM      6  H   UNL     1       6.404   9.032  17.404  0.00  0.00    +0.000 HD
ENDROOT
BRANCH   1   7
ATOM      7  C   UNL     1       5.781   5.360  16.512  0.00  0.00    +0.000 C 
BRANCH   7   8
ATOM      8  C   UNL     1       6.149   5.002  15.063  0.00  0.00    +0.000 C 
ATOM      9  O   UNL     1       5.444   4.293  14.340  0.00  0.00    +0.000 OA
ATOM     10  N   UNL     1       7.338   5.528  14.620  0.00  0.00    +0.000 N 
ATOM     11  H   UNL     1       8.008   6.032  15.189  0.00  0.00    +0.000 HD
BRANCH  10  12
ATOM     12  O   UNL     1       7.724   5.207  13.301  0.00  0.00    +0.000 OA
ATOM     13  H   UNL     1       7.828   4.230  13.339  0.00  0.00    +0.000 HD
ENDBRANCH  10  12
ENDBRANCH   7   8
BRANCH   7  15
ATOM     14  C   UNL     1       3.603   5.961  17.738  0.00  0.00    +0.000 C 
ATOM     15  C   UNL     1       4.334   4.934  16.868  0.00  0.00    +0.000 C 
ATOM     16  C   UNL     1       4.277   3.563  17.553  0.00  0.00    +0.000 C 
ENDBRANCH   7  15
ENDBRANCH   1   7
BRANCH   4  17
ATOM     17  C   UNL     1       8.360   9.151  18.179  0.00  0.00    +0.000 C 
BRANCH  17  18
ATOM     18  C   UNL     1       8.547  10.651  17.917  0.00  0.00    +0.000 C 
BRANCH  18  19
ATOM     19  C   UNL     1       9.786  11.190  18.585  0.00  0.00    +0.000 A 
ATOM     20  C   UNL     1       9.837  11.325  19.980  0.00  0.00    +0.000 A 
ATOM     21  C   UNL     1      10.981  11.826  20.600  0.00  0.00    +0.000 A 
ATOM     22  C   UNL     1      12.081  12.201  19.830  0.00  0.00    +0.000 A 
ATOM     23  C   UNL     1      12.038  12.074  18.443  0.00  0.00    +0.000 A 
ATOM     24  C   UNL     1      10.895  11.571  17.822  0.00  0.00    +0.000 A 
ENDBRANCH  18  19
ENDBRANCH  17  18
ENDBRANCH   4  17
TORSDOF 7
ENDMDL
MODEL 4
REMARK VINA RESULT:      -6.9      4.483      6.721
REMARK  Name = 
REMARK  9 active torsions:
REMARK  status: ('A' for Active; 'I' for Inactive)
REMARK    1  A    between atoms: C_1  and  C_2
REMARK    2  A    between atoms: C_2  and  C_3
REMARK    3  A    between atoms: C_2  and  C_4
REMARK    4  A    between atoms: C_4  and  N_5
REMARK    5  A    between atoms: C_4  and  C_17
REMARK    6  A    between atoms: N_8  and  C_9
REMARK    7  A    between atoms: C_9  and  C_10
REMARK    8  A    between atoms: C_10  and  C_11
REMARK    9  A    between atoms: N_19  and  O_20
REMARK                            x       y       z     vdW  Elec       q    Type
REMARK                         _______ _______ _______ _____ _____    ______ ____
ROOT
ATOM      1  N   UNL     1       6.734   7.010  16.842  0.00  0.00    +0.000 N 
ATOM      2  C   UNL     1       7.625   7.462  17.774  0.00  0.00    +0.000 C 
ATOM      3  O   UNL     1       8.097   6.756  18.656  0.00  0.00    +0.000 OA
ATOM      4  N   UNL     1       7.906   8.793  17.621  0.00  0.00    +0.000 N 
ATOM      5  H   UNL     1       6.755   7.474  15.940  0.00  0.00    +0.000 HD
ATOM      6  H   UNL     1       7.164   9.322  17.186  0.00  0.00    +0.000 HD
ENDROOT
BRANCH   1   7
ATOM      7  C   UNL     1       6.358   5.596  16.823  0.00  0.00    +0.000 C 
BRANCH   7   8
ATOM      8  C   UNL     1       6.764   4.999  15.465  0.00  0.00    +0.000 C 
ATOM      9  O   UNL     1       7.701   5.432  14.789  0.00  0.00    +0.000 OA
ATOM     10  N   UNL     1       6.001   3.937  15.046  0.00  0.00    +0.000 N 
ATOM     11  H   UNL     1       5.162   3.598  15.504  0.00  0.00    +0.000 HD
BRANCH  10  12
ATOM     12  O   UNL     1       6.329   3.372  13.795  0.00  0.00    +0.000 OA
ATOM     13  H   UNL     1       6.672   4.145  13.294  0.00  0.00    +0.000 HD
ENDBRANCH  10  12
ENDBRANCH   7   8
BRANCH   7  15
ATOM     14  C   UNL     1       4.098   6.642  17.461  0.00  0.00    +0.000 C 
ATOM     15  C   UNL     1       4.860   5.353  17.142  0.00  0.00    +0.000 C 
ATOM     16  C   UNL     1       4.658   4.352  18.286  0.00  0.00    +0.000 C 
ENDBRANCH   7  15
ENDBRANCH   1   7
BRANCH   4  17
ATOM     17  C   UNL     1       8.676   9.483  18.645  0.00  0.00    +0.000 C 
BRANCH  17  18
ATOM     18  C   UNL     1       9.402  10.730  18.127  0.00  0.00    +0.000 C 
BRANCH  18  19
ATOM     19  C   UNL     1       9.644  11.738  19.222  0.00  0.00    +0.000 A 
ATOM     20  C   UNL     1      10.029  13.048  18.905  0.00  0.00    +0.000 A 
ATOM     21  C   UNL     1      10.255  13.982  19.916  0.00  0.00    +0.000 A 
ATOM     22  C   UNL     1      10.103  13.612  21.251  0.00  0.00    +0.000 A 
ATOM     23  C   UNL     1       9.724  12.310  21.575  0.00  0.00    +0.000 A 
ATOM     24  C   UNL     1       9.496  11.376  20.565  0.00  0.00    +0.000 A 
ENDBRANCH  18  19
ENDBRANCH  17  18
ENDBRANCH   4  17
TORSDOF 7
ENDMDL
MODEL 5
REMARK VINA RESULT:      -6.9      3.552      7.399
REMARK  Name = 
REMARK  9 active torsions:
REMARK  status: ('A' for Active; 'I' for Inactive)
REMARK    1  A    between atoms: C_1  and  C_2
REMARK    2  A    between atoms: C_2  and  C_3
REMARK    3  A    between atoms: C_2  and  C_4
REMARK    4  A    between atoms: C_4  and  N_5
REMARK    5  A    between atoms: C_4  and  C_17
REMARK    6  A    between atoms: N_8  and  C_9
REMARK    7  A    between atoms: C_9  and  C_10
REMARK    8  A    between atoms: C_10  and  C_11
REMARK    9  A    between atoms: N_19  and  O_20
REMARK                            x       y       z     vdW  Elec       q    Type
REMARK                         _______ _______ _______ _____ _____    ______ ____
ROOT
ATOM      1  N   UNL     1       5.409   4.286  13.866  0.00  0.00    +0.000 N 
ATOM      2  C   UNL     1       5.660   4.232  15.208  0.00  0.00    +0.000 C 
ATOM      3  O   UNL     1       6.626   3.657  15.692  0.00  0.00    +0.000 OA
ATOM      4  N   UNL     1       4.695   4.868  15.942  0.00  0.00    +0.000 N 
ATOM      5  H   UNL     1       4.909   5.104  13.536  0.00  0.00    +0.000 HD
ATOM      6  H   UNL     1       3.790   4.895  15.495  0.00  0.00    +0.000 HD
ENDROOT
BRANCH   1   7
ATOM      7  C   UNL     1       6.364   3.700  12.924  0.00  0.00    +0.000 C 
BRANCH   7   8
ATOM      8  C   UNL     1       7.419   4.762  12.573  0.00  0.00    +0.000 C 
ATOM      9  O   UNL     1       7.622   5.159  11.422  0.00  0.00    +0.000 OA
ATOM     10  N   UNL     1       8.133   5.246  13.641  0.00  0.00    +0.000 N 
ATOM     11  H   UNL     1       8.085   4.894  14.590  0.00  0.00    +0.000 HD
BRANCH  10  12
ATOM     12  O   UNL     1       9.126   6.209  13.359  0.00  0.00    +0.000 OA
ATOM     13  H   UNL     1       8.818   6.990  13.870  0.00  0.00    +0.000 HD
ENDBRANCH  10  12
ENDBRANCH   7   8
BRANCH   7  15
ATOM     14  C   UNL     1       4.183   3.336  11.614  0.00  0.00    +0.000 C 
ATOM     15  C   UNL     1       5.695   3.100  11.661  0.00  0.00    +0.000 C 
ATOM     16  C   UNL     1       5.976   1.601  11.503  0.00  0.00    +0.000 C 
ENDBRANCH   7  15
ENDBRANCH   1   7
BRANCH   4  17
ATOM     17  C   UNL     1       4.696   4.735  17.391  0.00  0.00    +0.000 C 
BRANCH  17  18
ATOM     18  C   UNL     1       3.598   5.553  18.081  0.00  0.00    +0.000 C 
BRANCH  18  19
ATOM     19  C   UNL     1       2.575   4.672  18.753  0.00  0.00    +0.000 A 
ATOM     20  C   UNL     1       2.194   4.916  20.079  0.00  0.00    +0.000 A 
ATOM     21  C   UNL     1       1.250   4.101  20.703  0.00  0.00    +0.000 A 
ATOM     22  C   UNL     1       0.685   3.033  20.008  0.00  0.00    +0.000 A 
ATOM     23  C   UNL     1       1.061   2.782  18.689  0.00  0.00    +0.000 A 
ATOM     24  C   UNL     1       2.003   3.597  18.064  0.00  0.00    +0.000 A 
ENDBRANCH  18  19
ENDBRANCH  17  18
ENDBRANCH   4  17
TORSDOF 7
ENDMDL
MODEL 6
REMARK VINA RESULT:      -6.8      1.893      3.237
REMARK  Name = 
REMARK  9 active torsions:
REMARK  status: ('A' for Active; 'I' for Inactive)
REMARK    1  A    between atoms: C_1  and  C_2
REMARK    2  A    between atoms: C_2  and  C_3
REMARK    3  A    between atoms: C_2  and  C_4
REMARK    4  A    between atoms: C_4  and  N_5
REMARK    5  A    between atoms: C_4  and  C_17
REMARK    6  A    between atoms: N_8  and  C_9
REMARK    7  A    between atoms: C_9  and  C_10
REMARK    8  A    between atoms: C_10  and  C_11
REMARK    9  A    between atoms: N_19  and  O_20
REMARK                            x       y       z     vdW  Elec       q    Type
REMARK                         _______ _______ _______ _____ _____    ______ ____
ROOT
ATOM      1  N   UNL     1       3.482   3.973  18.709  0.00  0.00    +0.000 N 
ATOM      2  C   UNL     1       4.358   4.866  18.159  0.00  0.00    +0.000 C 
ATOM      3  O   UNL     1       4.971   5.700  18.812  0.00  0.00    +0.000 OA
ATOM      4  N   UNL     1       4.447   4.735  16.799  0.00  0.00    +0.000 N 
ATOM      5  H   UNL     1       3.386   3.085  18.228  0.00  0.00    +0.000 HD
ATOM      6  H   UNL     1       3.617   4.357  16.367  0.00  0.00    +0.000 HD
ENDROOT
BRANCH   1   7
ATOM      7  C   UNL     1       3.298   3.936  20.160  0.00  0.00    +0.000 C 
BRANCH   7   8
ATOM      8  C   UNL     1       3.887   2.620  20.694  0.00  0.00    +0.000 C 
ATOM      9  O   UNL     1       3.474   2.057  21.711  0.00  0.00    +0.000 OA
ATOM     10  N   UNL     1       4.924   2.107  19.955  0.00  0.00    +0.000 N 
ATOM     11  H   UNL     1       5.374   2.567  19.171  0.00  0.00    +0.000 HD
BRANCH  10  12
ATOM     12  O   UNL     1       5.507   0.909  20.422  0.00  0.00    +0.000 OA
ATOM     13  H   UNL     1       4.997   0.727  21.242  0.00  0.00    +0.000 HD
ENDBRANCH  10  12
ENDBRANCH   7   8
BRANCH   7  15
ATOM     14  C   UNL     1       0.834   3.315  19.770  0.00  0.00    +0.000 C 
ATOM     15  C   UNL     1       1.825   4.137  20.599  0.00  0.00    +0.000 C 
ATOM     16  C   UNL     1       1.400   5.610  20.576  0.00  0.00    +0.000 C 
ENDBRANCH   7  15
ENDBRANCH   1   7
BRANCH   4  17
ATOM     17  C   UNL     1       5.178   5.733  16.032  0.00  0.00    +0.000 C 
BRANCH  17  18
ATOM     18  C   UNL     1       6.609   5.308  15.683  0.00  0.00    +0.000 C 
BRANCH  18  19
ATOM     19  C   UNL     1       6.721   4.811  14.264  0.00  0.00    +0.000 A 
ATOM     20  C   UNL     1       5.885   3.783  13.807  0.00  0.00    +0.000 A 
ATOM     21  C   UNL     1       5.988   3.319  12.496  0.00  0.00    +0.000 A 
ATOM     22  C   UNL     1       6.931   3.876  11.633  0.00  0.00    +0.000 A 
ATOM     23  C   UNL     1       7.769   4.897  12.081  0.00  0.00    +0.000 A 
ATOM     24  C   UNL     1       7.666   5.362  13.392  0.00  0.00    +0.000 A 
ENDBRANCH  18  19
ENDBRANCH  17  18
ENDBRANCH   4  17
TORSDOF 7
ENDMDL
MODEL 7
REMARK VINA RESULT:      -6.7      2.176      3.605
REMARK  Name = 
REMARK  9 active torsions:
REMARK  status: ('A' for Active; 'I' for Inactive)
REMARK    1  A    between atoms: C_1  and  C_2
REMARK    2  A    between atoms: C_2  and  C_3
REMARK    3  A    between atoms: C_2  and  C_4
REMARK    4  A    between atoms: C_4  and  N_5
REMARK    5  A    between atoms: C_4  and  C_17
REMARK    6  A    between atoms: N_8  and  C_9
REMARK    7  A    between atoms: C_9  and  C_10
REMARK    8  A    between atoms: C_10  and  C_11
REMARK    9  A    between atoms: N_19  and  O_20
REMARK                            x       y       z     vdW  Elec       q    Type
REMARK                         _______ _______ _______ _____ _____    ______ ____
ROOT
ATOM      1  N   UNL     1       4.052   3.827  18.777  0.00  0.00    +0.000 N 
ATOM      2  C   UNL     1       5.250   4.453  18.576  0.00  0.00    +0.000 C 
ATOM      3  O   UNL     1       5.599   5.457  19.184  0.00  0.00    +0.000 OA
ATOM      4  N   UNL     1       5.996   3.844  17.602  0.00  0.00    +0.000 N 
ATOM      5  H   UNL     1       4.034   2.828  18.606  0.00  0.00    +0.000 HD
ATOM      6  H   UNL     1       5.448   3.350  16.914  0.00  0.00    +0.000 HD
ENDROOT
BRANCH   1   7
ATOM      7  C   UNL     1       3.145   4.313  19.818  0.00  0.00    +0.000 C 
BRANCH   7   8
ATOM      8  C   UNL     1       2.481   3.101  20.492  0.00  0.00    +0.000 C 
ATOM      9  O   UNL     1       2.270   2.034  19.910  0.00  0.00    +0.000 OA
ATOM     10  N   UNL     1       2.128   3.289  21.806  0.00  0.00    +0.000 N 
ATOM     11  H   UNL     1       2.183   4.166  22.311  0.00  0.00    +0.000 HD
BRANCH  10  12
ATOM     12  O   UNL     1       1.497   2.207  22.457  0.00  0.00    +0.000 OA
ATOM     13  H   UNL     1       0.971   2.655  23.156  0.00  0.00    +0.000 HD
ENDBRANCH  10  12
ENDBRANCH   7   8
BRANCH   7  15
ATOM     14  C   UNL     1       1.810   5.187  17.803  0.00  0.00    +0.000 C 
ATOM     15  C   UNL     1       2.103   5.336  19.299  0.00  0.00    +0.000 C 
ATOM     16  C   UNL     1       2.507   6.786  19.591  0.00  0.00    +0.000 C 
ENDBRANCH   7  15
ENDBRANCH   1   7
BRANCH   4  17
ATOM     17  C   UNL     1       7.206   4.493  17.120  0.00  0.00    +0.000 C 
BRANCH  17  18
ATOM     18  C   UNL     1       6.943   5.554  16.044  0.00  0.00    +0.000 C 
BRANCH  18  19
ATOM     19  C   UNL     1       6.812   4.946  14.671  0.00  0.00    +0.000 A 
ATOM     20  C   UNL     1       7.722   5.283  13.659  0.00  0.00    +0.000 A 
ATOM     21  C   UNL     1       7.602   4.723  12.387  0.00  0.00    +0.000 A 
ATOM     22  C   UNL     1       6.568   3.827  12.116  0.00  0.00    +0.000 A 
ATOM     23  C   UNL     1       5.658   3.490  13.116  0.00  0.00    +0.000 A 
ATOM     24  C   UNL     1       5.778   4.047  14.389  0.00  0.00    +0.000 A 
ENDBRANCH  18  19
ENDBRANCH  17  18
ENDBRANCH   4  17
TORSDOF 7
ENDMDL
MODEL 8
REMARK VINA RESULT:      -6.7      4.034      6.168
REMARK  Name = 
REMARK  9 active torsions:
REMARK  status: ('A' for Active; 'I' for Inactive)
REMARK    1  A    between atoms: C_1  and  C_2
REMARK    2  A    between atoms: C_2  and  C_3
REMARK    3  A    between atoms: C_2  and  C_4
REMARK    4  A    between atoms: C_4  and  N_5
REMARK    5  A    between atoms: C_4  and  C_17
REMARK    6  A    between atoms: N_8  and  C_9
REMARK    7  A    between atoms: C_9  and  C_10
REMARK    8  A    between atoms: C_10  and  C_11
REMARK    9  A    between atoms: N_19  and  O_20
REMARK                            x       y       z     vdW  Elec       q    Type
REMARK                         _______ _______ _______ _____ _____    ______ ____
ROOT
ATOM      1  N   UNL     1       6.558   6.441  16.538  0.00  0.00    +0.000 N 
ATOM      2  C   UNL     1       7.385   6.908  17.520  0.00  0.00    +0.000 C 
ATOM      3  O   UNL     1       7.725   6.242  18.490  0.00  0.00    +0.000 OA
ATOM      4  N   UNL     1       7.763   8.207  17.307  0.00  0.00    +0.000 N 
ATOM      5  H   UNL     1       6.692   6.837  15.614  0.00  0.00    +0.000 HD
ATOM      6  H   UNL     1       7.100   8.744  16.768  0.00  0.00    +0.000 HD
ENDROOT
BRANCH   1   7
ATOM      7  C   UNL     1       6.095   5.054  16.577  0.00  0.00    +0.000 C 
BRANCH   7   8
ATOM      8  C   UNL     1       5.792   4.599  15.139  0.00  0.00    +0.000 C 
ATOM      9  O   UNL     1       4.931   5.126  14.430  0.00  0.00    +0.000 OA
ATOM     10  N   UNL     1       6.553   3.547  14.691  0.00  0.00    +0.000 N 
ATOM     11  H   UNL     1       7.204   3.009  15.253  0.00  0.00    +0.000 HD
BRANCH  10  12
ATOM     12  O   UNL     1       6.293   3.085  13.384  0.00  0.00    +0.000 OA
ATOM     13  H   UNL     1       7.060   2.495  13.208  0.00  0.00    +0.000 HD
ENDBRANCH  10  12
ENDBRANCH   7   8
BRANCH   7  15
ATOM     14  C   UNL     1       4.159   3.511  17.270  0.00  0.00    +0.000 C 
ATOM     15  C   UNL     1       4.889   4.833  17.525  0.00  0.00    +0.000 C 
ATOM     16  C   UNL     1       3.879   5.985  17.470  0.00  0.00    +0.000 C 
ENDBRANCH   7  15
ENDBRANCH   1   7
BRANCH   4  17
ATOM     17  C   UNL     1       8.476   8.924  18.354  0.00  0.00    +0.000 C 
BRANCH  17  18
ATOM     18  C   UNL     1       8.459  10.447  18.171  0.00  0.00    +0.000 C 
BRANCH  18  19
ATOM     19  C   UNL     1       9.711  11.093  18.708  0.00  0.00    +0.000 A 
ATOM     20  C   UNL     1       9.856  11.322  20.083  0.00  0.00    +0.000 A 
ATOM     21  C   UNL     1      11.012  11.922  20.581  0.00  0.00    +0.000 A 
ATOM     22  C   UNL     1      12.029  12.304  19.707  0.00  0.00    +0.000 A 
ATOM     23  C   UNL     1      11.892  12.083  18.338  0.00  0.00    +0.000 A 
ATOM     24  C   UNL     1      10.737  11.482  17.839  0.00  0.00    +0.000 A 
ENDBRANCH  18  19
ENDBRANCH  17  18
ENDBRANCH   4  17
TORSDOF 7
ENDMDL
MODEL 9
REMARK VINA RESULT:      -6.7      2.356      6.240
REMARK  Name = 
REMARK  9 active torsions:
REMARK  status: ('A' for Active; 'I' for Inactive)
REMARK    1  A    between atoms: C_1  and  C_2
REMARK    2  A    between atoms: C_2  and  C_3
REMARK    3  A    between atoms: C_2  and  C_4
REMARK    4  A    between atoms: C_4  and  N_5
REMARK    5  A    between atoms: C_4  and  C_17
REMARK    6  A    between atoms: N_8  and  C_9
REMARK    7  A    between atoms: C_9  and  C_10
REMARK    8  A    between atoms: C_10  and  C_11
REMARK    9  A    between atoms: N_19  and  O_20
REMARK                            x       y       z     vdW  Elec       q    Type
REMARK                         _______ _______ _______ _____ _____    ______ ____
ROOT
ATOM      1  N   UNL     1       5.659   4.285  18.015  0.00  0.00    +0.000 N 
ATOM      2  C   UNL     1       4.641   3.586  17.430  0.00  0.00    +0.000 C 
ATOM      3  O   UNL     1       4.069   3.950  16.410  0.00  0.00    +0.000 OA
ATOM      4  N   UNL     1       4.321   2.453  18.129  0.00  0.00    +0.000 N 
ATOM      5  H   UNL     1       6.341   3.738  18.529  0.00  0.00    +0.000 HD
ATOM      6  H   UNL     1       4.531   2.505  19.114  0.00  0.00    +0.000 HD
ENDROOT
BRANCH   1   7
ATOM      7  C   UNL     1       6.167   5.499  17.375  0.00  0.00    +0.000 C 
BRANCH   7   8
ATOM      8  C   UNL     1       7.033   5.092  16.171  0.00  0.00    +0.000 C 
ATOM      9  O   UNL     1       7.998   4.329  16.259  0.00  0.00    +0.000 OA
ATOM     10  N   UNL     1       6.657   5.647  14.973  0.00  0.00    +0.000 N 
ATOM     11  H   UNL     1       5.940   6.353  14.849  0.00  0.00    +0.000 HD
BRANCH  10  12
ATOM     12  O   UNL     1       7.438   5.315  13.845  0.00  0.00    +0.000 OA
ATOM     13  H   UNL     1       7.154   4.394  13.650  0.00  0.00    +0.000 HD
ENDBRANCH  10  12
ENDBRANCH   7   8
BRANCH   7  15
ATOM     14  C   UNL     1       7.703   7.544  17.632  0.00  0.00    +0.000 C 
ATOM     15  C   UNL     1       6.925   6.438  18.349  0.00  0.00    +0.000 C 
ATOM     16  C   UNL     1       7.876   5.675  19.278  0.00  0.00    +0.000 C 
ENDBRANCH   7  15
ENDBRANCH   1   7
BRANCH   4  17
ATOM     17  C   UNL     1       3.131   1.699  17.762  0.00  0.00    +0.000 C 
BRANCH  17  18
ATOM     18  C   UNL     1       2.056   1.684  18.855  0.00  0.00    +0.000 C 
BRANCH  18  19
ATOM     19  C   UNL     1       1.973   3.002  19.583  0.00  0.00    +0.000 A 
ATOM     20  C   UNL     1       1.519   4.150  18.918  0.00  0.00    +0.000 A 
ATOM     21  C   UNL     1       1.443   5.370  19.588  0.00  0.00    +0.000 A 
ATOM     22  C   UNL     1       1.826   5.454  20.927  0.00  0.00    +0.000 A 
ATOM     23  C   UNL     1       2.281   4.318  21.594  0.00  0.00    +0.000 A 
ATOM     24  C   UNL     1       2.356   3.097  20.925  0.00  0.00    +0.000 A 
ENDBRANCH  18  19
ENDBRANCH  17  18
ENDBRANCH   4  17
TORSDOF 7
ENDMDL
