MODEL 1
REMARK VINA RESULT:      -8.0      0.000      0.000
REMARK  Name = 
REMARK  6 active torsions:
REMARK  status: ('A' for Active; 'I' for Inactive)
REMARK    1  A    between atoms: C_1  and  C_2
REMARK    2  A    between atoms: C_2  and  N_3
REMARK    3  A    between atoms: N_3  and  C_4
REMARK    4  A    between atoms: N_3  and  C_5
REMARK    5  A    between atoms: C_5  and  C_6
REMARK    6  A    between atoms: N_20  and  C_21
REMARK                            x       y       z     vdW  Elec       q    Type
REMARK                         _______ _______ _______ _____ _____    ______ ____
ROOT
ATOM      1  C   UNL     1       6.013   4.982  15.134  0.00  0.00    +0.000 A 
ATOM      2  C   UNL     1       5.489   6.174  15.639  0.00  0.00    +0.000 A 
ATOM      3  C   UNL     1       4.626   6.190  16.792  0.00  0.00    +0.000 A 
ATOM      4  C   UNL     1       4.227   5.020  17.472  0.00  0.00    +0.000 A 
ATOM      5  C   UNL     1       3.241   4.820  18.650  0.00  0.00    +0.000 A 
ATOM      6  C   UNL     1       2.986   3.522  18.981  0.00  0.00    +0.000 A 
ATOM      7  C   UNL     1       3.604   2.349  18.318  0.00  0.00    +0.000 A 
ATOM      8  O   UNL     1       3.297   1.194  18.582  0.00  0.00    +0.000 OA
ATOM      9  N   UNL     1       4.549   2.598  17.406  0.00  0.00    +0.000 N 
ATOM     10  C   UNL     1       4.844   3.862  16.941  0.00  0.00    +0.000 A 
ATOM     11  C   UNL     1       5.729   3.839  15.855  0.00  0.00    +0.000 A 
ATOM     12  C   UNL     1       2.071   3.040  20.054  0.00  0.00    +0.000 C 
ATOM     13  C   UNL     1       1.539   4.073  21.001  0.00  0.00    +0.000 C 
ATOM     14  C   UNL     1       1.671   5.509  20.560  0.00  0.00    +0.000 C 
ATOM     15  N   UNL     1       2.570   5.831  19.413  0.00  0.00    +0.000 N 
ATOM     16  C   UNL     1       2.426   7.263  19.127  0.00  0.00    +0.000 C 
ATOM     17  H   UNL     1       4.946   1.779  16.972  0.00  0.00    +0.000 HD
ENDROOT
BRANCH   1  18
ATOM     18  C   UNL     1       6.778   4.797  13.830  0.00  0.00    +0.000 C 
BRANCH  18  19
ATOM     19  N   UNL     1       6.271   3.625  13.061  0.00  0.00    +0.000 NA
ATOM     20  C   UNL     1       7.083   3.356  11.875  0.00  0.00    +0.000 C 
BRANCH  19  22
ATOM     21  C   UNL     1       4.437   3.166  11.395  0.00  0.00    +0.000 C 
ATOM     22  C   UNL     1       4.843   3.779  12.733  0.00  0.00    +0.000 C 
ENDBRANCH  19  22
ENDBRANCH  18  19
ENDBRANCH   1  18
TORSDOF 3
ENDMDL
MODEL 2
REMARK VINA RESULT:      -7.2      4.794      7.741
REMARK  Name = 
REMARK  6 active torsions:
REMARK  status: ('A' for Active; 'I' for Inactive)
REMARK    1  A    between atoms: C_1  and  C_2
REMARK    2  A    between atoms: C_2  and  N_3
REMARK    3  A    between atoms: N_3  and  C_4
REMARK    4  A    between atoms: N_3  and  C_5
REMARK    5  A    between atoms: C_5  and  C_6
REMARK    6  A    between atoms: N_20  and  C_21
REMARK                            x       y       z     vdW  Elec       q    Type
REMARK                         _______ _______ _______ _____ _____    ______ ____
ROOT
ATOM      1  C   UNL     1       2.163   7.689  18.628  0.00  0.00    +0.000 A 
ATOM      2  C   UNL     1       1.632   8.689  17.809  0.00  0.00    +0.000 A 
ATOM      3  C   UNL     1       0.902   9.804  18.357  0.00  0.00    +0.000 A 
ATOM      4  C   UNL     1       0.647   9.955  19.736  0.00  0.00    +0.000 A 
ATOM      5  C   UNL     1      -0.189  11.011  20.502  0.00  0.00    +0.000 A 
ATOM      6  C   UNL     1      -0.331  10.782  21.838  0.00  0.00    +0.000 A 
ATOM      7  C   UNL     1       0.275   9.640  22.564  0.00  0.00    +0.000 A 
ATOM      8  O   UNL     1       0.064   9.416  23.750  0.00  0.00    +0.000 OA
ATOM      9  N   UNL     1       1.097   8.849  21.869  0.00  0.00    +0.000 N 
ATOM     10  C   UNL     1       1.266   8.939  20.504  0.00  0.00    +0.000 A 
ATOM     11  C   UNL     1       2.026   7.880  19.988  0.00  0.00    +0.000 A 
ATOM     12  C   UNL     1      -1.093  11.618  22.808  0.00  0.00    +0.000 C 
ATOM     13  C   UNL     1      -1.574  12.950  22.318  0.00  0.00    +0.000 C 
ATOM     14  C   UNL     1      -1.574  13.147  20.823  0.00  0.00    +0.000 C 
ATOM     15  N   UNL     1      -0.827  12.178  19.968  0.00  0.00    +0.000 N 
ATOM     16  C   UNL     1      -1.084  12.534  18.569  0.00  0.00    +0.000 C 
ATOM     17  H   UNL     1       1.489   8.081  22.391  0.00  0.00    +0.000 HD
ENDROOT
BRANCH   1  18
ATOM     18  C   UNL     1       2.788   6.375  18.180  0.00  0.00    +0.000 C 
BRANCH  18  19
ATOM     19  N   UNL     1       2.773   5.362  19.274  0.00  0.00    +0.000 NA
ATOM     20  C   UNL     1       4.089   4.755  19.475  0.00  0.00    +0.000 C 
BRANCH  19  22
ATOM     21  C   UNL     1       1.048   3.863  20.333  0.00  0.00    +0.000 C 
ATOM     22  C   UNL     1       1.723   4.354  19.054  0.00  0.00    +0.000 C 
ENDBRANCH  19  22
ENDBRANCH  18  19
ENDBRANCH   1  18
TORSDOF 3
ENDMDL
MODEL 3
REMARK VINA RESULT:      -7.1      1.281      2.032
REMARK  Name = 
REMARK  6 active torsions:
REMARK  status: ('A' for Active; 'I' for Inactive)
REMARK    1  A    between atoms: C_1  and  C_2
REMARK    2  A    between atoms: C_2  and  N_3
REMARK    3  A    between atoms: N_3  and  C_4
REMARK    4  A    between atoms: N_3  and  C_5
REMARK    5  A    between atoms: C_5  and  C_6
REMARK    6  A    between atoms: N_20  and  C_21
REMARK                            x       y       z     vdW  Elec       q    Type
REMARK                         _______ _______ _______ _____ _____    ______ ____
ROOT
ATOM      1  C   UNL     1       5.703   4.530  15.407  0.00  0.00    +0.000 A 
ATOM      2  C   UNL     1       5.334   5.872  15.292  0.00  0.00    +0.000 A 
ATOM      3  C   UNL     1       4.530   6.522  16.296  0.00  0.00    +0.000 A 
ATOM      4  C   UNL     1       4.037   5.857  17.438  0.00  0.00    +0.000 A 
ATOM      5  C   UNL     1       3.089   6.342  18.563  0.00  0.00    +0.000 A 
ATOM      6  C   UNL     1       2.711   5.386  19.457  0.00  0.00    +0.000 A 
ATOM      7  C   UNL     1       3.168   3.976  19.424  0.00  0.00    +0.000 A 
ATOM      8  O   UNL     1       2.749   3.120  20.193  0.00  0.00    +0.000 OA
ATOM      9  N   UNL     1       4.093   3.661  18.512  0.00  0.00    +0.000 N 
ATOM     10  C   UNL     1       4.501   4.521  17.514  0.00  0.00    +0.000 A 
ATOM     11  C   UNL     1       5.330   3.894  16.574  0.00  0.00    +0.000 A 
ATOM     12  C   UNL     1       1.798   5.567  20.621  0.00  0.00    +0.000 C 
ATOM     13  C   UNL     1       1.424   6.975  20.972  0.00  0.00    +0.000 C 
ATOM     14  C   UNL     1       1.691   8.016  19.914  0.00  0.00    +0.000 C 
ATOM     15  N   UNL     1       2.567   7.662  18.759  0.00  0.00    +0.000 N 
ATOM     16  C   UNL     1       2.565   8.804  17.837  0.00  0.00    +0.000 C 
ATOM     17  H   UNL     1       4.378   2.695  18.514  0.00  0.00    +0.000 HD
ENDROOT
BRANCH   1  18
ATOM     18  C   UNL     1       6.384   3.673  14.348  0.00  0.00    +0.000 C 
BRANCH  18  19
ATOM     19  N   UNL     1       6.087   4.166  12.973  0.00  0.00    +0.000 NA
ATOM     20  C   UNL     1       5.192   3.264  12.249  0.00  0.00    +0.000 C 
BRANCH  19  22
ATOM     21  C   UNL     1       8.167   5.578  12.796  0.00  0.00    +0.000 C 
ATOM     22  C   UNL     1       7.326   4.439  12.224  0.00  0.00    +0.000 C 
ENDBRANCH  19  22
ENDBRANCH  18  19
ENDBRANCH   1  18
TORSDOF 3
ENDMDL
MODEL 4
REMARK VINA RESULT:      -6.9      4.732      7.393
REMARK  Name = 
REMARK  6 active torsions:
REMARK  status: ('A' for Active; 'I' for Inactive)
REMARK    1  A    between atoms: C_1  and  C_2
REMARK    2  A    between atoms: C_2  and  N_3
REMARK    3  A    between atoms: N_3  and  C_4
REMARK    4  A    between atoms: N_3  and  C_5
REMARK    5  A    between atoms: C_5  and  C_6
REMARK    6  A    between atoms: N_20  and  C_21
REMARK                            x       y       z     vdW  Elec       q    Type
REMARK                         _______ _______ _______ _____ _____    ______ ____
ROOT
ATOM      1  C   UNL     1       2.529   7.287  18.699  0.00  0.00    +0.000 A 
ATOM      2  C   UNL     1       2.115   7.011  20.004  0.00  0.00    +0.000 A 
ATOM      3  C   UNL     1       1.348   7.960  20.770  0.00  0.00    +0.000 A 
ATOM      4  C   UNL     1       0.986   9.232  20.279  0.00  0.00    +0.000 A 
ATOM      5  C   UNL     1       0.263  10.416  20.969  0.00  0.00    +0.000 A 
ATOM      6  C   UNL     1       0.188  11.560  20.232  0.00  0.00    +0.000 A 
ATOM      7  C   UNL     1       0.713  11.708  18.854  0.00  0.00    +0.000 A 
ATOM      8  O   UNL     1       0.703  12.772  18.246  0.00  0.00    +0.000 OA
ATOM      9  N   UNL     1       1.198  10.608  18.270  0.00  0.00    +0.000 N 
ATOM     10  C   UNL     1       1.388   9.415  18.933  0.00  0.00    +0.000 A 
ATOM     11  C   UNL     1       2.086   8.478  18.160  0.00  0.00    +0.000 A 
ATOM     12  C   UNL     1      -0.432  12.849  20.650  0.00  0.00    +0.000 C 
ATOM     13  C   UNL     1      -1.236  12.832  21.915  0.00  0.00    +0.000 C 
ATOM     14  C   UNL     1      -1.030  11.641  22.816  0.00  0.00    +0.000 C 
ATOM     15  N   UNL     1      -0.318  10.444  22.278  0.00  0.00    +0.000 N 
ATOM     16  C   UNL     1      -0.158   9.492  23.383  0.00  0.00    +0.000 C 
ATOM     17  H   UNL     1       1.550  10.745  17.335  0.00  0.00    +0.000 HD
ENDROOT
BRANCH   1  18
ATOM     18  C   UNL     1       3.490   6.466  17.850  0.00  0.00    +0.000 C 
BRANCH  18  19
ATOM     19  N   UNL     1       3.972   5.260  18.582  0.00  0.00    +0.000 NA
ATOM     20  C   UNL     1       5.377   5.382  18.970  0.00  0.00    +0.000 C 
BRANCH  19  22
ATOM     21  C   UNL     1       2.236   3.775  17.521  0.00  0.00    +0.000 C 
ATOM     22  C   UNL     1       3.712   4.030  17.814  0.00  0.00    +0.000 C 
ENDBRANCH  19  22
ENDBRANCH  18  19
ENDBRANCH   1  18
TORSDOF 3
ENDMDL
MODEL 5
REMARK VINA RESULT:      -6.9      4.672      7.321
REMARK  Name = 
REMARK  6 active torsions:
REMARK  status: ('A' for Active; 'I' for Inactive)
REMARK    1  A    between atoms: C_1  and  C_2
REMARK    2  A    between atoms: C_2  and  N_3
REMARK    3  A    between atoms: N_3  and  C_4
REMARK    4  A    between atoms: N_3  and  C_5
REMARK    5  A    between atoms: C_5  and  C_6
REMARK    6  A    between atoms: N_20  and  C_21
REMARK                            x       y       z     vdW  Elec       q    Type
REMARK                         _______ _______ _______ _____ _____    ______ ____
ROOT
ATOM      1  C   UNL     1       2.279   7.409  18.702  0.00  0.00    +0.000 A 
ATOM      2  C   UNL     1       1.805   8.408  17.849  0.00  0.00    +0.000 A 
ATOM      3  C   UNL     1       1.113   9.566  18.354  0.00  0.00    +0.000 A 
ATOM      4  C   UNL     1       0.842   9.765  19.724  0.00  0.00    +0.000 A 
ATOM      5  C   UNL     1       0.038  10.875  20.446  0.00  0.00    +0.000 A 
ATOM      6  C   UNL     1      -0.136  10.688  21.785  0.00  0.00    +0.000 A 
ATOM      7  C   UNL     1       0.409   9.542  22.552  0.00  0.00    +0.000 A 
ATOM      8  O   UNL     1       0.169   9.358  23.739  0.00  0.00    +0.000 OA
ATOM      9  N   UNL     1       1.209   8.699  21.893  0.00  0.00    +0.000 N 
ATOM     10  C   UNL     1       1.405   8.745  20.529  0.00  0.00    +0.000 A 
ATOM     11  C   UNL     1       2.127   7.642  20.054  0.00  0.00    +0.000 A 
ATOM     12  C   UNL     1      -0.878  11.581  22.720  0.00  0.00    +0.000 C 
ATOM     13  C   UNL     1      -1.294  12.918  22.186  0.00  0.00    +0.000 C 
ATOM     14  C   UNL     1      -1.260  13.075  20.687  0.00  0.00    +0.000 C 
ATOM     15  N   UNL     1      -0.541  12.053  19.871  0.00  0.00    +0.000 N 
ATOM     16  C   UNL     1      -0.758  12.382  18.458  0.00  0.00    +0.000 C 
ATOM     17  H   UNL     1       1.559   7.930  22.442  0.00  0.00    +0.000 HD
ENDROOT
BRANCH   1  18
ATOM     18  C   UNL     1       2.856   6.058  18.301  0.00  0.00    +0.000 C 
BRANCH  18  19
ATOM     19  N   UNL     1       4.339   6.116  18.161  0.00  0.00    +0.000 NA
ATOM     20  C   UNL     1       4.773   5.801  16.800  0.00  0.00    +0.000 C 
BRANCH  19  22
ATOM     21  C   UNL     1       4.563   3.808  19.145  0.00  0.00    +0.000 C 
ATOM     22  C   UNL     1       5.003   5.269  19.167  0.00  0.00    +0.000 C 
ENDBRANCH  19  22
ENDBRANCH  18  19
ENDBRANCH   1  18
TORSDOF 3
ENDMDL
MODEL 6
REMARK VINA RESULT:      -6.8      3.153      7.485
REMARK  Name = 
REMARK  6 active torsions:
REMARK  status: ('A' for Active; 'I' for Inactive)
REMARK    1  A    between atoms: C_1  and  C_2
REMARK    2  A    between atoms: C_2  and  N_3
REMARK    3  A    between atoms: N_3  and  C_4
REMARK    4  A    between atoms: N_3  and  C_5
REMARK    5  A    between atoms: C_5  and  C_6
REMARK    6  A    between atoms: N_20  and  C_21
REMARK                            x       y       z     vdW  Elec       q    Type
REMARK                         _______ _______ _______ _____ _____    ______ ____
ROOT
ATOM      1  C   UNL     1       1.395   9.726  19.351  0.00  0.00    +0.000 A 
ATOM      2  C   UNL     1       2.144   9.622  18.177  0.00  0.00    +0.000 A 
ATOM      3  C   UNL     1       2.779   8.386  17.795  0.00  0.00    +0.000 A 
ATOM      4  C   UNL     1       2.718   7.214  18.577  0.00  0.00    +0.000 A 
ATOM      5  C   UNL     1       3.404   5.837  18.394  0.00  0.00    +0.000 A 
ATOM      6  C   UNL     1       3.226   4.958  19.420  0.00  0.00    +0.000 A 
ATOM      7  C   UNL     1       2.418   5.234  20.633  0.00  0.00    +0.000 A 
ATOM      8  O   UNL     1       2.341   4.455  21.575  0.00  0.00    +0.000 OA
ATOM      9  N   UNL     1       1.741   6.386  20.659  0.00  0.00    +0.000 N 
ATOM     10  C   UNL     1       1.894   7.380  19.717  0.00  0.00    +0.000 A 
ATOM     11  C   UNL     1       1.225   8.560  20.070  0.00  0.00    +0.000 A 
ATOM     12  C   UNL     1       3.782   3.579  19.518  0.00  0.00    +0.000 C 
ATOM     13  C   UNL     1       4.423   3.022  18.284  0.00  0.00    +0.000 C 
ATOM     14  C   UNL     1       4.774   4.020  17.209  0.00  0.00    +0.000 C 
ATOM     15  N   UNL     1       4.199   5.395  17.287  0.00  0.00    +0.000 N 
ATOM     16  C   UNL     1       4.786   6.181  16.196  0.00  0.00    +0.000 C 
ATOM     17  H   UNL     1       1.206   6.544  21.499  0.00  0.00    +0.000 HD
ENDROOT
BRANCH   1  18
ATOM     18  C   UNL     1       0.830  10.999  19.967  0.00  0.00    +0.000 C 
BRANCH  18  19
ATOM     19  N   UNL     1      -0.557  10.792  20.473  0.00  0.00    +0.000 NA
ATOM     20  C   UNL     1      -1.558  11.371  19.577  0.00  0.00    +0.000 C 
BRANCH  19  22
ATOM     21  C   UNL     1      -0.677  10.181  22.914  0.00  0.00    +0.000 C 
ATOM     22  C   UNL     1      -0.700  11.281  21.855  0.00  0.00    +0.000 C 
ENDBRANCH  19  22
ENDBRANCH  18  19
ENDBRANCH   1  18
TORSDOF 3
ENDMDL
MODEL 7
REMARK VINA RESULT:      -6.8      2.882      7.271
REMARK  Name = 
REMARK  6 active torsions:
REMARK  status: ('A' for Active; 'I' for Inactive)
REMARK    1  A    between atoms: C_1  and  C_2
REMARK    2  A    between atoms: C_2  and  N_3
REMARK    3  A    between atoms: N_3  and  C_4
REMARK    4  A    between atoms: N_3  and  C_5
REMARK    5  A    between atoms: C_5  and  C_6
REMARK    6  A    between atoms: N_20  and  C_21
REMARK                            x       y       z     vdW  Elec       q    Type
REMARK                         _______ _______ _______ _____ _____    ______ ____
ROOT
ATOM      1  C   UNL     1       1.550   8.825  19.869  0.00  0.00    +0.000 A 
ATOM      2  C   UNL     1       2.178   8.637  18.635  0.00  0.00    +0.000 A 
ATOM      3  C   UNL     1       2.666   7.345  18.226  0.00  0.00    +0.000 A 
ATOM      4  C   UNL     1       2.575   6.194  19.037  0.00  0.00    +0.000 A 
ATOM      5  C   UNL     1       3.119   4.760  18.825  0.00  0.00    +0.000 A 
ATOM      6  C   UNL     1       2.959   3.915  19.883  0.00  0.00    +0.000 A 
ATOM      7  C   UNL     1       2.292   4.279  21.156  0.00  0.00    +0.000 A 
ATOM      8  O   UNL     1       2.234   3.525  22.119  0.00  0.00    +0.000 OA
ATOM      9  N   UNL     1       1.723   5.487  21.216  0.00  0.00    +0.000 N 
ATOM     10  C   UNL     1       1.875   6.450  20.241  0.00  0.00    +0.000 A 
ATOM     11  C   UNL     1       1.346   7.689  20.626  0.00  0.00    +0.000 A 
ATOM     12  C   UNL     1       3.401   2.494  19.962  0.00  0.00    +0.000 C 
ATOM     13  C   UNL     1       3.876   1.864  18.688  0.00  0.00    +0.000 C 
ATOM     14  C   UNL     1       4.213   2.811  17.564  0.00  0.00    +0.000 C 
ATOM     15  N   UNL     1       3.770   4.233  17.662  0.00  0.00    +0.000 N 
ATOM     16  C   UNL     1       4.320   4.948  16.505  0.00  0.00    +0.000 C 
ATOM     17  H   UNL     1       1.282   5.704  22.096  0.00  0.00    +0.000 HD
ENDROOT
BRANCH   1  18
ATOM     18  C   UNL     1       1.156  10.152  20.503  0.00  0.00    +0.000 C 
BRANCH  18  19
ATOM     19  N   UNL     1      -0.325  10.297  20.591  0.00  0.00    +0.000 NA
ATOM     20  C   UNL     1      -0.876  10.998  19.432  0.00  0.00    +0.000 C 
BRANCH  19  22
ATOM     21  C   UNL     1      -0.572  10.019  23.083  0.00  0.00    +0.000 C 
ATOM     22  C   UNL     1      -0.726  10.924  21.863  0.00  0.00    +0.000 C 
ENDBRANCH  19  22
ENDBRANCH  18  19
ENDBRANCH   1  18
TORSDOF 3
ENDMDL
MODEL 8
REMARK VINA RESULT:      -6.8      4.570      7.300
REMARK  Name = 
REMARK  6 active torsions:
REMARK  status: ('A' for Active; 'I' for Inactive)
REMARK    1  A    between atoms: C_1  and  C_2
REMARK    2  A    between atoms: C_2  and  N_3
REMARK    3  A    between atoms: N_3  and  C_4
REMARK    4  A    between atoms: N_3  and  C_5
REMARK    5  A    between atoms: C_5  and  C_6
REMARK    6  A    between atoms: N_20  and  C_21
REMARK                            x       y       z     vdW  Elec       q    Type
REMARK                         _______ _______ _______ _____ _____    ______ ____
ROOT
ATOM      1  C   UNL     1       2.407   7.189  18.886  0.00  0.00    +0.000 A 
ATOM      2  C   UNL     1       1.839   8.066  17.958  0.00  0.00    +0.000 A 
ATOM      3  C   UNL     1       1.081   9.218  18.375  0.00  0.00    +0.000 A 
ATOM      4  C   UNL     1       0.833   9.529  19.728  0.00  0.00    +0.000 A 
ATOM      5  C   UNL     1      -0.028  10.646  20.369  0.00  0.00    +0.000 A 
ATOM      6  C   UNL     1      -0.153  10.578  21.725  0.00  0.00    +0.000 A 
ATOM      7  C   UNL     1       0.492   9.551  22.578  0.00  0.00    +0.000 A 
ATOM      8  O   UNL     1       0.298   9.466  23.784  0.00  0.00    +0.000 OA
ATOM      9  N   UNL     1       1.333   8.705  21.975  0.00  0.00    +0.000 N 
ATOM     10  C   UNL     1       1.488   8.632  20.607  0.00  0.00    +0.000 A 
ATOM     11  C   UNL     1       2.274   7.541  20.214  0.00  0.00    +0.000 A 
ATOM     12  C   UNL     1      -0.932  11.504  22.595  0.00  0.00    +0.000 C 
ATOM     13  C   UNL     1      -1.456  12.752  21.952  0.00  0.00    +0.000 C 
ATOM     14  C   UNL     1      -1.473  12.765  20.445  0.00  0.00    +0.000 C 
ATOM     15  N   UNL     1      -0.705  11.721  19.705  0.00  0.00    +0.000 N 
ATOM     16  C   UNL     1      -0.983  11.897  18.276  0.00  0.00    +0.000 C 
ATOM     17  H   UNL     1       1.751   8.017  22.582  0.00  0.00    +0.000 HD
ENDROOT
BRANCH   1  18
ATOM     18  C   UNL     1       3.066   5.848  18.594  0.00  0.00    +0.000 C 
BRANCH  18  19
ATOM     19  N   UNL     1       2.060   4.814  18.221  0.00  0.00    +0.000 NA
ATOM     20  C   UNL     1       1.427   4.218  19.397  0.00  0.00    +0.000 C 
BRANCH  19  22
ATOM     21  C   UNL     1       4.086   4.081  16.916  0.00  0.00    +0.000 C 
ATOM     22  C   UNL     1       2.644   3.798  17.329  0.00  0.00    +0.000 C 
ENDBRANCH  19  22
ENDBRANCH  18  19
ENDBRANCH   1  18
TORSDOF 3
ENDMDL
MODEL 9
REMARK VINA RESULT:      -6.8      3.201      7.028
REMARK  Name = 
REMARK  6 active torsions:
REMARK  status: ('A' for Active; 'I' for Inactive)
REMARK    1  A    between atoms: C_1  and  C_2
REMARK    2  A    between atoms: C_2  and  N_3
REMARK    3  A    between atoms: N_3  and  C_4
REMARK    4  A    between atoms: N_3  and  C_5
REMARK    5  A    between atoms: C_5  and  C_6
REMARK    6  A    between atoms: N_20  and  C_21
REMARK                            x       y       z     vdW  Elec       q    Type
REMARK                         _______ _______ _______ _____ _____    ______ ____
ROOT
ATOM      1  C   UNL     1       1.315   9.679  19.209  0.00  0.00    +0.000 A 
ATOM      2  C   UNL     1       2.088   9.570  18.051  0.00  0.00    +0.000 A 
ATOM      3  C   UNL     1       2.770   8.348  17.711  0.00  0.00    +0.000 A 
ATOM      4  C   UNL     1       2.735   7.195  18.522  0.00  0.00    +0.000 A 
ATOM      5  C   UNL     1       3.470   5.838  18.386  0.00  0.00    +0.000 A 
ATOM      6  C   UNL     1       3.304   4.979  19.431  0.00  0.00    +0.000 A 
ATOM      7  C   UNL     1       2.466   5.258  20.623  0.00  0.00    +0.000 A 
ATOM      8  O   UNL     1       2.399   4.502  21.584  0.00  0.00    +0.000 OA
ATOM      9  N   UNL     1       1.751   6.387  20.609  0.00  0.00    +0.000 N 
ATOM     10  C   UNL     1       1.886   7.361  19.643  0.00  0.00    +0.000 A 
ATOM     11  C   UNL     1       1.172   8.526  19.955  0.00  0.00    +0.000 A 
ATOM     12  C   UNL     1       3.904   3.623  19.574  0.00  0.00    +0.000 C 
ATOM     13  C   UNL     1       4.585   3.057  18.365  0.00  0.00    +0.000 C 
ATOM     14  C   UNL     1       4.920   4.039  17.271  0.00  0.00    +0.000 C 
ATOM     15  N   UNL     1       4.299   5.395  17.304  0.00  0.00    +0.000 N 
ATOM     16  C   UNL     1       4.877   6.173  16.203  0.00  0.00    +0.000 C 
ATOM     17  H   UNL     1       1.196   6.548  21.435  0.00  0.00    +0.000 HD
ENDROOT
BRANCH   1  18
ATOM     18  C   UNL     1       0.697  10.947  19.783  0.00  0.00    +0.000 C 
BRANCH  18  19
ATOM     19  N   UNL     1      -0.300  11.541  18.847  0.00  0.00    +0.000 NA
ATOM     20  C   UNL     1      -0.600  12.934  19.178  0.00  0.00    +0.000 C 
BRANCH  19  22
ATOM     21  C   UNL     1      -1.829  10.193  17.367  0.00  0.00    +0.000 C 
ATOM     22  C   UNL     1      -1.516  10.714  18.767  0.00  0.00    +0.000 C 
ENDBRANCH  19  22
ENDBRANCH  18  19
ENDBRANCH   1  18
TORSDOF 3
ENDMDL
