MODEL 1
REMARK VINA RESULT:      -6.4      0.000      0.000
REMARK  Name = 
REMARK  4 active torsions:
REMARK  status: ('A' for Active; 'I' for Inactive)
REMARK    1  A    between atoms: C_2  and  S_4
REMARK    2  A    between atoms: S_4  and  C_5
REMARK    3  A    between atoms: C_5  and  C_6
REMARK    4  A    between atoms: C_10  and  N_11
REMARK                            x       y       z     vdW  Elec       q    Type
REMARK                         _______ _______ _______ _____ _____    ______ ____
ROOT
ATOM      1  C   UNL     1       3.550   4.361  17.786  0.00  0.00    +0.000 A 
ATOM      2  C   UNL     1       2.179   4.263  17.486  0.00  0.00    +0.000 A 
ATOM      3  C   UNL     1       1.300   3.595  18.341  0.00  0.00    +0.000 A 
ATOM      4  C   UNL     1       1.779   2.993  19.504  0.00  0.00    +0.000 A 
ATOM      5  C   UNL     1       3.147   3.055  19.796  0.00  0.00    +0.000 A 
ATOM      6  C   UNL     1       4.034   3.733  18.945  0.00  0.00    +0.000 A 
ENDROOT
BRANCH   5   7
ATOM      7  N   UNL     1       3.656   2.407  21.012  0.00  0.00    +0.000 N 
ATOM      8  O   UNL     1       2.902   2.353  21.996  0.00  0.00    +0.000 OA
ATOM      9  O   UNL     1       4.806   1.947  20.984  0.00  0.00    +0.000 OA
ENDBRANCH   5   7
BRANCH   1  10
ATOM     10  C   UNL     1       4.487   5.130  16.877  0.00  0.00    +0.000 C 
BRANCH  10  11
ATOM     11  S   UNL     1       5.752   4.042  16.153  0.00  0.00    +0.000 S 
BRANCH  11  13
ATOM     12  N   UNL     1       7.996   4.156  17.538  0.00  0.00    +0.000 NA
ATOM     13  C   UNL     1       7.204   4.781  16.747  0.00  0.00    +0.000 C 
ATOM     14  N   UNL     1       7.424   6.034  16.291  0.00  0.00    +0.000 N 
ATOM     15  H   UNL     1       8.768   4.777  17.788  0.00  0.00    +0.000 HD
ATOM     16  H   UNL     1       8.383   6.350  16.267  0.00  0.00    +0.000 HD
ATOM     17  H   UNL     1       6.895   6.265  15.458  0.00  0.00    +0.000 HD
ENDBRANCH  11  13
ENDBRANCH  10  11
ENDBRANCH   1  10
TORSDOF 4
ENDMDL
MODEL 2
REMARK VINA RESULT:      -6.4      3.527      5.210
REMARK  Name = 
REMARK  4 active torsions:
REMARK  status: ('A' for Active; 'I' for Inactive)
REMARK    1  A    between atoms: C_2  and  S_4
REMARK    2  A    between atoms: S_4  and  C_5
REMARK    3  A    between atoms: C_5  and  C_6
REMARK    4  A    between atoms: C_10  and  N_11
REMARK                            x       y       z     vdW  Elec       q    Type
REMARK                         _______ _______ _______ _____ _____    ______ ____
ROOT
ATOM      1  C   UNL     1       3.523   4.499  17.328  0.00  0.00    +0.000 A 
ATOM      2  C   UNL     1       3.382   5.824  17.776  0.00  0.00    +0.000 A 
ATOM      3  C   UNL     1       4.274   6.821  17.373  0.00  0.00    +0.000 A 
ATOM      4  C   UNL     1       5.337   6.506  16.528  0.00  0.00    +0.000 A 
ATOM      5  C   UNL     1       5.507   5.183  16.102  0.00  0.00    +0.000 A 
ATOM      6  C   UNL     1       4.609   4.179  16.496  0.00  0.00    +0.000 A 
ENDROOT
BRANCH   5   7
ATOM      7  N   UNL     1       6.636   4.846  15.225  0.00  0.00    +0.000 N 
ATOM      8  O   UNL     1       7.663   5.538  15.314  0.00  0.00    +0.000 OA
ATOM      9  O   UNL     1       6.502   3.888  14.451  0.00  0.00    +0.000 OA
ENDBRANCH   5   7
BRANCH   1  10
ATOM     10  C   UNL     1       2.522   3.436  17.732  0.00  0.00    +0.000 C 
BRANCH  10  11
ATOM     11  S   UNL     1       2.740   2.945  19.470  0.00  0.00    +0.000 S 
BRANCH  11  13
ATOM     12  N   UNL     1       5.085   1.928  20.130  0.00  0.00    +0.000 NA
ATOM     13  C   UNL     1       4.079   1.850  19.339  0.00  0.00    +0.000 C 
ATOM     14  N   UNL     1       3.953   0.922  18.365  0.00  0.00    +0.000 N 
ATOM     15  H   UNL     1       5.768   1.215  19.865  0.00  0.00    +0.000 HD
ATOM     16  H   UNL     1       4.463   0.058  18.487  0.00  0.00    +0.000 HD
ATOM     17  H   UNL     1       3.001   0.792  18.043  0.00  0.00    +0.000 HD
ENDBRANCH  11  13
ENDBRANCH  10  11
ENDBRANCH   1  10
TORSDOF 4
ENDMDL
MODEL 3
REMARK VINA RESULT:      -6.4      3.217      5.103
REMARK  Name = 
REMARK  4 active torsions:
REMARK  status: ('A' for Active; 'I' for Inactive)
REMARK    1  A    between atoms: C_2  and  S_4
REMARK    2  A    between atoms: S_4  and  C_5
REMARK    3  A    between atoms: C_5  and  C_6
REMARK    4  A    between atoms: C_10  and  N_11
REMARK                            x       y       z     vdW  Elec       q    Type
REMARK                         _______ _______ _______ _____ _____    ______ ____
ROOT
ATOM      1  C   UNL     1       3.470   4.557  17.394  0.00  0.00    +0.000 A 
ATOM      2  C   UNL     1       3.219   5.878  17.807  0.00  0.00    +0.000 A 
ATOM      3  C   UNL     1       4.115   6.908  17.512  0.00  0.00    +0.000 A 
ATOM      4  C   UNL     1       5.291   6.633  16.816  0.00  0.00    +0.000 A 
ATOM      5  C   UNL     1       5.569   5.316  16.430  0.00  0.00    +0.000 A 
ATOM      6  C   UNL     1       4.667   4.278  16.715  0.00  0.00    +0.000 A 
ENDROOT
BRANCH   5   7
ATOM      7  N   UNL     1       6.815   5.021  15.712  0.00  0.00    +0.000 N 
ATOM      8  O   UNL     1       6.895   5.376  14.525  0.00  0.00    +0.000 OA
ATOM      9  O   UNL     1       7.716   4.439  16.331  0.00  0.00    +0.000 OA
ENDBRANCH   5   7
BRANCH   1  10
ATOM     10  C   UNL     1       2.468   3.456  17.676  0.00  0.00    +0.000 C 
BRANCH  10  11
ATOM     11  S   UNL     1       2.625   2.834  19.378  0.00  0.00    +0.000 S 
BRANCH  11  13
ATOM     12  N   UNL     1       4.022   0.851  18.338  0.00  0.00    +0.000 NA
ATOM     13  C   UNL     1       3.994   1.780  19.221  0.00  0.00    +0.000 C 
ATOM     14  N   UNL     1       5.004   2.039  20.079  0.00  0.00    +0.000 N 
ATOM     15  H   UNL     1       4.898   0.333  18.434  0.00  0.00    +0.000 HD
ATOM     16  H   UNL     1       5.931   1.755  19.794  0.00  0.00    +0.000 HD
ATOM     17  H   UNL     1       4.968   2.966  20.486  0.00  0.00    +0.000 HD
ENDBRANCH  11  13
ENDBRANCH  10  11
ENDBRANCH   1  10
TORSDOF 4
ENDMDL
MODEL 4
REMARK VINA RESULT:      -6.2      2.931      5.466
REMARK  Name = 
REMARK  4 active torsions:
REMARK  status: ('A' for Active; 'I' for Inactive)
REMARK    1  A    between atoms: C_2  and  S_4
REMARK    2  A    between atoms: S_4  and  C_5
REMARK    3  A    between atoms: C_5  and  C_6
REMARK    4  A    between atoms: C_10  and  N_11
REMARK                            x       y       z     vdW  Elec       q    Type
REMARK                         _______ _______ _______ _____ _____    ______ ____
ROOT
ATOM      1  C   UNL     1       3.667   4.759  18.072  0.00  0.00    +0.000 A 
ATOM      2  C   UNL     1       3.386   6.099  17.752  0.00  0.00    +0.000 A 
ATOM      3  C   UNL     1       4.383   6.950  17.271  0.00  0.00    +0.000 A 
ATOM      4  C   UNL     1       5.687   6.482  17.119  0.00  0.00    +0.000 A 
ATOM      5  C   UNL     1       5.987   5.160  17.466  0.00  0.00    +0.000 A 
ATOM      6  C   UNL     1       4.987   4.297  17.942  0.00  0.00    +0.000 A 
ENDROOT
BRANCH   5   7
ATOM      7  N   UNL     1       7.364   4.670  17.323  0.00  0.00    +0.000 N 
ATOM      8  O   UNL     1       7.819   4.552  16.174  0.00  0.00    +0.000 OA
ATOM      9  O   UNL     1       7.994   4.406  18.357  0.00  0.00    +0.000 OA
ENDBRANCH   5   7
BRANCH   1  10
ATOM     10  C   UNL     1       2.568   3.830  18.546  0.00  0.00    +0.000 C 
BRANCH  10  11
ATOM     11  S   UNL     1       3.093   2.867  19.997  0.00  0.00    +0.000 S 
BRANCH  11  13
ATOM     12  N   UNL     1       1.634   2.529  22.171  0.00  0.00    +0.000 NA
ATOM     13  C   UNL     1       1.630   2.850  20.930  0.00  0.00    +0.000 C 
ATOM     14  N   UNL     1       0.524   3.218  20.247  0.00  0.00    +0.000 N 
ATOM     15  H   UNL     1       0.674   2.556  22.521  0.00  0.00    +0.000 HD
ATOM     16  H   UNL     1      -0.239   3.602  20.786  0.00  0.00    +0.000 HD
ATOM     17  H   UNL     1       0.720   3.728  19.394  0.00  0.00    +0.000 HD
ENDBRANCH  11  13
ENDBRANCH  10  11
ENDBRANCH   1  10
TORSDOF 4
ENDMDL
MODEL 5
REMARK VINA RESULT:      -6.2      2.430      2.861
REMARK  Name = 
REMARK  4 active torsions:
REMARK  status: ('A' for Active; 'I' for Inactive)
REMARK    1  A    between atoms: C_2  and  S_4
REMARK    2  A    between atoms: S_4  and  C_5
REMARK    3  A    between atoms: C_5  and  C_6
REMARK    4  A    between atoms: C_10  and  N_11
REMARK                            x       y       z     vdW  Elec       q    Type
REMARK                         _______ _______ _______ _____ _____    ______ ____
ROOT
ATOM      1  C   UNL     1       4.598   5.731  17.021  0.00  0.00    +0.000 A 
ATOM      2  C   UNL     1       3.875   6.790  17.600  0.00  0.00    +0.000 A 
ATOM      3  C   UNL     1       2.678   6.559  18.280  0.00  0.00    +0.000 A 
ATOM      4  C   UNL     1       2.169   5.265  18.378  0.00  0.00    +0.000 A 
ATOM      5  C   UNL     1       2.863   4.207  17.777  0.00  0.00    +0.000 A 
ATOM      6  C   UNL     1       4.072   4.432  17.100  0.00  0.00    +0.000 A 
ENDROOT
BRANCH   5   7
ATOM      7  N   UNL     1       2.320   2.846  17.865  0.00  0.00    +0.000 N 
ATOM      8  O   UNL     1       1.101   2.721  18.062  0.00  0.00    +0.000 OA
ATOM      9  O   UNL     1       3.108   1.899  17.732  0.00  0.00    +0.000 OA
ENDBRANCH   5   7
BRANCH   1  10
ATOM     10  C   UNL     1       5.922   5.987  16.328  0.00  0.00    +0.000 C 
BRANCH  10  11
ATOM     11  S   UNL     1       7.138   6.713  17.469  0.00  0.00    +0.000 S 
BRANCH  11  13
ATOM     12  N   UNL     1       7.237   5.471  19.796  0.00  0.00    +0.000 NA
ATOM     13  C   UNL     1       7.435   5.375  18.533  0.00  0.00    +0.000 C 
ATOM     14  N   UNL     1       7.860   4.251  17.917  0.00  0.00    +0.000 N 
ATOM     15  H   UNL     1       7.498   4.587  20.237  0.00  0.00    +0.000 HD
ATOM     16  H   UNL     1       7.672   3.375  18.382  0.00  0.00    +0.000 HD
ATOM     17  H   UNL     1       7.673   4.233  16.921  0.00  0.00    +0.000 HD
ENDBRANCH  11  13
ENDBRANCH  10  11
ENDBRANCH   1  10
TORSDOF 4
ENDMDL
MODEL 6
REMARK VINA RESULT:      -6.2      3.186      5.688
REMARK  Name = 
REMARK  4 active torsions:
REMARK  status: ('A' for Active; 'I' for Inactive)
REMARK    1  A    between atoms: C_2  and  S_4
REMARK    2  A    between atoms: S_4  and  C_5
REMARK    3  A    between atoms: C_5  and  C_6
REMARK    4  A    between atoms: C_10  and  N_11
REMARK                            x       y       z     vdW  Elec       q    Type
REMARK                         _______ _______ _______ _____ _____    ______ ____
ROOT
ATOM      1  C   UNL     1       3.652   4.418  17.771  0.00  0.00    +0.000 A 
ATOM      2  C   UNL     1       3.239   5.749  17.961  0.00  0.00    +0.000 A 
ATOM      3  C   UNL     1       4.006   6.817  17.491  0.00  0.00    +0.000 A 
ATOM      4  C   UNL     1       5.213   6.574  16.837  0.00  0.00    +0.000 A 
ATOM      5  C   UNL     1       5.652   5.256  16.671  0.00  0.00    +0.000 A 
ATOM      6  C   UNL     1       4.881   4.178  17.134  0.00  0.00    +0.000 A 
ENDROOT
BRANCH   5   7
ATOM      7  N   UNL     1       6.932   4.999  15.999  0.00  0.00    +0.000 N 
ATOM      8  O   UNL     1       7.825   4.438  16.653  0.00  0.00    +0.000 OA
ATOM      9  O   UNL     1       7.045   5.351  14.816  0.00  0.00    +0.000 OA
ENDBRANCH   5   7
BRANCH   1  10
ATOM     10  C   UNL     1       2.788   3.266  18.242  0.00  0.00    +0.000 C 
BRANCH  10  11
ATOM     11  S   UNL     1       3.225   2.757  19.933  0.00  0.00    +0.000 S 
BRANCH  11  13
ATOM     12  N   UNL     1       0.628   3.204  20.078  0.00  0.00    +0.000 NA
ATOM     13  C   UNL     1       1.686   2.878  20.724  0.00  0.00    +0.000 C 
ATOM     14  N   UNL     1       1.708   2.584  22.042  0.00  0.00    +0.000 N 
ATOM     15  H   UNL     1      -0.157   3.245  20.731  0.00  0.00    +0.000 HD
ATOM     16  H   UNL     1       0.844   2.256  22.452  0.00  0.00    +0.000 HD
ATOM     17  H   UNL     1       2.524   2.058  22.332  0.00  0.00    +0.000 HD
ENDBRANCH  11  13
ENDBRANCH  10  11
ENDBRANCH   1  10
TORSDOF 4
ENDMDL
MODEL 7
REMARK VINA RESULT:      -6.2      3.649      5.625
REMARK  Name = 
REMARK  4 active torsions:
REMARK  status: ('A' for Active; 'I' for Inactive)
REMARK    1  A    between atoms: C_2  and  S_4
REMARK    2  A    between atoms: S_4  and  C_5
REMARK    3  A    between atoms: C_5  and  C_6
REMARK    4  A    between atoms: C_10  and  N_11
REMARK                            x       y       z     vdW  Elec       q    Type
REMARK                         _______ _______ _______ _____ _____    ______ ____
ROOT
ATOM      1  C   UNL     1       4.497   4.849  17.550  0.00  0.00    +0.000 A 
ATOM      2  C   UNL     1       5.296   5.505  18.504  0.00  0.00    +0.000 A 
ATOM      3  C   UNL     1       6.587   5.934  18.191  0.00  0.00    +0.000 A 
ATOM      4  C   UNL     1       7.112   5.699  16.921  0.00  0.00    +0.000 A 
ATOM      5  C   UNL     1       6.339   5.018  15.974  0.00  0.00    +0.000 A 
ATOM      6  C   UNL     1       5.037   4.592  16.280  0.00  0.00    +0.000 A 
ENDROOT
BRANCH   5   7
ATOM      7  N   UNL     1       6.897   4.754  14.641  0.00  0.00    +0.000 N 
ATOM      8  O   UNL     1       7.819   5.486  14.246  0.00  0.00    +0.000 OA
ATOM      9  O   UNL     1       6.420   3.814  13.990  0.00  0.00    +0.000 OA
ENDBRANCH   5   7
BRANCH   1  10
ATOM     10  C   UNL     1       3.079   4.432  17.885  0.00  0.00    +0.000 C 
BRANCH  10  11
ATOM     11  S   UNL     1       2.984   3.670  19.534  0.00  0.00    +0.000 S 
BRANCH  11  13
ATOM     12  N   UNL     1       4.949   1.939  19.874  0.00  0.00    +0.000 NA
ATOM     13  C   UNL     1       3.848   2.190  19.266  0.00  0.00    +0.000 C 
ATOM     14  N   UNL     1       3.255   1.344  18.395  0.00  0.00    +0.000 N 
ATOM     15  H   UNL     1       5.303   1.036  19.553  0.00  0.00    +0.000 HD
ATOM     16  H   UNL     1       3.470   0.361  18.494  0.00  0.00    +0.000 HD
ATOM     17  H   UNL     1       2.272   1.534  18.244  0.00  0.00    +0.000 HD
ENDBRANCH  11  13
ENDBRANCH  10  11
ENDBRANCH   1  10
TORSDOF 4
ENDMDL
MODEL 8
REMARK VINA RESULT:      -6.2      3.458      5.726
REMARK  Name = 
REMARK  4 active torsions:
REMARK  status: ('A' for Active; 'I' for Inactive)
REMARK    1  A    between atoms: C_2  and  S_4
REMARK    2  A    between atoms: S_4  and  C_5
REMARK    3  A    between atoms: C_5  and  C_6
REMARK    4  A    between atoms: C_10  and  N_11
REMARK                            x       y       z     vdW  Elec       q    Type
REMARK                         _______ _______ _______ _____ _____    ______ ____
ROOT
ATOM      1  C   UNL     1       3.450   4.475  17.627  0.00  0.00    +0.000 A 
ATOM      2  C   UNL     1       3.283   5.833  17.954  0.00  0.00    +0.000 A 
ATOM      3  C   UNL     1       4.102   6.816  17.393  0.00  0.00    +0.000 A 
ATOM      4  C   UNL     1       5.119   6.456  16.510  0.00  0.00    +0.000 A 
ATOM      5  C   UNL     1       5.316   5.105  16.203  0.00  0.00    +0.000 A 
ATOM      6  C   UNL     1       4.490   4.114  16.756  0.00  0.00    +0.000 A 
ENDROOT
BRANCH   5   7
ATOM      7  N   UNL     1       6.398   4.722  15.286  0.00  0.00    +0.000 N 
ATOM      8  O   UNL     1       6.227   3.715  14.581  0.00  0.00    +0.000 OA
ATOM      9  O   UNL     1       7.416   5.428  15.265  0.00  0.00    +0.000 OA
ENDBRANCH   5   7
BRANCH   1  10
ATOM     10  C   UNL     1       2.523   3.423  18.202  0.00  0.00    +0.000 C 
BRANCH  10  11
ATOM     11  S   UNL     1       3.140   2.795  19.794  0.00  0.00    +0.000 S 
BRANCH  11  13
ATOM     12  N   UNL     1       1.716   2.592  22.008  0.00  0.00    +0.000 NA
ATOM     13  C   UNL     1       1.692   2.831  20.748  0.00  0.00    +0.000 C 
ATOM     14  N   UNL     1       0.573   3.146  20.059  0.00  0.00    +0.000 N 
ATOM     15  H   UNL     1       0.761   2.636  22.369  0.00  0.00    +0.000 HD
ATOM     16  H   UNL     1      -0.185   3.561  20.583  0.00  0.00    +0.000 HD
ATOM     17  H   UNL     1       0.753   3.600  19.171  0.00  0.00    +0.000 HD
ENDBRANCH  11  13
ENDBRANCH  10  11
ENDBRANCH   1  10
TORSDOF 4
ENDMDL
MODEL 9
REMARK VINA RESULT:      -6.2      1.152      1.680
REMARK  Name = 
REMARK  4 active torsions:
REMARK  status: ('A' for Active; 'I' for Inactive)
REMARK    1  A    between atoms: C_2  and  S_4
REMARK    2  A    between atoms: S_4  and  C_5
REMARK    3  A    between atoms: C_5  and  C_6
REMARK    4  A    between atoms: C_10  and  N_11
REMARK                            x       y       z     vdW  Elec       q    Type
REMARK                         _______ _______ _______ _____ _____    ______ ____
ROOT
ATOM      1  C   UNL     1       3.955   4.086  18.338  0.00  0.00    +0.000 A 
ATOM      2  C   UNL     1       2.858   4.392  17.513  0.00  0.00    +0.000 A 
ATOM      3  C   UNL     1       1.548   4.179  17.948  0.00  0.00    +0.000 A 
ATOM      4  C   UNL     1       1.310   3.636  19.210  0.00  0.00    +0.000 A 
ATOM      5  C   UNL     1       2.395   3.296  20.026  0.00  0.00    +0.000 A 
ATOM      6  C   UNL     1       3.714   3.517  19.599  0.00  0.00    +0.000 A 
ENDROOT
BRANCH   5   7
ATOM      7  N   UNL     1       2.148   2.707  21.349  0.00  0.00    +0.000 N 
ATOM      8  O   UNL     1       3.127   2.292  21.988  0.00  0.00    +0.000 OA
ATOM      9  O   UNL     1       0.977   2.664  21.753  0.00  0.00    +0.000 OA
ENDBRANCH   5   7
BRANCH   1  10
ATOM     10  C   UNL     1       5.371   4.368  17.876  0.00  0.00    +0.000 C 
BRANCH  10  11
ATOM     11  S   UNL     1       5.389   5.166  16.242  0.00  0.00    +0.000 S 
BRANCH  11  13
ATOM     12  N   UNL     1       7.481   5.322  14.640  0.00  0.00    +0.000 NA
ATOM     13  C   UNL     1       7.054   4.972  15.797  0.00  0.00    +0.000 C 
ATOM     14  N   UNL     1       7.837   4.452  16.766  0.00  0.00    +0.000 N 
ATOM     15  H   UNL     1       8.476   5.098  14.574  0.00  0.00    +0.000 HD
ATOM     16  H   UNL     1       8.822   4.676  16.729  0.00  0.00    +0.000 HD
ATOM     17  H   UNL     1       7.438   4.517  17.696  0.00  0.00    +0.000 HD
ENDBRANCH  11  13
ENDBRANCH  10  11
ENDBRANCH   1  10
TORSDOF 4
ENDMDL
