MODEL 1
REMARK VINA RESULT:      -8.2      0.000      0.000
REMARK  Name = 
REMARK  8 active torsions:
REMARK  status: ('A' for Active; 'I' for Inactive)
REMARK    1  A    between atoms: C_1  and  O_2
REMARK    2  A    between atoms: O_2  and  C_3
REMARK    3  A    between atoms: C_8  and  N_9
REMARK    4  A    between atoms: C_10  and  C_12
REMARK    5  A    between atoms: C_12  and  S_13
REMARK    6  A    between atoms: S_13  and  C_14
REMARK    7  A    between atoms: N_23  and  C_24
REMARK    8  A    between atoms: N_32  and  C_33
REMARK                            x       y       z     vdW  Elec       q    Type
REMARK                         _______ _______ _______ _____ _____    ______ ____
ROOT
ATOM      1  C   UNL     1       0.333  11.229  20.459  0.00  0.00    +0.000 A 
ATOM      2  N   UNL     1       1.300  11.777  21.140  0.00  0.00    +0.000 NA
ATOM      3  C   UNL     1       1.658  13.022  20.740  0.00  0.00    +0.000 A 
ATOM      4  S   UNL     1       2.938  13.907  21.462  0.00  0.00    +0.000 S 
ATOM      5  C   UNL     1       2.732  15.212  20.384  0.00  0.00    +0.000 A 
ATOM      6  C   UNL     1       1.674  15.014  19.520  0.00  0.00    +0.000 A 
ATOM      7  C   UNL     1       1.099  13.730  19.702  0.00  0.00    +0.000 A 
ATOM      8  C   UNL     1       0.045  13.131  18.929  0.00  0.00    +0.000 A 
ATOM      9  O   UNL     1      -0.453  13.733  17.991  0.00  0.00    +0.000 OA
ATOM     10  N   UNL     1      -0.334  11.858  19.381  0.00  0.00    +0.000 N 
ATOM     11  C   UNL     1       1.295  16.043  18.493  0.00  0.00    +0.000 C 
ATOM     12  C   UNL     1       2.025  17.375  18.759  0.00  0.00    +0.000 C 
ATOM     13  N   UNL     1       3.456  17.221  19.115  0.00  0.00    +0.000 NA
ATOM     14  C   UNL     1       4.206  16.596  18.020  0.00  0.00    +0.000 C 
ATOM     15  C   UNL     1       3.593  16.447  20.380  0.00  0.00    +0.000 C 
ENDROOT
BRANCH  10  16
ATOM     16  C   UNL     1      -1.455  11.303  18.707  0.00  0.00    +0.000 A 
ATOM     17  C   UNL     1      -1.265  10.364  17.680  0.00  0.00    +0.000 A 
ATOM     18  C   UNL     1      -2.361   9.809  17.025  0.00  0.00    +0.000 A 
ATOM     19  C   UNL     1      -3.646  10.203  17.384  0.00  0.00    +0.000 A 
ATOM     20  C   UNL     1      -3.836  11.204  18.337  0.00  0.00    +0.000 A 
ATOM     21  C   UNL     1      -2.741  11.772  18.983  0.00  0.00    +0.000 A 
ENDBRANCH  10  16
BRANCH   1  22
ATOM     22  S   UNL     1      -0.049   9.526  20.823  0.00  0.00    +0.000 S 
BRANCH  22  23
ATOM     23  C   UNL     1       1.603   8.788  20.977  0.00  0.00    +0.000 C 
BRANCH  23  25
ATOM     24  N   UNL     1       1.778   6.308  20.824  0.00  0.00    +0.000 N 
ATOM     25  C   UNL     1       1.825   7.521  20.148  0.00  0.00    +0.000 C 
ATOM     26  O   UNL     1       1.891   7.649  18.920  0.00  0.00    +0.000 OA
ATOM     27  H   UNL     1       1.578   6.320  21.824  0.00  0.00    +0.000 HD
BRANCH  24  33
ATOM     28  C   UNL     1       3.220   4.669  19.665  0.00  0.00    +0.000 A 
ATOM     29  C   UNL     1       3.344   3.440  18.989  0.00  0.00    +0.000 A 
ATOM     30  C   UNL     1       2.304   2.517  18.985  0.00  0.00    +0.000 A 
ATOM     31  C   UNL     1       1.121   2.822  19.634  0.00  0.00    +0.000 A 
ATOM     32  C   UNL     1       0.953   4.068  20.238  0.00  0.00    +0.000 A 
ATOM     33  C   UNL     1       1.988   5.022  20.257  0.00  0.00    +0.000 A 
BRANCH  28  35
ATOM     34  C   UNL     1       5.478   5.069  19.082  0.00  0.00    +0.000 C 
ATOM     35  O   UNL     1       4.309   5.513  19.795  0.00  0.00    +0.000 OA
ENDBRANCH  28  35
ENDBRANCH  24  33
ENDBRANCH  23  25
ENDBRANCH  22  23
ENDBRANCH   1  22
TORSDOF 6
ENDMDL
MODEL 2
REMARK VINA RESULT:      -8.2      0.997      1.660
REMARK  Name = 
REMARK  8 active torsions:
REMARK  status: ('A' for Active; 'I' for Inactive)
REMARK    1  A    between atoms: C_1  and  O_2
REMARK    2  A    between atoms: O_2  and  C_3
REMARK    3  A    between atoms: C_8  and  N_9
REMARK    4  A    between atoms: C_10  and  C_12
REMARK    5  A    between atoms: C_12  and  S_13
REMARK    6  A    between atoms: S_13  and  C_14
REMARK    7  A    between atoms: N_23  and  C_24
REMARK    8  A    between atoms: N_32  and  C_33
REMARK                            x       y       z     vdW  Elec       q    Type
REMARK                         _______ _______ _______ _____ _____    ______ ____
ROOT
ATOM      1  C   UNL     1       0.259  11.281  20.564  0.00  0.00    +0.000 A 
ATOM      2  N   UNL     1       1.227  11.825  21.246  0.00  0.00    +0.000 NA
ATOM      3  C   UNL     1       1.622  13.048  20.815  0.00  0.00    +0.000 A 
ATOM      4  S   UNL     1       2.912  13.923  21.534  0.00  0.00    +0.000 S 
ATOM      5  C   UNL     1       2.756  15.200  20.415  0.00  0.00    +0.000 A 
ATOM      6  C   UNL     1       1.708  15.003  19.539  0.00  0.00    +0.000 A 
ATOM      7  C   UNL     1       1.098  13.739  19.748  0.00  0.00    +0.000 A 
ATOM      8  C   UNL     1       0.043  13.143  18.975  0.00  0.00    +0.000 A 
ATOM      9  O   UNL     1      -0.424  13.729  18.011  0.00  0.00    +0.000 OA
ATOM     10  N   UNL     1      -0.374  11.893  19.457  0.00  0.00    +0.000 N 
ATOM     11  C   UNL     1       1.371  16.010  18.476  0.00  0.00    +0.000 C 
ATOM     12  C   UNL     1       2.129  17.331  18.716  0.00  0.00    +0.000 C 
ATOM     13  N   UNL     1       3.550  17.153  19.101  0.00  0.00    +0.000 NA
ATOM     14  C   UNL     1       4.303  16.478  18.038  0.00  0.00    +0.000 C 
ATOM     15  C   UNL     1       3.647  16.414  20.390  0.00  0.00    +0.000 C 
ENDROOT
BRANCH  10  16
ATOM     16  C   UNL     1      -1.497  11.346  18.779  0.00  0.00    +0.000 A 
ATOM     17  C   UNL     1      -1.313  10.382  17.775  0.00  0.00    +0.000 A 
ATOM     18  C   UNL     1      -2.411   9.835  17.117  0.00  0.00    +0.000 A 
ATOM     19  C   UNL     1      -3.692  10.260  17.450  0.00  0.00    +0.000 A 
ATOM     20  C   UNL     1      -3.875  11.284  18.381  0.00  0.00    +0.000 A 
ATOM     21  C   UNL     1      -2.777  11.845  19.029  0.00  0.00    +0.000 A 
ENDBRANCH  10  16
BRANCH   1  22
ATOM     22  S   UNL     1      -0.171   9.599  20.970  0.00  0.00    +0.000 S 
BRANCH  22  23
ATOM     23  C   UNL     1       1.457   8.801  21.069  0.00  0.00    +0.000 C 
BRANCH  23  25
ATOM     24  N   UNL     1       2.376   6.737  20.019  0.00  0.00    +0.000 N 
ATOM     25  C   UNL     1       1.868   8.015  19.822  0.00  0.00    +0.000 C 
ATOM     26  O   UNL     1       1.593   8.508  18.722  0.00  0.00    +0.000 OA
ATOM     27  H   UNL     1       2.429   6.381  20.974  0.00  0.00    +0.000 HD
BRANCH  24  33
ATOM     28  C   UNL     1       2.253   4.589  18.804  0.00  0.00    +0.000 A 
ATOM     29  C   UNL     1       2.833   3.685  17.892  0.00  0.00    +0.000 A 
ATOM     30  C   UNL     1       3.920   4.058  17.109  0.00  0.00    +0.000 A 
ATOM     31  C   UNL     1       4.455   5.326  17.247  0.00  0.00    +0.000 A 
ATOM     32  C   UNL     1       3.943   6.204  18.203  0.00  0.00    +0.000 A 
ATOM     33  C   UNL     1       2.845   5.854  19.010  0.00  0.00    +0.000 A 
BRANCH  28  35
ATOM     34  C   UNL     1       1.218   3.172  20.392  0.00  0.00    +0.000 C 
ATOM     35  O   UNL     1       1.081   4.266  19.465  0.00  0.00    +0.000 OA
ENDBRANCH  28  35
ENDBRANCH  24  33
ENDBRANCH  23  25
ENDBRANCH  22  23
ENDBRANCH   1  22
TORSDOF 6
ENDMDL
MODEL 3
REMARK VINA RESULT:      -7.9      0.937      1.252
REMARK  Name = 
REMARK  8 active torsions:
REMARK  status: ('A' for Active; 'I' for Inactive)
REMARK    1  A    between atoms: C_1  and  O_2
REMARK    2  A    between atoms: O_2  and  C_3
REMARK    3  A    between atoms: C_8  and  N_9
REMARK    4  A    between atoms: C_10  and  C_12
REMARK    5  A    between atoms: C_12  and  S_13
REMARK    6  A    between atoms: S_13  and  C_14
REMARK    7  A    between atoms: N_23  and  C_24
REMARK    8  A    between atoms: N_32  and  C_33
REMARK                            x       y       z     vdW  Elec       q    Type
REMARK                         _______ _______ _______ _____ _____    ______ ____
ROOT
ATOM      1  C   UNL     1       0.594  11.190  20.270  0.00  0.00    +0.000 A 
ATOM      2  N   UNL     1       1.548  11.748  20.961  0.00  0.00    +0.000 NA
ATOM      3  C   UNL     1       1.809  13.041  20.649  0.00  0.00    +0.000 A 
ATOM      4  S   UNL     1       3.055  13.952  21.397  0.00  0.00    +0.000 S 
ATOM      5  C   UNL     1       2.724  15.320  20.434  0.00  0.00    +0.000 A 
ATOM      6  C   UNL     1       1.649  15.118  19.592  0.00  0.00    +0.000 A 
ATOM      7  C   UNL     1       1.166  13.788  19.690  0.00  0.00    +0.000 A 
ATOM      8  C   UNL     1       0.125  13.180  18.906  0.00  0.00    +0.000 A 
ATOM      9  O   UNL     1      -0.446  13.817  18.036  0.00  0.00    +0.000 OA
ATOM     10  N   UNL     1      -0.152  11.853  19.268  0.00  0.00    +0.000 N 
ATOM     11  C   UNL     1       1.165  16.195  18.663  0.00  0.00    +0.000 C 
ATOM     12  C   UNL     1       1.816  17.549  19.011  0.00  0.00    +0.000 C 
ATOM     13  N   UNL     1       3.267  17.466  19.306  0.00  0.00    +0.000 NA
ATOM     14  C   UNL     1       4.014  16.979  18.141  0.00  0.00    +0.000 C 
ATOM     15  C   UNL     1       3.502  16.607  20.500  0.00  0.00    +0.000 C 
ENDROOT
BRANCH  10  16
ATOM     16  C   UNL     1      -1.260  11.277  18.588  0.00  0.00    +0.000 A 
ATOM     17  C   UNL     1      -2.570  11.618  18.961  0.00  0.00    +0.000 A 
ATOM     18  C   UNL     1      -3.658  11.065  18.290  0.00  0.00    +0.000 A 
ATOM     19  C   UNL     1      -3.438  10.161  17.256  0.00  0.00    +0.000 A 
ATOM     20  C   UNL     1      -2.142   9.749  16.943  0.00  0.00    +0.000 A 
ATOM     21  C   UNL     1      -1.053  10.288  17.624  0.00  0.00    +0.000 A 
ENDBRANCH  10  16
BRANCH   1  22
ATOM     22  S   UNL     1       0.338   9.441  20.509  0.00  0.00    +0.000 S 
BRANCH  22  23
ATOM     23  C   UNL     1       1.740   8.723  19.606  0.00  0.00    +0.000 C 
BRANCH  23  25
ATOM     24  N   UNL     1       2.530   6.537  18.709  0.00  0.00    +0.000 N 
ATOM     25  C   UNL     1       1.888   7.206  19.744  0.00  0.00    +0.000 C 
ATOM     26  O   UNL     1       1.556   6.697  20.820  0.00  0.00    +0.000 OA
ATOM     27  H   UNL     1       2.888   7.088  17.928  0.00  0.00    +0.000 HD
BRANCH  24  33
ATOM     28  C   UNL     1       3.951   4.545  19.053  0.00  0.00    +0.000 A 
ATOM     29  C   UNL     1       4.184   3.176  18.818  0.00  0.00    +0.000 A 
ATOM     30  C   UNL     1       3.199   2.368  18.261  0.00  0.00    +0.000 A 
ATOM     31  C   UNL     1       1.982   2.924  17.908  0.00  0.00    +0.000 A 
ATOM     32  C   UNL     1       1.766   4.294  18.059  0.00  0.00    +0.000 A 
ATOM     33  C   UNL     1       2.745   5.135  18.619  0.00  0.00    +0.000 A 
BRANCH  28  35
ATOM     34  C   UNL     1       6.181   5.331  19.141  0.00  0.00    +0.000 C 
ATOM     35  O   UNL     1       4.875   5.307  19.747  0.00  0.00    +0.000 OA
ENDBRANCH  28  35
ENDBRANCH  24  33
ENDBRANCH  23  25
ENDBRANCH  22  23
ENDBRANCH   1  22
TORSDOF 6
ENDMDL
MODEL 4
REMARK VINA RESULT:      -7.7      1.377      1.580
REMARK  Name = 
REMARK  8 active torsions:
REMARK  status: ('A' for Active; 'I' for Inactive)
REMARK    1  A    between atoms: C_1  and  O_2
REMARK    2  A    between atoms: O_2  and  C_3
REMARK    3  A    between atoms: C_8  and  N_9
REMARK    4  A    between atoms: C_10  and  C_12
REMARK    5  A    between atoms: C_12  and  S_13
REMARK    6  A    between atoms: S_13  and  C_14
REMARK    7  A    between atoms: N_23  and  C_24
REMARK    8  A    between atoms: N_32  and  C_33
REMARK                            x       y       z     vdW  Elec       q    Type
REMARK                         _______ _______ _______ _____ _____    ______ ____
ROOT
ATOM      1  C   UNL     1       0.322  12.209  21.080  0.00  0.00    +0.000 A 
ATOM      2  N   UNL     1       1.078  12.977  21.812  0.00  0.00    +0.000 NA
ATOM      3  C   UNL     1       1.755  13.938  21.136  0.00  0.00    +0.000 A 
ATOM      4  S   UNL     1       2.844  15.026  21.894  0.00  0.00    +0.000 S 
ATOM      5  C   UNL     1       3.238  15.768  20.410  0.00  0.00    +0.000 A 
ATOM      6  C   UNL     1       2.518  15.245  19.356  0.00  0.00    +0.000 A 
ATOM      7  C   UNL     1       1.708  14.160  19.780  0.00  0.00    +0.000 A 
ATOM      8  C   UNL     1       0.893  13.308  18.956  0.00  0.00    +0.000 A 
ATOM      9  O   UNL     1       0.850  13.473  17.748  0.00  0.00    +0.000 OA
ATOM     10  N   UNL     1       0.175  12.343  19.679  0.00  0.00    +0.000 N 
ATOM     11  C   UNL     1       2.687  15.760  17.955  0.00  0.00    +0.000 C 
ATOM     12  C   UNL     1       3.496  17.072  17.950  0.00  0.00    +0.000 C 
ATOM     13  N   UNL     1       4.675  17.061  18.849  0.00  0.00    +0.000 NA
ATOM     14  C   UNL     1       5.635  16.028  18.445  0.00  0.00    +0.000 C 
ATOM     15  C   UNL     1       4.244  16.879  20.263  0.00  0.00    +0.000 C 
ENDROOT
BRANCH  10  16
ATOM     16  C   UNL     1      -0.728  11.573  18.896  0.00  0.00    +0.000 A 
ATOM     17  C   UNL     1      -0.297  10.379  18.293  0.00  0.00    +0.000 A 
ATOM     18  C   UNL     1      -1.181   9.617  17.535  0.00  0.00    +0.000 A 
ATOM     19  C   UNL     1      -2.492  10.052  17.367  0.00  0.00    +0.000 A 
ATOM     20  C   UNL     1      -2.898  11.282  17.885  0.00  0.00    +0.000 A 
ATOM     21  C   UNL     1      -2.011  12.056  18.630  0.00  0.00    +0.000 A 
ENDBRANCH  10  16
BRANCH   1  22
ATOM     22  S   UNL     1      -0.441  10.815  21.888  0.00  0.00    +0.000 S 
BRANCH  22  23
ATOM     23  C   UNL     1       0.941   9.645  22.018  0.00  0.00    +0.000 C 
BRANCH  23  25
ATOM     24  N   UNL     1       1.863   7.612  20.911  0.00  0.00    +0.000 N 
ATOM     25  C   UNL     1       0.727   8.308  21.303  0.00  0.00    +0.000 C 
ATOM     26  O   UNL     1      -0.429   7.872  21.247  0.00  0.00    +0.000 OA
ATOM     27  H   UNL     1       2.775   8.010  21.137  0.00  0.00    +0.000 HD
BRANCH  24  33
ATOM     28  C   UNL     1       2.184   6.318  18.831  0.00  0.00    +0.000 A 
ATOM     29  C   UNL     1       2.063   5.095  18.142  0.00  0.00    +0.000 A 
ATOM     30  C   UNL     1       1.763   3.918  18.819  0.00  0.00    +0.000 A 
ATOM     31  C   UNL     1       1.556   3.955  20.187  0.00  0.00    +0.000 A 
ATOM     32  C   UNL     1       1.592   5.170  20.870  0.00  0.00    +0.000 A 
ATOM     33  C   UNL     1       1.891   6.376  20.210  0.00  0.00    +0.000 A 
BRANCH  28  35
ATOM     34  C   UNL     1       3.938   7.306  17.588  0.00  0.00    +0.000 C 
ATOM     35  O   UNL     1       2.632   7.452  18.177  0.00  0.00    +0.000 OA
ENDBRANCH  28  35
ENDBRANCH  24  33
ENDBRANCH  23  25
ENDBRANCH  22  23
ENDBRANCH   1  22
TORSDOF 6
ENDMDL
MODEL 5
REMARK VINA RESULT:      -7.7      1.163      1.247
REMARK  Name = 
REMARK  8 active torsions:
REMARK  status: ('A' for Active; 'I' for Inactive)
REMARK    1  A    between atoms: C_1  and  O_2
REMARK    2  A    between atoms: O_2  and  C_3
REMARK    3  A    between atoms: C_8  and  N_9
REMARK    4  A    between atoms: C_10  and  C_12
REMARK    5  A    between atoms: C_12  and  S_13
REMARK    6  A    between atoms: S_13  and  C_14
REMARK    7  A    between atoms: N_23  and  C_24
REMARK    8  A    between atoms: N_32  and  C_33
REMARK                            x       y       z     vdW  Elec       q    Type
REMARK                         _______ _______ _______ _____ _____    ______ ____
ROOT
ATOM      1  C   UNL     1       0.323  11.134  20.319  0.00  0.00    +0.000 A 
ATOM      2  N   UNL     1       1.292  11.657  21.015  0.00  0.00    +0.000 NA
ATOM      3  C   UNL     1       1.638  12.921  20.669  0.00  0.00    +0.000 A 
ATOM      4  S   UNL     1       2.919  13.782  21.419  0.00  0.00    +0.000 S 
ATOM      5  C   UNL     1       2.693  15.133  20.403  0.00  0.00    +0.000 A 
ATOM      6  C   UNL     1       1.628  14.968  19.542  0.00  0.00    +0.000 A 
ATOM      7  C   UNL     1       1.063  13.673  19.670  0.00  0.00    +0.000 A 
ATOM      8  C   UNL     1       0.006  13.102  18.881  0.00  0.00    +0.000 A 
ATOM      9  O   UNL     1      -0.506  13.742  17.977  0.00  0.00    +0.000 OA
ATOM     10  N   UNL     1      -0.359  11.806  19.278  0.00  0.00    +0.000 N 
ATOM     11  C   UNL     1       1.231  16.040  18.567  0.00  0.00    +0.000 C 
ATOM     12  C   UNL     1       1.954  17.363  18.887  0.00  0.00    +0.000 C 
ATOM     13  N   UNL     1       3.390  17.204  19.222  0.00  0.00    +0.000 NA
ATOM     14  C   UNL     1       4.134  16.635  18.091  0.00  0.00    +0.000 C 
ATOM     15  C   UNL     1       3.545  16.374  20.448  0.00  0.00    +0.000 C 
ENDROOT
BRANCH  10  16
ATOM     16  C   UNL     1      -1.484  11.275  18.589  0.00  0.00    +0.000 A 
ATOM     17  C   UNL     1      -1.299  10.350  17.548  0.00  0.00    +0.000 A 
ATOM     18  C   UNL     1      -2.398   9.818  16.879  0.00  0.00    +0.000 A 
ATOM     19  C   UNL     1      -3.680  10.220  17.239  0.00  0.00    +0.000 A 
ATOM     20  C   UNL     1      -3.864  11.207  18.208  0.00  0.00    +0.000 A 
ATOM     21  C   UNL     1      -2.765  11.753  18.868  0.00  0.00    +0.000 A 
ENDBRANCH  10  16
BRANCH   1  22
ATOM     22  S   UNL     1      -0.044   9.413  20.608  0.00  0.00    +0.000 S 
BRANCH  22  23
ATOM     23  C   UNL     1       1.610   8.707  20.862  0.00  0.00    +0.000 C 
BRANCH  23  25
ATOM     24  N   UNL     1       2.490   7.123  19.153  0.00  0.00    +0.000 N 
ATOM     25  C   UNL     1       1.790   7.279  20.343  0.00  0.00    +0.000 C 
ATOM     26  O   UNL     1       1.428   6.355  21.081  0.00  0.00    +0.000 OA
ATOM     27  H   UNL     1       2.864   7.958  18.701  0.00  0.00    +0.000 HD
BRANCH  24  33
ATOM     28  C   UNL     1       3.962   5.662  17.810  0.00  0.00    +0.000 A 
ATOM     29  C   UNL     1       4.122   4.494  17.038  0.00  0.00    +0.000 A 
ATOM     30  C   UNL     1       3.136   3.514  17.011  0.00  0.00    +0.000 A 
ATOM     31  C   UNL     1       1.971   3.701  17.734  0.00  0.00    +0.000 A 
ATOM     32  C   UNL     1       1.764   4.887  18.438  0.00  0.00    +0.000 A 
ATOM     33  C   UNL     1       2.743   5.897  18.481  0.00  0.00    +0.000 A 
BRANCH  28  35
ATOM     34  C   UNL     1       6.035   6.418  16.956  0.00  0.00    +0.000 C 
ATOM     35  O   UNL     1       5.008   6.557  17.955  0.00  0.00    +0.000 OA
ENDBRANCH  28  35
ENDBRANCH  24  33
ENDBRANCH  23  25
ENDBRANCH  22  23
ENDBRANCH   1  22
TORSDOF 6
ENDMDL
MODEL 6
REMARK VINA RESULT:      -7.7      2.368      5.727
REMARK  Name = 
REMARK  8 active torsions:
REMARK  status: ('A' for Active; 'I' for Inactive)
REMARK    1  A    between atoms: C_1  and  O_2
REMARK    2  A    between atoms: O_2  and  C_3
REMARK    3  A    between atoms: C_8  and  N_9
REMARK    4  A    between atoms: C_10  and  C_12
REMARK    5  A    between atoms: C_12  and  S_13
REMARK    6  A    between atoms: S_13  and  C_14
REMARK    7  A    between atoms: N_23  and  C_24
REMARK    8  A    between atoms: N_32  and  C_33
REMARK                            x       y       z     vdW  Elec       q    Type
REMARK                         _______ _______ _______ _____ _____    ______ ____
ROOT
ATOM      1  C   UNL     1      -0.198  10.564  18.219  0.00  0.00    +0.000 A 
ATOM      2  N   UNL     1      -1.209   9.876  17.769  0.00  0.00    +0.000 NA
ATOM      3  C   UNL     1      -2.429  10.417  18.006  0.00  0.00    +0.000 A 
ATOM      4  S   UNL     1      -3.897   9.657  17.546  0.00  0.00    +0.000 S 
ATOM      5  C   UNL     1      -4.835  10.905  18.232  0.00  0.00    +0.000 A 
ATOM      6  C   UNL     1      -4.056  11.917  18.755  0.00  0.00    +0.000 A 
ATOM      7  C   UNL     1      -2.677  11.599  18.664  0.00  0.00    +0.000 A 
ATOM      8  C   UNL     1      -1.572  12.359  19.183  0.00  0.00    +0.000 A 
ATOM      9  O   UNL     1      -1.768  13.401  19.788  0.00  0.00    +0.000 OA
ATOM     10  N   UNL     1      -0.317  11.799  18.898  0.00  0.00    +0.000 N 
ATOM     11  C   UNL     1      -4.669  13.130  19.395  0.00  0.00    +0.000 C 
ATOM     12  C   UNL     1      -6.182  13.194  19.105  0.00  0.00    +0.000 C 
ATOM     13  N   UNL     1      -6.880  11.893  19.238  0.00  0.00    +0.000 NA
ATOM     14  C   UNL     1      -6.783  11.381  20.609  0.00  0.00    +0.000 C 
ATOM     15  C   UNL     1      -6.340  10.915  18.253  0.00  0.00    +0.000 C 
ENDROOT
BRANCH  10  16
ATOM     16  C   UNL     1       0.788  12.599  19.296  0.00  0.00    +0.000 A 
ATOM     17  C   UNL     1       1.461  13.392  18.352  0.00  0.00    +0.000 A 
ATOM     18  C   UNL     1       2.537  14.185  18.740  0.00  0.00    +0.000 A 
ATOM     19  C   UNL     1       2.951  14.177  20.069  0.00  0.00    +0.000 A 
ATOM     20  C   UNL     1       2.345  13.322  20.990  0.00  0.00    +0.000 A 
ATOM     21  C   UNL     1       1.280  12.514  20.601  0.00  0.00    +0.000 A 
ENDBRANCH  10  16
BRANCH   1  22
ATOM     22  S   UNL     1       1.413   9.808  18.100  0.00  0.00    +0.000 S 
BRANCH  22  23
ATOM     23  C   UNL     1       1.545   8.938  19.688  0.00  0.00    +0.000 C 
BRANCH  23  25
ATOM     24  N   UNL     1       2.446   7.021  18.378  0.00  0.00    +0.000 N 
ATOM     25  C   UNL     1       1.914   7.457  19.585  0.00  0.00    +0.000 C 
ATOM     26  O   UNL     1       1.848   6.781  20.618  0.00  0.00    +0.000 OA
ATOM     27  H   UNL     1       2.584   7.707  17.636  0.00  0.00    +0.000 HD
BRANCH  24  33
ATOM     28  C   UNL     1       4.177   5.333  17.867  0.00  0.00    +0.000 A 
ATOM     29  C   UNL     1       4.502   4.039  17.413  0.00  0.00    +0.000 A 
ATOM     30  C   UNL     1       3.518   3.069  17.254  0.00  0.00    +0.000 A 
ATOM     31  C   UNL     1       2.198   3.388  17.520  0.00  0.00    +0.000 A 
ATOM     32  C   UNL     1       1.851   4.686  17.891  0.00  0.00    +0.000 A 
ATOM     33  C   UNL     1       2.825   5.688  18.059  0.00  0.00    +0.000 A 
BRANCH  28  35
ATOM     34  C   UNL     1       5.812   6.814  17.012  0.00  0.00    +0.000 C 
ATOM     35  O   UNL     1       5.175   6.243  18.170  0.00  0.00    +0.000 OA
ENDBRANCH  28  35
ENDBRANCH  24  33
ENDBRANCH  23  25
ENDBRANCH  22  23
ENDBRANCH   1  22
TORSDOF 6
ENDMDL
MODEL 7
REMARK VINA RESULT:      -7.6      3.297      4.749
REMARK  Name = 
REMARK  8 active torsions:
REMARK  status: ('A' for Active; 'I' for Inactive)
REMARK    1  A    between atoms: C_1  and  O_2
REMARK    2  A    between atoms: O_2  and  C_3
REMARK    3  A    between atoms: C_8  and  N_9
REMARK    4  A    between atoms: C_10  and  C_12
REMARK    5  A    between atoms: C_12  and  S_13
REMARK    6  A    between atoms: S_13  and  C_14
REMARK    7  A    between atoms: N_23  and  C_24
REMARK    8  A    between atoms: N_32  and  C_33
REMARK                            x       y       z     vdW  Elec       q    Type
REMARK                         _______ _______ _______ _____ _____    ______ ____
ROOT
ATOM      1  C   UNL     1      -0.691  11.739  19.748  0.00  0.00    +0.000 A 
ATOM      2  N   UNL     1      -0.377  12.234  20.912  0.00  0.00    +0.000 NA
ATOM      3  C   UNL     1      -1.413  12.738  21.626  0.00  0.00    +0.000 A 
ATOM      4  S   UNL     1      -1.220  13.482  23.160  0.00  0.00    +0.000 S 
ATOM      5  C   UNL     1      -2.885  13.835  23.272  0.00  0.00    +0.000 A 
ATOM      6  C   UNL     1      -3.595  13.350  22.193  0.00  0.00    +0.000 A 
ATOM      7  C   UNL     1      -2.730  12.767  21.231  0.00  0.00    +0.000 A 
ATOM      8  C   UNL     1      -3.089  12.243  19.942  0.00  0.00    +0.000 A 
ATOM      9  O   UNL     1      -4.248  12.277  19.561  0.00  0.00    +0.000 OA
ATOM     10  N   UNL     1      -2.008  11.696  19.234  0.00  0.00    +0.000 N 
ATOM     11  C   UNL     1      -5.083  13.528  22.087  0.00  0.00    +0.000 C 
ATOM     12  C   UNL     1      -5.670  14.021  23.425  0.00  0.00    +0.000 C 
ATOM     13  N   UNL     1      -4.873  15.085  24.082  0.00  0.00    +0.000 NA
ATOM     14  C   UNL     1      -4.801  16.285  23.240  0.00  0.00    +0.000 C 
ATOM     15  C   UNL     1      -3.515  14.576  24.421  0.00  0.00    +0.000 C 
ENDROOT
BRANCH  10  16
ATOM     16  C   UNL     1      -2.365  11.064  18.011  0.00  0.00    +0.000 A 
ATOM     17  C   UNL     1      -2.366  11.797  16.813  0.00  0.00    +0.000 A 
ATOM     18  C   UNL     1      -2.703  11.179  15.612  0.00  0.00    +0.000 A 
ATOM     19  C   UNL     1      -3.054   9.833  15.609  0.00  0.00    +0.000 A 
ATOM     20  C   UNL     1      -3.146   9.125  16.808  0.00  0.00    +0.000 A 
ATOM     21  C   UNL     1      -2.825   9.745  18.013  0.00  0.00    +0.000 A 
ENDBRANCH  10  16
BRANCH   1  22
ATOM     22  S   UNL     1       0.655  11.235  18.692  0.00  0.00    +0.000 S 
BRANCH  22  23
ATOM     23  C   UNL     1       1.006   9.559  19.294  0.00  0.00    +0.000 C 
BRANCH  23  25
ATOM     24  N   UNL     1       2.289   7.471  18.845  0.00  0.00    +0.000 N 
ATOM     25  C   UNL     1       1.874   8.707  18.365  0.00  0.00    +0.000 C 
ATOM     26  O   UNL     1       2.030   9.108  17.206  0.00  0.00    +0.000 OA
ATOM     27  H   UNL     1       1.979   7.186  19.775  0.00  0.00    +0.000 HD
BRANCH  24  33
ATOM     28  C   UNL     1       2.926   5.149  18.290  0.00  0.00    +0.000 A 
ATOM     29  C   UNL     1       3.855   4.258  17.716  0.00  0.00    +0.000 A 
ATOM     30  C   UNL     1       4.906   4.726  16.935  0.00  0.00    +0.000 A 
ATOM     31  C   UNL     1       5.055   6.088  16.740  0.00  0.00    +0.000 A 
ATOM     32  C   UNL     1       4.192   6.986  17.368  0.00  0.00    +0.000 A 
ATOM     33  C   UNL     1       3.120   6.541  18.165  0.00  0.00    +0.000 A 
BRANCH  28  35
ATOM     34  C   UNL     1       1.311   3.423  18.405  0.00  0.00    +0.000 C 
ATOM     35  O   UNL     1       1.798   4.670  18.935  0.00  0.00    +0.000 OA
ENDBRANCH  28  35
ENDBRANCH  24  33
ENDBRANCH  23  25
ENDBRANCH  22  23
ENDBRANCH   1  22
TORSDOF 6
ENDMDL
MODEL 8
REMARK VINA RESULT:      -7.6      2.555      6.147
REMARK  Name = 
REMARK  8 active torsions:
REMARK  status: ('A' for Active; 'I' for Inactive)
REMARK    1  A    between atoms: C_1  and  O_2
REMARK    2  A    between atoms: O_2  and  C_3
REMARK    3  A    between atoms: C_8  and  N_9
REMARK    4  A    between atoms: C_10  and  C_12
REMARK    5  A    between atoms: C_12  and  S_13
REMARK    6  A    between atoms: S_13  and  C_14
REMARK    7  A    between atoms: N_23  and  C_24
REMARK    8  A    between atoms: N_32  and  C_33
REMARK                            x       y       z     vdW  Elec       q    Type
REMARK                         _______ _______ _______ _____ _____    ______ ____
ROOT
ATOM      1  C   UNL     1      -0.441  11.558  18.850  0.00  0.00    +0.000 A 
ATOM      2  N   UNL     1      -1.266  10.718  18.291  0.00  0.00    +0.000 NA
ATOM      3  C   UNL     1      -2.581  11.014  18.436  0.00  0.00    +0.000 A 
ATOM      4  S   UNL     1      -3.838  10.018  17.824  0.00  0.00    +0.000 S 
ATOM      5  C   UNL     1      -5.046  11.039  18.463  0.00  0.00    +0.000 A 
ATOM      6  C   UNL     1      -4.515  12.150  19.086  0.00  0.00    +0.000 A 
ATOM      7  C   UNL     1      -3.098  12.097  19.107  0.00  0.00    +0.000 A 
ATOM      8  C   UNL     1      -2.202  13.021  19.746  0.00  0.00    +0.000 A 
ATOM      9  O   UNL     1      -2.638  13.979  20.364  0.00  0.00    +0.000 OA
ATOM     10  N   UNL     1      -0.845  12.716  19.555  0.00  0.00    +0.000 N 
ATOM     11  C   UNL     1      -5.395  13.198  19.707  0.00  0.00    +0.000 C 
ATOM     12  C   UNL     1      -6.865  12.996  19.287  0.00  0.00    +0.000 C 
ATOM     13  N   UNL     1      -7.314  11.584  19.315  0.00  0.00    +0.000 NA
ATOM     14  C   UNL     1      -7.235  11.033  20.673  0.00  0.00    +0.000 C 
ATOM     15  C   UNL     1      -6.523  10.770  18.351  0.00  0.00    +0.000 C 
ENDROOT
BRANCH  10  16
ATOM     16  C   UNL     1       0.055  13.686  20.076  0.00  0.00    +0.000 A 
ATOM     17  C   UNL     1       0.393  13.673  21.439  0.00  0.00    +0.000 A 
ATOM     18  C   UNL     1       1.283  14.614  21.950  0.00  0.00    +0.000 A 
ATOM     19  C   UNL     1       1.825  15.576  21.104  0.00  0.00    +0.000 A 
ATOM     20  C   UNL     1       1.420  15.650  19.770  0.00  0.00    +0.000 A 
ATOM     21  C   UNL     1       0.517  14.721  19.260  0.00  0.00    +0.000 A 
ENDBRANCH  10  16
BRANCH   1  22
ATOM     22  S   UNL     1       1.287  11.118  18.851  0.00  0.00    +0.000 S 
BRANCH  22  23
ATOM     23  C   UNL     1       1.227   9.334  19.184  0.00  0.00    +0.000 C 
BRANCH  23  25
ATOM     24  N   UNL     1       2.448   7.219  18.694  0.00  0.00    +0.000 N 
ATOM     25  C   UNL     1       2.058   8.470  18.233  0.00  0.00    +0.000 C 
ATOM     26  O   UNL     1       2.207   8.879  17.076  0.00  0.00    +0.000 OA
ATOM     27  H   UNL     1       2.146   6.932  19.625  0.00  0.00    +0.000 HD
BRANCH  24  33
ATOM     28  C   UNL     1       2.847   4.928  17.857  0.00  0.00    +0.000 A 
ATOM     29  C   UNL     1       3.727   3.993  17.278  0.00  0.00    +0.000 A 
ATOM     30  C   UNL     1       4.943   4.395  16.737  0.00  0.00    +0.000 A 
ATOM     31  C   UNL     1       5.304   5.729  16.790  0.00  0.00    +0.000 A 
ATOM     32  C   UNL     1       4.480   6.654  17.432  0.00  0.00    +0.000 A 
ATOM     33  C   UNL     1       3.245   6.276  17.991  0.00  0.00    +0.000 A 
BRANCH  28  35
ATOM     34  C   UNL     1       1.457   3.144  18.552  0.00  0.00    +0.000 C 
ATOM     35  O   UNL     1       1.576   4.547  18.253  0.00  0.00    +0.000 OA
ENDBRANCH  28  35
ENDBRANCH  24  33
ENDBRANCH  23  25
ENDBRANCH  22  23
ENDBRANCH   1  22
TORSDOF 6
ENDMDL
MODEL 9
REMARK VINA RESULT:      -7.5      1.648      2.486
REMARK  Name = 
REMARK  8 active torsions:
REMARK  status: ('A' for Active; 'I' for Inactive)
REMARK    1  A    between atoms: C_1  and  O_2
REMARK    2  A    between atoms: O_2  and  C_3
REMARK    3  A    between atoms: C_8  and  N_9
REMARK    4  A    between atoms: C_10  and  C_12
REMARK    5  A    between atoms: C_12  and  S_13
REMARK    6  A    between atoms: S_13  and  C_14
REMARK    7  A    between atoms: N_23  and  C_24
REMARK    8  A    between atoms: N_32  and  C_33
REMARK                            x       y       z     vdW  Elec       q    Type
REMARK                         _______ _______ _______ _____ _____    ______ ____
ROOT
ATOM      1  C   UNL     1      -0.310  12.130  21.259  0.00  0.00    +0.000 A 
ATOM      2  N   UNL     1       0.638  12.758  21.896  0.00  0.00    +0.000 NA
ATOM      3  C   UNL     1       1.442  13.530  21.124  0.00  0.00    +0.000 A 
ATOM      4  S   UNL     1       2.781  14.404  21.747  0.00  0.00    +0.000 S 
ATOM      5  C   UNL     1       3.204  14.986  20.201  0.00  0.00    +0.000 A 
ATOM      6  C   UNL     1       2.316  14.576  19.227  0.00  0.00    +0.000 A 
ATOM      7  C   UNL     1       1.339  13.699  19.763  0.00  0.00    +0.000 A 
ATOM      8  C   UNL     1       0.310  12.997  19.044  0.00  0.00    +0.000 A 
ATOM      9  O   UNL     1       0.211  13.116  17.834  0.00  0.00    +0.000 OA
ATOM     10  N   UNL     1      -0.531  12.231  19.865  0.00  0.00    +0.000 N 
ATOM     11  C   UNL     1       2.480  14.985  17.791  0.00  0.00    +0.000 C 
ATOM     12  C   UNL     1       3.534  16.103  17.659  0.00  0.00    +0.000 C 
ATOM     13  N   UNL     1       4.750  15.889  18.479  0.00  0.00    +0.000 NA
ATOM     14  C   UNL     1       5.451  14.665  18.073  0.00  0.00    +0.000 C 
ATOM     15  C   UNL     1       4.399  15.860  19.926  0.00  0.00    +0.000 C 
ENDROOT
BRANCH  10  16
ATOM     16  C   UNL     1      -1.626  11.629  19.188  0.00  0.00    +0.000 A 
ATOM     17  C   UNL     1      -1.432  10.460  18.434  0.00  0.00    +0.000 A 
ATOM     18  C   UNL     1      -2.504   9.861  17.779  0.00  0.00    +0.000 A 
ATOM     19  C   UNL     1      -3.768  10.437  17.863  0.00  0.00    +0.000 A 
ATOM     20  C   UNL     1      -3.947  11.648  18.532  0.00  0.00    +0.000 A 
ATOM     21  C   UNL     1      -2.873  12.258  19.175  0.00  0.00    +0.000 A 
ENDBRANCH  10  16
BRANCH   1  22
ATOM     22  S   UNL     1      -1.274  10.957  22.194  0.00  0.00    +0.000 S 
BRANCH  22  23
ATOM     23  C   UNL     1       0.010   9.914  22.940  0.00  0.00    +0.000 C 
BRANCH  23  25
ATOM     24  N   UNL     1       0.648   8.772  20.820  0.00  0.00    +0.000 N 
ATOM     25  C   UNL     1       1.085   9.418  21.970  0.00  0.00    +0.000 C 
ATOM     26  O   UNL     1       2.254   9.745  22.201  0.00  0.00    +0.000 OA
ATOM     27  H   UNL     1      -0.357   8.682  20.670  0.00  0.00    +0.000 HD
BRANCH  24  33
ATOM     28  C   UNL     1       1.981   6.897  19.919  0.00  0.00    +0.000 A 
ATOM     29  C   UNL     1       2.908   6.425  18.968  0.00  0.00    +0.000 A 
ATOM     30  C   UNL     1       3.248   7.191  17.859  0.00  0.00    +0.000 A 
ATOM     31  C   UNL     1       2.688   8.446  17.701  0.00  0.00    +0.000 A 
ATOM     32  C   UNL     1       1.833   8.961  18.675  0.00  0.00    +0.000 A 
ATOM     33  C   UNL     1       1.472   8.209  19.808  0.00  0.00    +0.000 A 
BRANCH  28  35
ATOM     34  C   UNL     1       2.204   4.799  20.989  0.00  0.00    +0.000 C 
ATOM     35  O   UNL     1       1.531   6.070  20.933  0.00  0.00    +0.000 OA
ENDBRANCH  28  35
ENDBRANCH  24  33
ENDBRANCH  23  25
ENDBRANCH  22  23
ENDBRANCH   1  22
TORSDOF 6
ENDMDL
