MODEL 1
REMARK VINA RESULT:      -8.7      0.000      0.000
REMARK  Name = 
REMARK  7 active torsions:
REMARK  status: ('A' for Active; 'I' for Inactive)
REMARK    1  A    between atoms: C_1  and  C_2
REMARK    2  A    between atoms: C_2  and  C_3
REMARK    3  A    between atoms: N_10  and  C_11
REMARK    4  A    between atoms: C_14  and  O_15
REMARK    5  A    between atoms: O_15  and  C_16
REMARK    6  A    between atoms: C_16  and  C_17
REMARK    7  A    between atoms: N_19  and  C_20
REMARK                            x       y       z     vdW  Elec       q    Type
REMARK                         _______ _______ _______ _____ _____    ______ ____
ROOT
ATOM      1  C   UNL     1       2.383   5.940  19.609  0.00  0.00    +0.000 A 
ATOM      2  C   UNL     1       1.888   6.296  20.866  0.00  0.00    +0.000 A 
ATOM      3  C   UNL     1       1.379   7.561  21.142  0.00  0.00    +0.000 A 
ATOM      4  C   UNL     1       1.482   8.581  20.203  0.00  0.00    +0.000 A 
ATOM      5  C   UNL     1       2.007   8.275  18.946  0.00  0.00    +0.000 A 
ATOM      6 CL   UNL     1       2.225   9.505  17.749  0.00  0.00    +0.000 Cl
ATOM      7  C   UNL     1       2.416   6.966  18.643  0.00  0.00    +0.000 A 
ENDROOT
BRANCH   1  17
ATOM      8  C   UNL     1       1.392   3.981  17.486  0.00  0.00    +0.000 C 
ATOM      9  C   UNL     1       1.924   3.590  18.880  0.00  0.00    +0.000 C 
ATOM     10  C   UNL     1       0.716   3.334  19.805  0.00  0.00    +0.000 C 
ATOM     11  N   UNL     1       2.491   2.249  18.734  0.00  0.00    +0.000 NA
ATOM     12  C   UNL     1       3.765   2.124  18.742  0.00  0.00    +0.000 C 
ATOM     13  N   UNL     1       4.287   0.879  18.641  0.00  0.00    +0.000 N 
ATOM     14  N   UNL     1       4.646   3.145  18.818  0.00  0.00    +0.000 NA
ATOM     15  C   UNL     1       4.195   4.312  19.141  0.00  0.00    +0.000 C 
ATOM     16  N   UNL     1       5.139   5.283  19.296  0.00  0.00    +0.000 N 
ATOM     17  N   UNL     1       2.872   4.631  19.369  0.00  0.00    +0.000 N 
ATOM     18  H   UNL     1       3.635   0.220  18.240  0.00  0.00    +0.000 HD
ATOM     19  H   UNL     1       5.207   0.878  18.221  0.00  0.00    +0.000 HD
ATOM     20  H   UNL     1       6.070   4.880  19.277  0.00  0.00    +0.000 HD
ATOM     21  H   UNL     1       5.002   5.869  20.109  0.00  0.00    +0.000 HD
ENDBRANCH   1  17
BRANCH   4  22
ATOM     22  O   UNL     1       1.117   9.876  20.473  0.00  0.00    +0.000 OA
BRANCH  22  23
ATOM     23  C   UNL     1      -0.294  10.086  20.531  0.00  0.00    +0.000 C 
BRANCH  23  24
ATOM     24  C   UNL     1      -0.868  10.703  19.267  0.00  0.00    +0.000 C 
ATOM     25  O   UNL     1      -0.354  11.717  18.800  0.00  0.00    +0.000 OA
ATOM     26  N   UNL     1      -1.948  10.009  18.770  0.00  0.00    +0.000 N 
ATOM     27  H   UNL     1      -2.331   9.285  19.370  0.00  0.00    +0.000 HD
BRANCH  26  28
ATOM     28  C   UNL     1      -2.610  10.271  17.561  0.00  0.00    +0.000 A 
ATOM     29  C   UNL     1      -2.171   9.775  16.332  0.00  0.00    +0.000 A 
ATOM     30  C   UNL     1      -2.865  10.077  15.160  0.00  0.00    +0.000 A 
ATOM     31  C   UNL     1      -4.001  10.879  15.209  0.00  0.00    +0.000 A 
ATOM     32  C   UNL     1      -4.457  11.362  16.436  0.00  0.00    +0.000 A 
ATOM     33  C   UNL     1      -3.772  11.050  17.612  0.00  0.00    +0.000 A 
ENDBRANCH  26  28
ENDBRANCH  23  24
ENDBRANCH  22  23
ENDBRANCH   4  22
TORSDOF 5
ENDMDL
MODEL 2
REMARK VINA RESULT:      -8.4      1.592      2.334
REMARK  Name = 
REMARK  7 active torsions:
REMARK  status: ('A' for Active; 'I' for Inactive)
REMARK    1  A    between atoms: C_1  and  C_2
REMARK    2  A    between atoms: C_2  and  C_3
REMARK    3  A    between atoms: N_10  and  C_11
REMARK    4  A    between atoms: C_14  and  O_15
REMARK    5  A    between atoms: O_15  and  C_16
REMARK    6  A    between atoms: C_16  and  C_17
REMARK    7  A    between atoms: N_19  and  C_20
REMARK                            x       y       z     vdW  Elec       q    Type
REMARK                         _______ _______ _______ _____ _____    ______ ____
ROOT
ATOM      1  C   UNL     1       2.667   6.489  19.327  0.00  0.00    +0.000 A 
ATOM      2  C   UNL     1       2.654   7.119  18.080  0.00  0.00    +0.000 A 
ATOM      3  C   UNL     1       2.107   8.383  17.883  0.00  0.00    +0.000 A 
ATOM      4  C   UNL     1       1.407   9.014  18.905  0.00  0.00    +0.000 A 
ATOM      5  C   UNL     1       1.365   8.398  20.158  0.00  0.00    +0.000 A 
ATOM      6 CL   UNL     1       0.461   9.092  21.460  0.00  0.00    +0.000 Cl
ATOM      7  C   UNL     1       2.016   7.173  20.373  0.00  0.00    +0.000 A 
ENDROOT
BRANCH   1  17
ATOM      8  C   UNL     1       1.770   3.889  17.999  0.00  0.00    +0.000 C 
ATOM      9  C   UNL     1       2.384   4.003  19.409  0.00  0.00    +0.000 C 
ATOM     10  C   UNL     1       1.238   3.975  20.441  0.00  0.00    +0.000 C 
ATOM     11  N   UNL     1       3.058   2.729  19.661  0.00  0.00    +0.000 NA
ATOM     12  C   UNL     1       4.338   2.701  19.628  0.00  0.00    +0.000 C 
ATOM     13  N   UNL     1       4.961   1.529  19.893  0.00  0.00    +0.000 N 
ATOM     14  N   UNL     1       5.130   3.751  19.321  0.00  0.00    +0.000 NA
ATOM     15  C   UNL     1       4.593   4.926  19.286  0.00  0.00    +0.000 C 
ATOM     16  N   UNL     1       5.456   5.958  19.066  0.00  0.00    +0.000 N 
ATOM     17  N   UNL     1       3.257   5.209  19.483  0.00  0.00    +0.000 N 
ATOM     18  H   UNL     1       4.352   0.733  19.763  0.00  0.00    +0.000 HD
ATOM     19  H   UNL     1       5.861   1.457  19.439  0.00  0.00    +0.000 HD
ATOM     20  H   UNL     1       6.417   5.636  19.117  0.00  0.00    +0.000 HD
ATOM     21  H   UNL     1       5.300   6.763  19.658  0.00  0.00    +0.000 HD
ENDBRANCH   1  17
BRANCH   4  22
ATOM     22  O   UNL     1       0.738  10.197  18.724  0.00  0.00    +0.000 OA
BRANCH  22  23
ATOM     23  C   UNL     1      -0.458  10.082  17.953  0.00  0.00    +0.000 C 
BRANCH  23  24
ATOM     24  C   UNL     1      -1.473  11.176  18.239  0.00  0.00    +0.000 C 
ATOM     25  O   UNL     1      -1.081  12.314  18.486  0.00  0.00    +0.000 OA
ATOM     26  N   UNL     1      -2.775  10.735  18.175  0.00  0.00    +0.000 N 
ATOM     27  H   UNL     1      -2.906   9.731  18.111  0.00  0.00    +0.000 HD
BRANCH  26  28
ATOM     28  C   UNL     1      -3.922  11.537  18.279  0.00  0.00    +0.000 A 
ATOM     29  C   UNL     1      -4.277  12.206  19.452  0.00  0.00    +0.000 A 
ATOM     30  C   UNL     1      -5.435  12.982  19.499  0.00  0.00    +0.000 A 
ATOM     31  C   UNL     1      -6.248  13.092  18.375  0.00  0.00    +0.000 A 
ATOM     32  C   UNL     1      -5.889  12.441  17.194  0.00  0.00    +0.000 A 
ATOM     33  C   UNL     1      -4.724  11.675  17.140  0.00  0.00    +0.000 A 
ENDBRANCH  26  28
ENDBRANCH  23  24
ENDBRANCH  22  23
ENDBRANCH   4  22
TORSDOF 5
ENDMDL
MODEL 3
REMARK VINA RESULT:      -8.4      2.699      4.081
REMARK  Name = 
REMARK  7 active torsions:
REMARK  status: ('A' for Active; 'I' for Inactive)
REMARK    1  A    between atoms: C_1  and  C_2
REMARK    2  A    between atoms: C_2  and  C_3
REMARK    3  A    between atoms: N_10  and  C_11
REMARK    4  A    between atoms: C_14  and  O_15
REMARK    5  A    between atoms: O_15  and  C_16
REMARK    6  A    between atoms: C_16  and  C_17
REMARK    7  A    between atoms: N_19  and  C_20
REMARK                            x       y       z     vdW  Elec       q    Type
REMARK                         _______ _______ _______ _____ _____    ______ ____
ROOT
ATOM      1  C   UNL     1       2.346   5.966  19.626  0.00  0.00    +0.000 A 
ATOM      2  C   UNL     1       1.849   6.313  20.884  0.00  0.00    +0.000 A 
ATOM      3  C   UNL     1       1.332   7.574  21.166  0.00  0.00    +0.000 A 
ATOM      4  C   UNL     1       1.430   8.599  20.232  0.00  0.00    +0.000 A 
ATOM      5  C   UNL     1       1.958   8.301  18.973  0.00  0.00    +0.000 A 
ATOM      6 CL   UNL     1       2.170   9.538  17.782  0.00  0.00    +0.000 Cl
ATOM      7  C   UNL     1       2.375   6.996  18.665  0.00  0.00    +0.000 A 
ENDROOT
BRANCH   1  17
ATOM      8  C   UNL     1       1.356   4.004  17.506  0.00  0.00    +0.000 C 
ATOM      9  C   UNL     1       1.899   3.613  18.896  0.00  0.00    +0.000 C 
ATOM     10  C   UNL     1       0.699   3.348  19.828  0.00  0.00    +0.000 C 
ATOM     11  N   UNL     1       2.475   2.277  18.744  0.00  0.00    +0.000 NA
ATOM     12  C   UNL     1       3.750   2.161  18.744  0.00  0.00    +0.000 C 
ATOM     13  N   UNL     1       4.280   0.920  18.637  0.00  0.00    +0.000 N 
ATOM     14  N   UNL     1       4.624   3.188  18.816  0.00  0.00    +0.000 NA
ATOM     15  C   UNL     1       4.167   4.351  19.144  0.00  0.00    +0.000 C 
ATOM     16  N   UNL     1       5.105   5.328  19.295  0.00  0.00    +0.000 N 
ATOM     17  N   UNL     1       2.843   4.660  19.381  0.00  0.00    +0.000 N 
ATOM     18  H   UNL     1       3.630   0.257  18.239  0.00  0.00    +0.000 HD
ATOM     19  H   UNL     1       5.198   0.926  18.212  0.00  0.00    +0.000 HD
ATOM     20  H   UNL     1       6.039   4.932  19.269  0.00  0.00    +0.000 HD
ATOM     21  H   UNL     1       4.969   5.913  20.109  0.00  0.00    +0.000 HD
ENDBRANCH   1  17
BRANCH   4  22
ATOM     22  O   UNL     1       1.057   9.890  20.507  0.00  0.00    +0.000 OA
BRANCH  22  23
ATOM     23  C   UNL     1      -0.341  10.059  20.737  0.00  0.00    +0.000 C 
BRANCH  23  24
ATOM     24  C   UNL     1      -0.660  10.785  22.033  0.00  0.00    +0.000 C 
ATOM     25  O   UNL     1      -0.061  10.478  23.062  0.00  0.00    +0.000 OA
ATOM     26  N   UNL     1      -1.627  11.753  21.887  0.00  0.00    +0.000 N 
ATOM     27  H   UNL     1      -2.122  11.764  21.000  0.00  0.00    +0.000 HD
BRANCH  26  28
ATOM     28  C   UNL     1      -2.044  12.658  22.875  0.00  0.00    +0.000 A 
ATOM     29  C   UNL     1      -3.252  12.527  23.563  0.00  0.00    +0.000 A 
ATOM     30  C   UNL     1      -3.620  13.463  24.530  0.00  0.00    +0.000 A 
ATOM     31  C   UNL     1      -2.782  14.538  24.814  0.00  0.00    +0.000 A 
ATOM     32  C   UNL     1      -1.565  14.664  24.144  0.00  0.00    +0.000 A 
ATOM     33  C   UNL     1      -1.189  13.721  23.186  0.00  0.00    +0.000 A 
ENDBRANCH  26  28
ENDBRANCH  23  24
ENDBRANCH  22  23
ENDBRANCH   4  22
TORSDOF 5
ENDMDL
MODEL 4
REMARK VINA RESULT:      -8.2      2.252      3.377
REMARK  Name = 
REMARK  7 active torsions:
REMARK  status: ('A' for Active; 'I' for Inactive)
REMARK    1  A    between atoms: C_1  and  C_2
REMARK    2  A    between atoms: C_2  and  C_3
REMARK    3  A    between atoms: N_10  and  C_11
REMARK    4  A    between atoms: C_14  and  O_15
REMARK    5  A    between atoms: O_15  and  C_16
REMARK    6  A    between atoms: C_16  and  C_17
REMARK    7  A    between atoms: N_19  and  C_20
REMARK                            x       y       z     vdW  Elec       q    Type
REMARK                         _______ _______ _______ _____ _____    ______ ____
ROOT
ATOM      1  C   UNL     1       2.691   6.433  19.321  0.00  0.00    +0.000 A 
ATOM      2  C   UNL     1       2.665   7.082  18.085  0.00  0.00    +0.000 A 
ATOM      3  C   UNL     1       2.155   8.366  17.920  0.00  0.00    +0.000 A 
ATOM      4  C   UNL     1       1.505   9.004  18.970  0.00  0.00    +0.000 A 
ATOM      5  C   UNL     1       1.475   8.370  20.215  0.00  0.00    +0.000 A 
ATOM      6 CL   UNL     1       0.630   9.074  21.551  0.00  0.00    +0.000 Cl
ATOM      7  C   UNL     1       2.091   7.122  20.395  0.00  0.00    +0.000 A 
ENDROOT
BRANCH   1  17
ATOM      8  C   UNL     1       1.820   3.930  17.803  0.00  0.00    +0.000 C 
ATOM      9  C   UNL     1       2.349   3.954  19.252  0.00  0.00    +0.000 C 
ATOM     10  C   UNL     1       1.140   3.900  20.210  0.00  0.00    +0.000 C 
ATOM     11  N   UNL     1       2.978   2.652  19.474  0.00  0.00    +0.000 NA
ATOM     12  C   UNL     1       4.256   2.594  19.517  0.00  0.00    +0.000 C 
ATOM     13  N   UNL     1       4.835   1.394  19.756  0.00  0.00    +0.000 N 
ATOM     14  N   UNL     1       5.088   3.638  19.316  0.00  0.00    +0.000 NA
ATOM     15  C   UNL     1       4.581   4.826  19.312  0.00  0.00    +0.000 C 
ATOM     16  N   UNL     1       5.478   5.846  19.201  0.00  0.00    +0.000 N 
ATOM     17  N   UNL     1       3.241   5.132  19.444  0.00  0.00    +0.000 N 
ATOM     18  H   UNL     1       4.219   0.621  19.546  0.00  0.00    +0.000 HD
ATOM     19  H   UNL     1       5.760   1.323  19.354  0.00  0.00    +0.000 HD
ATOM     20  H   UNL     1       6.426   5.498  19.293  0.00  0.00    +0.000 HD
ATOM     21  H   UNL     1       5.303   6.623  19.825  0.00  0.00    +0.000 HD
ENDBRANCH   1  17
BRANCH   4  22
ATOM     22  O   UNL     1       0.871  10.211  18.824  0.00  0.00    +0.000 OA
BRANCH  22  23
ATOM     23  C   UNL     1      -0.424  10.125  18.230  0.00  0.00    +0.000 C 
BRANCH  23  24
ATOM     24  C   UNL     1      -1.485  10.926  18.965  0.00  0.00    +0.000 C 
ATOM     25  O   UNL     1      -2.646  10.905  18.563  0.00  0.00    +0.000 OA
ATOM     26  N   UNL     1      -0.990  11.609  20.052  0.00  0.00    +0.000 N 
ATOM     27  H   UNL     1       0.021  11.636  20.144  0.00  0.00    +0.000 HD
BRANCH  26  28
ATOM     28  C   UNL     1      -1.747  12.337  20.983  0.00  0.00    +0.000 A 
ATOM     29  C   UNL     1      -2.048  11.855  22.258  0.00  0.00    +0.000 A 
ATOM     30  C   UNL     1      -2.814  12.620  23.139  0.00  0.00    +0.000 A 
ATOM     31  C   UNL     1      -3.286  13.869  22.749  0.00  0.00    +0.000 A 
ATOM     32  C   UNL     1      -2.974  14.364  21.483  0.00  0.00    +0.000 A 
ATOM     33  C   UNL     1      -2.196  13.607  20.605  0.00  0.00    +0.000 A 
ENDBRANCH  26  28
ENDBRANCH  23  24
ENDBRANCH  22  23
ENDBRANCH   4  22
TORSDOF 5
ENDMDL
MODEL 5
REMARK VINA RESULT:      -8.2      5.974      8.623
REMARK  Name = 
REMARK  7 active torsions:
REMARK  status: ('A' for Active; 'I' for Inactive)
REMARK    1  A    between atoms: C_1  and  C_2
REMARK    2  A    between atoms: C_2  and  C_3
REMARK    3  A    between atoms: N_10  and  C_11
REMARK    4  A    between atoms: C_14  and  O_15
REMARK    5  A    between atoms: O_15  and  C_16
REMARK    6  A    between atoms: C_16  and  C_17
REMARK    7  A    between atoms: N_19  and  C_20
REMARK                            x       y       z     vdW  Elec       q    Type
REMARK                         _______ _______ _______ _____ _____    ______ ____
ROOT
ATOM      1  C   UNL     1       4.529   5.378  18.457  0.00  0.00    +0.000 A 
ATOM      2  C   UNL     1       4.451   6.297  17.408  0.00  0.00    +0.000 A 
ATOM      3  C   UNL     1       5.559   6.992  16.934  0.00  0.00    +0.000 A 
ATOM      4  C   UNL     1       6.779   6.908  17.596  0.00  0.00    +0.000 A 
ATOM      5  C   UNL     1       6.887   6.028  18.676  0.00  0.00    +0.000 A 
ATOM      6 CL   UNL     1       8.354   5.916  19.587  0.00  0.00    +0.000 Cl
ATOM      7  C   UNL     1       5.790   5.249  19.075  0.00  0.00    +0.000 A 
ENDROOT
BRANCH   1  17
ATOM      8  C   UNL     1       4.434   2.543  19.588  0.00  0.00    +0.000 C 
ATOM      9  C   UNL     1       3.333   3.196  18.727  0.00  0.00    +0.000 C 
ATOM     10  C   UNL     1       3.499   2.705  17.274  0.00  0.00    +0.000 C 
ATOM     11  N   UNL     1       2.076   2.560  19.126  0.00  0.00    +0.000 NA
ATOM     12  C   UNL     1       1.253   3.236  19.836  0.00  0.00    +0.000 C 
ATOM     13  N   UNL     1       0.077   2.658  20.177  0.00  0.00    +0.000 N 
ATOM     14  N   UNL     1       1.470   4.484  20.303  0.00  0.00    +0.000 NA
ATOM     15  C   UNL     1       2.467   5.148  19.817  0.00  0.00    +0.000 C 
ATOM     16  N   UNL     1       2.583   6.434  20.253  0.00  0.00    +0.000 N 
ATOM     17  N   UNL     1       3.376   4.677  18.891  0.00  0.00    +0.000 N 
ATOM     18  H   UNL     1       0.113   1.650  20.118  0.00  0.00    +0.000 HD
ATOM     19  H   UNL     1      -0.298   3.022  21.042  0.00  0.00    +0.000 HD
ATOM     20  H   UNL     1       1.761   6.706  20.782  0.00  0.00    +0.000 HD
ATOM     21  H   UNL     1       2.795   7.102  19.523  0.00  0.00    +0.000 HD
ENDBRANCH   1  17
BRANCH   4  22
ATOM     22  O   UNL     1       7.864   7.672  17.250  0.00  0.00    +0.000 OA
BRANCH  22  23
ATOM     23  C   UNL     1       7.671   9.075  17.423  0.00  0.00    +0.000 C 
BRANCH  23  24
ATOM     24  C   UNL     1       8.697   9.721  18.338  0.00  0.00    +0.000 C 
ATOM     25  O   UNL     1       9.133   9.091  19.299  0.00  0.00    +0.000 OA
ATOM     26  N   UNL     1       9.037  10.998  17.953  0.00  0.00    +0.000 N 
ATOM     27  H   UNL     1       8.464  11.415  17.225  0.00  0.00    +0.000 HD
BRANCH  26  28
ATOM     28  C   UNL     1      10.035  11.796  18.533  0.00  0.00    +0.000 A 
ATOM     29  C   UNL     1       9.957  12.279  19.840  0.00  0.00    +0.000 A 
ATOM     30  C   UNL     1      10.977  13.076  20.361  0.00  0.00    +0.000 A 
ATOM     31  C   UNL     1      12.080  13.398  19.576  0.00  0.00    +0.000 A 
ATOM     32  C   UNL     1      12.173  12.904  18.275  0.00  0.00    +0.000 A 
ATOM     33  C   UNL     1      11.161  12.095  17.757  0.00  0.00    +0.000 A 
ENDBRANCH  26  28
ENDBRANCH  23  24
ENDBRANCH  22  23
ENDBRANCH   4  22
TORSDOF 5
ENDMDL
MODEL 6
REMARK VINA RESULT:      -8.1      0.782      1.750
REMARK  Name = 
REMARK  7 active torsions:
REMARK  status: ('A' for Active; 'I' for Inactive)
REMARK    1  A    between atoms: C_1  and  C_2
REMARK    2  A    between atoms: C_2  and  C_3
REMARK    3  A    between atoms: N_10  and  C_11
REMARK    4  A    between atoms: C_14  and  O_15
REMARK    5  A    between atoms: O_15  and  C_16
REMARK    6  A    between atoms: C_16  and  C_17
REMARK    7  A    between atoms: N_19  and  C_20
REMARK                            x       y       z     vdW  Elec       q    Type
REMARK                         _______ _______ _______ _____ _____    ______ ____
ROOT
ATOM      1  C   UNL     1       2.189   6.086  19.348  0.00  0.00    +0.000 A 
ATOM      2  C   UNL     1       1.839   6.423  20.657  0.00  0.00    +0.000 A 
ATOM      3  C   UNL     1       1.415   7.698  21.017  0.00  0.00    +0.000 A 
ATOM      4  C   UNL     1       1.466   8.741  20.100  0.00  0.00    +0.000 A 
ATOM      5  C   UNL     1       1.848   8.452  18.787  0.00  0.00    +0.000 A 
ATOM      6 CL   UNL     1       1.996   9.709  17.607  0.00  0.00    +0.000 Cl
ATOM      7  C   UNL     1       2.169   7.138  18.411  0.00  0.00    +0.000 A 
ENDROOT
BRANCH   1  17
ATOM      8  C   UNL     1       5.016   4.945  19.542  0.00  0.00    +0.000 C 
ATOM      9  C   UNL     1       3.967   4.549  18.482  0.00  0.00    +0.000 C 
ATOM     10  C   UNL     1       4.274   5.324  17.183  0.00  0.00    +0.000 C 
ATOM     11  N   UNL     1       4.276   3.171  18.101  0.00  0.00    +0.000 NA
ATOM     12  C   UNL     1       3.505   2.238  18.517  0.00  0.00    +0.000 C 
ATOM     13  N   UNL     1       3.774   0.967  18.136  0.00  0.00    +0.000 N 
ATOM     14  N   UNL     1       2.446   2.412  19.336  0.00  0.00    +0.000 NA
ATOM     15  C   UNL     1       2.025   3.618  19.536  0.00  0.00    +0.000 C 
ATOM     16  N   UNL     1       0.897   3.727  20.293  0.00  0.00    +0.000 N 
ATOM     17  N   UNL     1       2.595   4.766  19.025  0.00  0.00    +0.000 N 
ATOM     18  H   UNL     1       4.734   0.849  17.841  0.00  0.00    +0.000 HD
ATOM     19  H   UNL     1       3.446   0.284  18.805  0.00  0.00    +0.000 HD
ATOM     20  H   UNL     1       0.485   2.813  20.451  0.00  0.00    +0.000 HD
ATOM     21  H   UNL     1       0.219   4.387  19.935  0.00  0.00    +0.000 HD
ENDBRANCH   1  17
BRANCH   4  22
ATOM     22  O   UNL     1       1.185  10.040  20.439  0.00  0.00    +0.000 OA
BRANCH  22  23
ATOM     23  C   UNL     1      -0.205  10.312  20.617  0.00  0.00    +0.000 C 
BRANCH  23  24
ATOM     24  C   UNL     1      -0.871  10.902  19.386  0.00  0.00    +0.000 C 
ATOM     25  O   UNL     1      -0.524  12.010  18.983  0.00  0.00    +0.000 OA
ATOM     26  N   UNL     1      -1.827  10.076  18.840  0.00  0.00    +0.000 N 
ATOM     27  H   UNL     1      -2.090   9.267  19.394  0.00  0.00    +0.000 HD
BRANCH  26  28
ATOM     28  C   UNL     1      -2.524  10.301  17.643  0.00  0.00    +0.000 A 
ATOM     29  C   UNL     1      -2.105   9.788  16.414  0.00  0.00    +0.000 A 
ATOM     30  C   UNL     1      -2.833  10.052  15.253  0.00  0.00    +0.000 A 
ATOM     31  C   UNL     1      -3.983  10.833  15.314  0.00  0.00    +0.000 A 
ATOM     32  C   UNL     1      -4.417  11.334  16.542  0.00  0.00    +0.000 A 
ATOM     33  C   UNL     1      -3.698  11.059  17.706  0.00  0.00    +0.000 A 
ENDBRANCH  26  28
ENDBRANCH  23  24
ENDBRANCH  22  23
ENDBRANCH   4  22
TORSDOF 5
ENDMDL
MODEL 7
REMARK VINA RESULT:      -8.1      2.498      3.815
REMARK  Name = 
REMARK  7 active torsions:
REMARK  status: ('A' for Active; 'I' for Inactive)
REMARK    1  A    between atoms: C_1  and  C_2
REMARK    2  A    between atoms: C_2  and  C_3
REMARK    3  A    between atoms: N_10  and  C_11
REMARK    4  A    between atoms: C_14  and  O_15
REMARK    5  A    between atoms: O_15  and  C_16
REMARK    6  A    between atoms: C_16  and  C_17
REMARK    7  A    between atoms: N_19  and  C_20
REMARK                            x       y       z     vdW  Elec       q    Type
REMARK                         _______ _______ _______ _____ _____    ______ ____
ROOT
ATOM      1  C   UNL     1       2.328   6.029  19.630  0.00  0.00    +0.000 A 
ATOM      2  C   UNL     1       1.777   6.418  20.853  0.00  0.00    +0.000 A 
ATOM      3  C   UNL     1       1.227   7.679  21.062  0.00  0.00    +0.000 A 
ATOM      4  C   UNL     1       1.342   8.667  20.091  0.00  0.00    +0.000 A 
ATOM      5  C   UNL     1       1.923   8.328  18.866  0.00  0.00    +0.000 A 
ATOM      6 CL   UNL     1       2.157   9.519  17.633  0.00  0.00    +0.000 Cl
ATOM      7  C   UNL     1       2.375   7.020  18.629  0.00  0.00    +0.000 A 
ENDROOT
BRANCH   1  17
ATOM      8  C   UNL     1       1.424   3.946  17.588  0.00  0.00    +0.000 C 
ATOM      9  C   UNL     1       1.946   3.635  19.006  0.00  0.00    +0.000 C 
ATOM     10  C   UNL     1       0.733   3.388  19.926  0.00  0.00    +0.000 C 
ATOM     11  N   UNL     1       2.553   2.306  18.931  0.00  0.00    +0.000 NA
ATOM     12  C   UNL     1       3.830   2.218  18.961  0.00  0.00    +0.000 C 
ATOM     13  N   UNL     1       4.389   0.986  18.924  0.00  0.00    +0.000 N 
ATOM     14  N   UNL     1       4.680   3.267  19.000  0.00  0.00    +0.000 NA
ATOM     15  C   UNL     1       4.192   4.434  19.262  0.00  0.00    +0.000 C 
ATOM     16  N   UNL     1       5.106   5.438  19.384  0.00  0.00    +0.000 N 
ATOM     17  N   UNL     1       2.857   4.725  19.458  0.00  0.00    +0.000 N 
ATOM     18  H   UNL     1       3.761   0.290  18.546  0.00  0.00    +0.000 HD
ATOM     19  H   UNL     1       5.314   0.992  18.518  0.00  0.00    +0.000 HD
ATOM     20  H   UNL     1       6.048   5.062  19.396  0.00  0.00    +0.000 HD
ATOM     21  H   UNL     1       4.941   6.057  20.166  0.00  0.00    +0.000 HD
ENDBRANCH   1  17
BRANCH   4  22
ATOM     22  O   UNL     1       0.935   9.960  20.298  0.00  0.00    +0.000 OA
BRANCH  22  23
ATOM     23  C   UNL     1      -0.434  10.203  19.976  0.00  0.00    +0.000 C 
BRANCH  23  24
ATOM     24  C   UNL     1      -0.986  11.477  20.591  0.00  0.00    +0.000 C 
ATOM     25  O   UNL     1      -1.299  12.415  19.861  0.00  0.00    +0.000 OA
ATOM     26  N   UNL     1      -1.079  11.419  21.963  0.00  0.00    +0.000 N 
ATOM     27  H   UNL     1      -0.632  10.626  22.410  0.00  0.00    +0.000 HD
BRANCH  26  28
ATOM     28  C   UNL     1      -1.655  12.394  22.791  0.00  0.00    +0.000 A 
ATOM     29  C   UNL     1      -0.985  13.558  23.174  0.00  0.00    +0.000 A 
ATOM     30  C   UNL     1      -1.605  14.489  24.008  0.00  0.00    +0.000 A 
ATOM     31  C   UNL     1      -2.898  14.260  24.468  0.00  0.00    +0.000 A 
ATOM     32  C   UNL     1      -3.581  13.108  24.076  0.00  0.00    +0.000 A 
ATOM     33  C   UNL     1      -2.967  12.183  23.230  0.00  0.00    +0.000 A 
ENDBRANCH  26  28
ENDBRANCH  23  24
ENDBRANCH  22  23
ENDBRANCH   4  22
TORSDOF 5
ENDMDL
MODEL 8
REMARK VINA RESULT:      -8.0      1.238      1.616
REMARK  Name = 
REMARK  7 active torsions:
REMARK  status: ('A' for Active; 'I' for Inactive)
REMARK    1  A    between atoms: C_1  and  C_2
REMARK    2  A    between atoms: C_2  and  C_3
REMARK    3  A    between atoms: N_10  and  C_11
REMARK    4  A    between atoms: C_14  and  O_15
REMARK    5  A    between atoms: O_15  and  C_16
REMARK    6  A    between atoms: C_16  and  C_17
REMARK    7  A    between atoms: N_19  and  C_20
REMARK                            x       y       z     vdW  Elec       q    Type
REMARK                         _______ _______ _______ _____ _____    ______ ____
ROOT
ATOM      1  C   UNL     1       2.554   6.192  19.416  0.00  0.00    +0.000 A 
ATOM      2  C   UNL     1       2.520   7.081  18.341  0.00  0.00    +0.000 A 
ATOM      3  C   UNL     1       2.137   8.412  18.477  0.00  0.00    +0.000 A 
ATOM      4  C   UNL     1       1.622   8.875  19.682  0.00  0.00    +0.000 A 
ATOM      5  C   UNL     1       1.603   8.004  20.774  0.00  0.00    +0.000 A 
ATOM      6 CL   UNL     1       0.919   8.489  22.287  0.00  0.00    +0.000 Cl
ATOM      7  C   UNL     1       2.096   6.695  20.651  0.00  0.00    +0.000 A 
ENDROOT
BRANCH   1  17
ATOM      8  C   UNL     1       1.337   4.143  17.506  0.00  0.00    +0.000 C 
ATOM      9  C   UNL     1       1.953   3.821  18.882  0.00  0.00    +0.000 C 
ATOM     10  C   UNL     1       0.807   3.678  19.905  0.00  0.00    +0.000 C 
ATOM     11  N   UNL     1       2.457   2.450  18.789  0.00  0.00    +0.000 NA
ATOM     12  C   UNL     1       3.722   2.271  18.716  0.00  0.00    +0.000 C 
ATOM     13  N   UNL     1       4.187   1.001  18.663  0.00  0.00    +0.000 N 
ATOM     14  N   UNL     1       4.644   3.256  18.660  0.00  0.00    +0.000 NA
ATOM     15  C   UNL     1       4.263   4.460  18.934  0.00  0.00    +0.000 C 
ATOM     16  N   UNL     1       5.253   5.397  18.956  0.00  0.00    +0.000 N 
ATOM     17  N   UNL     1       2.974   4.850  19.232  0.00  0.00    +0.000 N 
ATOM     18  H   UNL     1       3.483   0.346  18.354  0.00  0.00    +0.000 HD
ATOM     19  H   UNL     1       5.074   0.933  18.181  0.00  0.00    +0.000 HD
ATOM     20  H   UNL     1       6.164   4.954  18.899  0.00  0.00    +0.000 HD
ATOM     21  H   UNL     1       5.198   6.041  19.735  0.00  0.00    +0.000 HD
ENDBRANCH   1  17
BRANCH   4  22
ATOM     22  O   UNL     1       1.108  10.138  19.831  0.00  0.00    +0.000 OA
BRANCH  22  23
ATOM     23  C   UNL     1       1.189  10.946  18.658  0.00  0.00    +0.000 C 
BRANCH  23  24
ATOM     24  C   UNL     1      -0.130  11.597  18.276  0.00  0.00    +0.000 C 
ATOM     25  O   UNL     1      -0.203  12.822  18.211  0.00  0.00    +0.000 OA
ATOM     26  N   UNL     1      -1.131  10.685  18.030  0.00  0.00    +0.000 N 
ATOM     27  H   UNL     1      -0.933   9.722  18.282  0.00  0.00    +0.000 HD
BRANCH  26  28
ATOM     28  C   UNL     1      -2.416  10.982  17.550  0.00  0.00    +0.000 A 
ATOM     29  C   UNL     1      -2.798  10.773  16.223  0.00  0.00    +0.000 A 
ATOM     30  C   UNL     1      -4.087  11.096  15.800  0.00  0.00    +0.000 A 
ATOM     31  C   UNL     1      -5.002  11.634  16.700  0.00  0.00    +0.000 A 
ATOM     32  C   UNL     1      -4.633  11.828  18.032  0.00  0.00    +0.000 A 
ATOM     33  C   UNL     1      -3.348  11.492  18.460  0.00  0.00    +0.000 A 
ENDBRANCH  26  28
ENDBRANCH  23  24
ENDBRANCH  22  23
ENDBRANCH   4  22
TORSDOF 5
ENDMDL
MODEL 9
REMARK VINA RESULT:      -8.0      5.991      8.389
REMARK  Name = 
REMARK  7 active torsions:
REMARK  status: ('A' for Active; 'I' for Inactive)
REMARK    1  A    between atoms: C_1  and  C_2
REMARK    2  A    between atoms: C_2  and  C_3
REMARK    3  A    between atoms: N_10  and  C_11
REMARK    4  A    between atoms: C_14  and  O_15
REMARK    5  A    between atoms: O_15  and  C_16
REMARK    6  A    between atoms: C_16  and  C_17
REMARK    7  A    between atoms: N_19  and  C_20
REMARK                            x       y       z     vdW  Elec       q    Type
REMARK                         _______ _______ _______ _____ _____    ______ ____
ROOT
ATOM      1  C   UNL     1       4.962   5.008  18.278  0.00  0.00    +0.000 A 
ATOM      2  C   UNL     1       4.997   6.064  17.365  0.00  0.00    +0.000 A 
ATOM      3  C   UNL     1       6.107   6.889  17.212  0.00  0.00    +0.000 A 
ATOM      4  C   UNL     1       7.186   6.785  18.083  0.00  0.00    +0.000 A 
ATOM      5  C   UNL     1       7.172   5.764  19.037  0.00  0.00    +0.000 A 
ATOM      6 CL   UNL     1       8.449   5.612  20.194  0.00  0.00    +0.000 Cl
ATOM      7  C   UNL     1       6.093   4.869  19.108  0.00  0.00    +0.000 A 
ENDROOT
BRANCH   1  17
ATOM      8  C   UNL     1       2.050   5.874  17.970  0.00  0.00    +0.000 C 
ATOM      9  C   UNL     1       2.554   4.766  18.917  0.00  0.00    +0.000 C 
ATOM     10  C   UNL     1       2.671   5.359  20.337  0.00  0.00    +0.000 C 
ATOM     11  N   UNL     1       1.444   3.824  19.066  0.00  0.00    +0.000 NA
ATOM     12  C   UNL     1       1.524   2.691  18.476  0.00  0.00    +0.000 C 
ATOM     13  N   UNL     1       0.511   1.809  18.642  0.00  0.00    +0.000 N 
ATOM     14  N   UNL     1       2.536   2.306  17.670  0.00  0.00    +0.000 NA
ATOM     15  C   UNL     1       3.615   3.017  17.668  0.00  0.00    +0.000 C 
ATOM     16  N   UNL     1       4.637   2.529  16.910  0.00  0.00    +0.000 N 
ATOM     17  N   UNL     1       3.816   4.180  18.382  0.00  0.00    +0.000 N 
ATOM     18  H   UNL     1      -0.345   2.258  18.938  0.00  0.00    +0.000 HD
ATOM     19  H   UNL     1       0.413   1.179  17.857  0.00  0.00    +0.000 HD
ATOM     20  H   UNL     1       4.425   1.591  16.587  0.00  0.00    +0.000 HD
ATOM     21  H   UNL     1       5.544   2.574  17.356  0.00  0.00    +0.000 HD
ENDBRANCH   1  17
BRANCH   4  22
ATOM     22  O   UNL     1       8.244   7.658  18.059  0.00  0.00    +0.000 OA
BRANCH  22  23
ATOM     23  C   UNL     1       7.880   9.012  17.796  0.00  0.00    +0.000 C 
BRANCH  23  24
ATOM     24  C   UNL     1       8.788  10.027  18.469  0.00  0.00    +0.000 C 
ATOM     25  O   UNL     1       9.363   9.726  19.513  0.00  0.00    +0.000 OA
ATOM     26  N   UNL     1       8.865  11.220  17.787  0.00  0.00    +0.000 N 
ATOM     27  H   UNL     1       8.204  11.346  17.028  0.00  0.00    +0.000 HD
BRANCH  26  28
ATOM     28  C   UNL     1       9.707  12.297  18.103  0.00  0.00    +0.000 A 
ATOM     29  C   UNL     1      10.978  12.456  17.546  0.00  0.00    +0.000 A 
ATOM     30  C   UNL     1      11.776  13.542  17.905  0.00  0.00    +0.000 A 
ATOM     31  C   UNL     1      11.310  14.475  18.826  0.00  0.00    +0.000 A 
ATOM     32  C   UNL     1      10.034  14.333  19.373  0.00  0.00    +0.000 A 
ATOM     33  C   UNL     1       9.229  13.254  19.004  0.00  0.00    +0.000 A 
ENDBRANCH  26  28
ENDBRANCH  23  24
ENDBRANCH  22  23
ENDBRANCH   4  22
TORSDOF 5
ENDMDL
