MODEL 1
REMARK VINA RESULT:      -6.9      0.000      0.000
REMARK  Name = 
REMARK  10 active torsions:
REMARK  status: ('A' for Active; 'I' for Inactive)
REMARK    1  A    between atoms: C_1  and  C_2
REMARK    2  A    between atoms: C_2  and  C_3
REMARK    3  A    between atoms: N_5  and  P_6
REMARK    4  A    between atoms: P_6  and  O_8
REMARK    5  A    between atoms: P_6  and  N_19
REMARK    6  A    between atoms: O_8  and  C_9
REMARK    7  A    between atoms: C_9  and  C_10
REMARK    8  A    between atoms: C_10  and  N_11
REMARK    9  A    between atoms: C_21  and  C_22
REMARK   10  A    between atoms: C_21  and  C_23
REMARK                            x       y       z     vdW  Elec       q    Type
REMARK                         _______ _______ _______ _____ _____    ______ ____
ROOT
ATOM      1  P   UNL     1       4.353   4.726  18.562  0.00  0.00    +0.000 P 
ATOM      2  O   UNL     1       4.072   5.219  17.128  0.00  0.00    +0.000 OA
ENDROOT
BRANCH   1   7
ATOM      3  C   UNL     1       3.207   2.632  20.746  0.00  0.00    +0.000 C 
ATOM      4  C   UNL     1       2.430   2.792  19.478  0.00  0.00    +0.000 C 
ATOM      5  C   UNL     1       0.930   2.840  19.657  0.00  0.00    +0.000 C 
ATOM      6  C   UNL     1       2.974   2.202  18.167  0.00  0.00    +0.000 C 
ATOM      7  N   UNL     1       2.962   3.625  18.417  0.00  0.00    +0.000 NA
ENDBRANCH   1   7
BRANCH   1   8
ATOM      8  N   UNL     1       5.743   5.827  18.708  0.00  0.00    +0.000 NA
ATOM      9  C   UNL     1       6.937   5.484  19.468  0.00  0.00    +0.000 C 
ATOM     10  C   UNL     1       7.011   5.725  17.967  0.00  0.00    +0.000 C 
ATOM     11  C   UNL     1       7.373   4.559  17.087  0.00  0.00    +0.000 C 
ATOM     12  C   UNL     1       7.566   7.042  17.482  0.00  0.00    +0.000 C 
ENDBRANCH   1   8
BRANCH   1  13
ATOM     13  O   UNL     1       3.457   5.711  19.623  0.00  0.00    +0.000 OA
BRANCH  13  14
ATOM     14  C   UNL     1       2.672   6.817  19.147  0.00  0.00    +0.000 C 
BRANCH  14  15
ATOM     15  C   UNL     1       1.895   7.526  20.270  0.00  0.00    +0.000 C 
BRANCH  15  16
ATOM     16  N   UNL     1       1.314   8.808  19.879  0.00  0.00    +0.000 N 
ATOM     17  C   UNL     1       1.248   9.301  18.593  0.00  0.00    +0.000 A 
ATOM     18  C   UNL     1       0.612  10.522  18.690  0.00  0.00    +0.000 A 
ATOM     19  N   UNL     1       0.291  10.797  19.997  0.00  0.00    +0.000 NA
ATOM     20  C   UNL     1       0.748   9.771  20.672  0.00  0.00    +0.000 A 
ATOM     21  N   UNL     1       0.668   9.669  22.096  0.00  0.00    +0.000 N 
ATOM     22  O   UNL     1       1.721   9.406  22.692  0.00  0.00    +0.000 OA
ATOM     23  O   UNL     1      -0.451   9.787  22.608  0.00  0.00    +0.000 OA
ENDBRANCH  15  16
ENDBRANCH  14  15
ENDBRANCH  13  14
ENDBRANCH   1  13
TORSDOF 6
ENDMDL
MODEL 2
REMARK VINA RESULT:      -6.9      1.454      1.828
REMARK  Name = 
REMARK  10 active torsions:
REMARK  status: ('A' for Active; 'I' for Inactive)
REMARK    1  A    between atoms: C_1  and  C_2
REMARK    2  A    between atoms: C_2  and  C_3
REMARK    3  A    between atoms: N_5  and  P_6
REMARK    4  A    between atoms: P_6  and  O_8
REMARK    5  A    between atoms: P_6  and  N_19
REMARK    6  A    between atoms: O_8  and  C_9
REMARK    7  A    between atoms: C_9  and  C_10
REMARK    8  A    between atoms: C_10  and  N_11
REMARK    9  A    between atoms: C_21  and  C_22
REMARK   10  A    between atoms: C_21  and  C_23
REMARK                            x       y       z     vdW  Elec       q    Type
REMARK                         _______ _______ _______ _____ _____    ______ ____
ROOT
ATOM      1  P   UNL     1       3.474   3.892  17.701  0.00  0.00    +0.000 P 
ATOM      2  O   UNL     1       2.454   3.312  16.700  0.00  0.00    +0.000 OA
ENDROOT
BRANCH   1   7
ATOM      3  C   UNL     1       4.303   2.202  20.333  0.00  0.00    +0.000 C 
ATOM      4  C   UNL     1       2.887   2.675  20.241  0.00  0.00    +0.000 C 
ATOM      5  C   UNL     1       2.316   3.216  21.531  0.00  0.00    +0.000 C 
ATOM      6  C   UNL     1       1.916   2.001  19.258  0.00  0.00    +0.000 C 
ATOM      7  N   UNL     1       2.432   3.331  19.031  0.00  0.00    +0.000 NA
ENDBRANCH   1   7
BRANCH   1   8
ATOM      8  N   UNL     1       4.516   4.452  16.372  0.00  0.00    +0.000 NA
ATOM      9  C   UNL     1       4.979   5.829  16.267  0.00  0.00    +0.000 C 
ATOM     10  C   UNL     1       5.967   4.685  16.447  0.00  0.00    +0.000 C 
ATOM     11  C   UNL     1       6.756   4.636  17.728  0.00  0.00    +0.000 C 
ATOM     12  C   UNL     1       6.745   4.218  15.241  0.00  0.00    +0.000 C 
ENDBRANCH   1   8
BRANCH   1  13
ATOM     13  O   UNL     1       3.014   5.498  18.023  0.00  0.00    +0.000 OA
BRANCH  13  14
ATOM     14  C   UNL     1       3.339   6.143  19.266  0.00  0.00    +0.000 C 
BRANCH  14  15
ATOM     15  C   UNL     1       2.135   6.862  19.900  0.00  0.00    +0.000 C 
BRANCH  15  16
ATOM     16  N   UNL     1       1.859   8.180  19.333  0.00  0.00    +0.000 N 
ATOM     17  C   UNL     1       2.235   8.610  18.078  0.00  0.00    +0.000 A 
ATOM     18  C   UNL     1       1.756   9.899  17.962  0.00  0.00    +0.000 A 
ATOM     19  N   UNL     1       1.102  10.276  19.109  0.00  0.00    +0.000 NA
ATOM     20  C   UNL     1       1.209   9.241  19.906  0.00  0.00    +0.000 A 
ATOM     21  N   UNL     1       0.702   9.223  21.243  0.00  0.00    +0.000 N 
ATOM     22  O   UNL     1       1.491   8.873  22.130  0.00  0.00    +0.000 OA
ATOM     23  O   UNL     1      -0.495   9.494  21.396  0.00  0.00    +0.000 OA
ENDBRANCH  15  16
ENDBRANCH  14  15
ENDBRANCH  13  14
ENDBRANCH   1  13
TORSDOF 6
ENDMDL
MODEL 3
REMARK VINA RESULT:      -6.9      1.468      1.535
REMARK  Name = 
REMARK  10 active torsions:
REMARK  status: ('A' for Active; 'I' for Inactive)
REMARK    1  A    between atoms: C_1  and  C_2
REMARK    2  A    between atoms: C_2  and  C_3
REMARK    3  A    between atoms: N_5  and  P_6
REMARK    4  A    between atoms: P_6  and  O_8
REMARK    5  A    between atoms: P_6  and  N_19
REMARK    6  A    between atoms: O_8  and  C_9
REMARK    7  A    between atoms: C_9  and  C_10
REMARK    8  A    between atoms: C_10  and  N_11
REMARK    9  A    between atoms: C_21  and  C_22
REMARK   10  A    between atoms: C_21  and  C_23
REMARK                            x       y       z     vdW  Elec       q    Type
REMARK                         _______ _______ _______ _____ _____    ______ ____
ROOT
ATOM      1  P   UNL     1       3.002   4.810  18.691  0.00  0.00    +0.000 P 
ATOM      2  O   UNL     1       1.937   5.052  17.602  0.00  0.00    +0.000 OA
ENDROOT
BRANCH   1   7
ATOM      3  C   UNL     1       3.646   2.271  20.590  0.00  0.00    +0.000 C 
ATOM      4  C   UNL     1       2.213   2.674  20.449  0.00  0.00    +0.000 C 
ATOM      5  C   UNL     1       1.417   2.641  21.733  0.00  0.00    +0.000 C 
ATOM      6  C   UNL     1       1.463   2.389  19.137  0.00  0.00    +0.000 C 
ATOM      7  N   UNL     1       1.857   3.726  19.517  0.00  0.00    +0.000 NA
ENDBRANCH   1   7
BRANCH   1   8
ATOM      8  N   UNL     1       4.146   5.893  17.865  0.00  0.00    +0.000 NA
ATOM      9  C   UNL     1       5.583   5.840  18.099  0.00  0.00    +0.000 C 
ATOM     10  C   UNL     1       5.004   5.540  16.723  0.00  0.00    +0.000 C 
ATOM     11  C   UNL     1       5.152   4.140  16.191  0.00  0.00    +0.000 C 
ATOM     12  C   UNL     1       5.108   6.604  15.658  0.00  0.00    +0.000 C 
ENDBRANCH   1   8
BRANCH   1  13
ATOM     13  O   UNL     1       2.763   5.979  19.904  0.00  0.00    +0.000 OA
BRANCH  13  14
ATOM     14  C   UNL     1       2.277   7.298  19.599  0.00  0.00    +0.000 C 
BRANCH  14  15
ATOM     15  C   UNL     1       1.516   7.940  20.772  0.00  0.00    +0.000 C 
BRANCH  15  16
ATOM     16  N   UNL     1       0.879   9.214  20.447  0.00  0.00    +0.000 N 
ATOM     17  C   UNL     1       0.817   9.784  19.192  0.00  0.00    +0.000 A 
ATOM     18  C   UNL     1       0.118  10.964  19.349  0.00  0.00    +0.000 A 
ATOM     19  N   UNL     1      -0.245  11.140  20.662  0.00  0.00    +0.000 NA
ATOM     20  C   UNL     1       0.248  10.097  21.284  0.00  0.00    +0.000 A 
ATOM     21  N   UNL     1       0.142   9.901  22.696  0.00  0.00    +0.000 N 
ATOM     22  O   UNL     1       1.193   9.652  23.301  0.00  0.00    +0.000 OA
ATOM     23  O   UNL     1      -0.993   9.932  23.186  0.00  0.00    +0.000 OA
ENDBRANCH  15  16
ENDBRANCH  14  15
ENDBRANCH  13  14
ENDBRANCH   1  13
TORSDOF 6
ENDMDL
MODEL 4
REMARK VINA RESULT:      -6.8      1.041      3.968
REMARK  Name = 
REMARK  10 active torsions:
REMARK  status: ('A' for Active; 'I' for Inactive)
REMARK    1  A    between atoms: C_1  and  C_2
REMARK    2  A    between atoms: C_2  and  C_3
REMARK    3  A    between atoms: N_5  and  P_6
REMARK    4  A    between atoms: P_6  and  O_8
REMARK    5  A    between atoms: P_6  and  N_19
REMARK    6  A    between atoms: O_8  and  C_9
REMARK    7  A    between atoms: C_9  and  C_10
REMARK    8  A    between atoms: C_10  and  N_11
REMARK    9  A    between atoms: C_21  and  C_22
REMARK   10  A    between atoms: C_21  and  C_23
REMARK                            x       y       z     vdW  Elec       q    Type
REMARK                         _______ _______ _______ _____ _____    ______ ____
ROOT
ATOM      1  P   UNL     1       4.114   4.861  18.453  0.00  0.00    +0.000 P 
ATOM      2  O   UNL     1       4.569   3.924  19.590  0.00  0.00    +0.000 OA
ENDROOT
BRANCH   1   7
ATOM      3  C   UNL     1       5.424   6.393  15.922  0.00  0.00    +0.000 C 
ATOM      4  C   UNL     1       6.321   6.097  17.083  0.00  0.00    +0.000 C 
ATOM      5  C   UNL     1       7.265   7.216  17.455  0.00  0.00    +0.000 C 
ATOM      6  C   UNL     1       6.787   4.654  17.341  0.00  0.00    +0.000 C 
ATOM      7  N   UNL     1       5.817   5.307  18.189  0.00  0.00    +0.000 NA
ENDBRANCH   1   7
BRANCH   1   8
ATOM      8  N   UNL     1       2.411   4.416  18.717  0.00  0.00    +0.000 NA
ATOM      9  C   UNL     1       1.468   4.244  17.621  0.00  0.00    +0.000 C 
ATOM     10  C   UNL     1       1.827   3.078  18.532  0.00  0.00    +0.000 C 
ATOM     11  C   UNL     1       2.570   1.918  17.926  0.00  0.00    +0.000 C 
ATOM     12  C   UNL     1       0.834   2.671  19.593  0.00  0.00    +0.000 C 
ENDBRANCH   1   8
BRANCH   1  13
ATOM     13  O   UNL     1       3.824   6.390  19.141  0.00  0.00    +0.000 OA
BRANCH  13  14
ATOM     14  C   UNL     1       2.654   7.159  18.813  0.00  0.00    +0.000 C 
BRANCH  14  15
ATOM     15  C   UNL     1       1.939   7.719  20.054  0.00  0.00    +0.000 C 
BRANCH  15  16
ATOM     16  N   UNL     1       1.234   8.978  19.823  0.00  0.00    +0.000 N 
ATOM     17  C   UNL     1       1.081   9.600  18.601  0.00  0.00    +0.000 A 
ATOM     18  C   UNL     1       0.344  10.740  18.849  0.00  0.00    +0.000 A 
ATOM     19  N   UNL     1       0.045  10.841  20.185  0.00  0.00    +0.000 NA
ATOM     20  C   UNL     1       0.613   9.793  20.731  0.00  0.00    +0.000 A 
ATOM     21  N   UNL     1       0.591   9.530  22.137  0.00  0.00    +0.000 N 
ATOM     22  O   UNL     1       1.682   9.301  22.674  0.00  0.00    +0.000 OA
ATOM     23  O   UNL     1      -0.517   9.490  22.685  0.00  0.00    +0.000 OA
ENDBRANCH  15  16
ENDBRANCH  14  15
ENDBRANCH  13  14
ENDBRANCH   1  13
TORSDOF 6
ENDMDL
MODEL 5
REMARK VINA RESULT:      -6.8      1.100      4.016
REMARK  Name = 
REMARK  10 active torsions:
REMARK  status: ('A' for Active; 'I' for Inactive)
REMARK    1  A    between atoms: C_1  and  C_2
REMARK    2  A    between atoms: C_2  and  C_3
REMARK    3  A    between atoms: N_5  and  P_6
REMARK    4  A    between atoms: P_6  and  O_8
REMARK    5  A    between atoms: P_6  and  N_19
REMARK    6  A    between atoms: O_8  and  C_9
REMARK    7  A    between atoms: C_9  and  C_10
REMARK    8  A    between atoms: C_10  and  N_11
REMARK    9  A    between atoms: C_21  and  C_22
REMARK   10  A    between atoms: C_21  and  C_23
REMARK                            x       y       z     vdW  Elec       q    Type
REMARK                         _______ _______ _______ _____ _____    ______ ____
ROOT
ATOM      1  P   UNL     1       4.672   4.082  18.358  0.00  0.00    +0.000 P 
ATOM      2  O   UNL     1       5.238   3.101  19.404  0.00  0.00    +0.000 OA
ENDROOT
BRANCH   1   7
ATOM      3  C   UNL     1       5.785   6.128  16.111  0.00  0.00    +0.000 C 
ATOM      4  C   UNL     1       6.683   5.829  17.270  0.00  0.00    +0.000 C 
ATOM      5  C   UNL     1       7.415   7.027  17.829  0.00  0.00    +0.000 C 
ATOM      6  C   UNL     1       7.376   4.460  17.369  0.00  0.00    +0.000 C 
ATOM      7  N   UNL     1       6.285   4.829  18.241  0.00  0.00    +0.000 NA
ENDBRANCH   1   7
BRANCH   1   8
ATOM      8  N   UNL     1       3.061   3.336  18.474  0.00  0.00    +0.000 NA
ATOM      9  C   UNL     1       2.872   1.900  18.628  0.00  0.00    +0.000 C 
ATOM     10  C   UNL     1       2.410   2.869  19.708  0.00  0.00    +0.000 C 
ATOM     11  C   UNL     1       3.098   2.808  21.045  0.00  0.00    +0.000 C 
ATOM     12  C   UNL     1       0.936   3.182  19.801  0.00  0.00    +0.000 C 
ENDBRANCH   1   8
BRANCH   1  13
ATOM     13  O   UNL     1       4.105   5.449  19.196  0.00  0.00    +0.000 OA
BRANCH  13  14
ATOM     14  C   UNL     1       3.023   6.252  18.692  0.00  0.00    +0.000 C 
BRANCH  14  15
ATOM     15  C   UNL     1       2.305   7.048  19.796  0.00  0.00    +0.000 C 
BRANCH  15  16
ATOM     16  N   UNL     1       1.779   8.339  19.356  0.00  0.00    +0.000 N 
ATOM     17  C   UNL     1       1.994   8.916  18.123  0.00  0.00    +0.000 A 
ATOM     18  C   UNL     1       1.303  10.111  18.141  0.00  0.00    +0.000 A 
ATOM     19  N   UNL     1       0.676  10.288  19.349  0.00  0.00    +0.000 NA
ATOM     20  C   UNL     1       1.004   9.230  20.050  0.00  0.00    +0.000 A 
ATOM     21  N   UNL     1       0.598   9.029  21.406  0.00  0.00    +0.000 N 
ATOM     22  O   UNL     1       1.492   8.754  22.217  0.00  0.00    +0.000 OA
ATOM     23  O   UNL     1      -0.614   9.083  21.646  0.00  0.00    +0.000 OA
ENDBRANCH  15  16
ENDBRANCH  14  15
ENDBRANCH  13  14
ENDBRANCH   1  13
TORSDOF 6
ENDMDL
MODEL 6
REMARK VINA RESULT:      -6.8      0.861      1.065
REMARK  Name = 
REMARK  10 active torsions:
REMARK  status: ('A' for Active; 'I' for Inactive)
REMARK    1  A    between atoms: C_1  and  C_2
REMARK    2  A    between atoms: C_2  and  C_3
REMARK    3  A    between atoms: N_5  and  P_6
REMARK    4  A    between atoms: P_6  and  O_8
REMARK    5  A    between atoms: P_6  and  N_19
REMARK    6  A    between atoms: O_8  and  C_9
REMARK    7  A    between atoms: C_9  and  C_10
REMARK    8  A    between atoms: C_10  and  N_11
REMARK    9  A    between atoms: C_21  and  C_22
REMARK   10  A    between atoms: C_21  and  C_23
REMARK                            x       y       z     vdW  Elec       q    Type
REMARK                         _______ _______ _______ _____ _____    ______ ____
ROOT
ATOM      1  P   UNL     1       4.689   4.112  18.607  0.00  0.00    +0.000 P 
ATOM      2  O   UNL     1       4.607   4.259  17.074  0.00  0.00    +0.000 OA
ENDROOT
BRANCH   1   7
ATOM      3  C   UNL     1       3.043   2.641  20.971  0.00  0.00    +0.000 C 
ATOM      4  C   UNL     1       2.278   3.035  19.748  0.00  0.00    +0.000 C 
ATOM      5  C   UNL     1       0.915   3.629  20.017  0.00  0.00    +0.000 C 
ATOM      6  C   UNL     1       2.468   2.250  18.440  0.00  0.00    +0.000 C 
ATOM      7  N   UNL     1       2.988   3.587  18.611  0.00  0.00    +0.000 NA
ENDBRANCH   1   7
BRANCH   1   8
ATOM      8  N   UNL     1       6.389   4.637  18.603  0.00  0.00    +0.000 NA
ATOM      9  C   UNL     1       7.262   4.455  17.451  0.00  0.00    +0.000 C 
ATOM     10  C   UNL     1       6.921   5.849  17.960  0.00  0.00    +0.000 C 
ATOM     11  C   UNL     1       6.109   6.743  17.062  0.00  0.00    +0.000 C 
ATOM     12  C   UNL     1       7.960   6.588  18.767  0.00  0.00    +0.000 C 
ENDBRANCH   1   8
BRANCH   1  13
ATOM     13  O   UNL     1       4.226   5.602  19.286  0.00  0.00    +0.000 OA
BRANCH  13  14
ATOM     14  C   UNL     1       3.125   6.364  18.761  0.00  0.00    +0.000 C 
BRANCH  14  15
ATOM     15  C   UNL     1       2.333   7.101  19.855  0.00  0.00    +0.000 C 
BRANCH  15  16
ATOM     16  N   UNL     1       1.717   8.349  19.410  0.00  0.00    +0.000 N 
ATOM     17  C   UNL     1       1.825   8.893  18.147  0.00  0.00    +0.000 A 
ATOM     18  C   UNL     1       1.080  10.054  18.172  0.00  0.00    +0.000 A 
ATOM     19  N   UNL     1       0.522  10.243  19.413  0.00  0.00    +0.000 NA
ATOM     20  C   UNL     1       0.946   9.228  20.124  0.00  0.00    +0.000 A 
ATOM     21  N   UNL     1       0.638   9.056  21.510  0.00  0.00    +0.000 N 
ATOM     22  O   UNL     1       1.594   8.850  22.269  0.00  0.00    +0.000 OA
ATOM     23  O   UNL     1      -0.558   9.061  21.827  0.00  0.00    +0.000 OA
ENDBRANCH  15  16
ENDBRANCH  14  15
ENDBRANCH  13  14
ENDBRANCH   1  13
TORSDOF 6
ENDMDL
MODEL 7
REMARK VINA RESULT:      -6.7      1.853      2.377
REMARK  Name = 
REMARK  10 active torsions:
REMARK  status: ('A' for Active; 'I' for Inactive)
REMARK    1  A    between atoms: C_1  and  C_2
REMARK    2  A    between atoms: C_2  and  C_3
REMARK    3  A    between atoms: N_5  and  P_6
REMARK    4  A    between atoms: P_6  and  O_8
REMARK    5  A    between atoms: P_6  and  N_19
REMARK    6  A    between atoms: O_8  and  C_9
REMARK    7  A    between atoms: C_9  and  C_10
REMARK    8  A    between atoms: C_10  and  N_11
REMARK    9  A    between atoms: C_21  and  C_22
REMARK   10  A    between atoms: C_21  and  C_23
REMARK                            x       y       z     vdW  Elec       q    Type
REMARK                         _______ _______ _______ _____ _____    ______ ____
ROOT
ATOM      1  P   UNL     1       3.669   4.535  17.930  0.00  0.00    +0.000 P 
ATOM      2  O   UNL     1       3.058   3.614  16.854  0.00  0.00    +0.000 OA
ENDROOT
BRANCH   1   7
ATOM      3  C   UNL     1       4.299   2.265  20.147  0.00  0.00    +0.000 C 
ATOM      4  C   UNL     1       2.936   2.882  20.168  0.00  0.00    +0.000 C 
ATOM      5  C   UNL     1       2.405   3.197  21.546  0.00  0.00    +0.000 C 
ATOM      6  C   UNL     1       1.917   2.524  19.074  0.00  0.00    +0.000 C 
ATOM      7  N   UNL     1       2.562   3.815  19.123  0.00  0.00    +0.000 NA
ENDBRANCH   1   7
BRANCH   1   8
ATOM      8  N   UNL     1       4.777   5.255  16.737  0.00  0.00    +0.000 NA
ATOM      9  C   UNL     1       5.496   6.497  16.986  0.00  0.00    +0.000 C 
ATOM     10  C   UNL     1       6.246   5.190  16.770  0.00  0.00    +0.000 C 
ATOM     11  C   UNL     1       7.033   4.634  17.925  0.00  0.00    +0.000 C 
ATOM     12  C   UNL     1       6.897   4.956  15.428  0.00  0.00    +0.000 C 
ENDBRANCH   1   8
BRANCH   1  13
ATOM     13  O   UNL     1       2.753   5.969  17.951  0.00  0.00    +0.000 OA
BRANCH  13  14
ATOM     14  C   UNL     1       2.501   6.688  19.171  0.00  0.00    +0.000 C 
BRANCH  14  15
ATOM     15  C   UNL     1       2.065   8.143  18.928  0.00  0.00    +0.000 C 
BRANCH  15  16
ATOM     16  N   UNL     1       1.296   8.728  20.024  0.00  0.00    +0.000 N 
ATOM     17  C   UNL     1       1.263   8.261  21.321  0.00  0.00    +0.000 A 
ATOM     18  C   UNL     1       0.429   9.120  22.009  0.00  0.00    +0.000 A 
ATOM     19  N   UNL     1      -0.056  10.095  21.174  0.00  0.00    +0.000 NA
ATOM     20  C   UNL     1       0.459   9.813  20.002  0.00  0.00    +0.000 A 
ATOM     21  N   UNL     1       0.171  10.559  18.817  0.00  0.00    +0.000 N 
ATOM     22  O   UNL     1      -0.194   9.910  17.828  0.00  0.00    +0.000 OA
ATOM     23  O   UNL     1       0.372  11.779  18.856  0.00  0.00    +0.000 OA
ENDBRANCH  15  16
ENDBRANCH  14  15
ENDBRANCH  13  14
ENDBRANCH   1  13
TORSDOF 6
ENDMDL
MODEL 8
REMARK VINA RESULT:      -6.7      2.701      5.801
REMARK  Name = 
REMARK  10 active torsions:
REMARK  status: ('A' for Active; 'I' for Inactive)
REMARK    1  A    between atoms: C_1  and  C_2
REMARK    2  A    between atoms: C_2  and  C_3
REMARK    3  A    between atoms: N_5  and  P_6
REMARK    4  A    between atoms: P_6  and  O_8
REMARK    5  A    between atoms: P_6  and  N_19
REMARK    6  A    between atoms: O_8  and  C_9
REMARK    7  A    between atoms: C_9  and  C_10
REMARK    8  A    between atoms: C_10  and  N_11
REMARK    9  A    between atoms: C_21  and  C_22
REMARK   10  A    between atoms: C_21  and  C_23
REMARK                            x       y       z     vdW  Elec       q    Type
REMARK                         _______ _______ _______ _____ _____    ______ ____
ROOT
ATOM      1  P   UNL     1       3.675   5.940  17.833  0.00  0.00    +0.000 P 
ATOM      2  O   UNL     1       4.252   5.908  19.262  0.00  0.00    +0.000 OA
ENDROOT
BRANCH   1   7
ATOM      3  C   UNL     1       3.120   9.127  17.806  0.00  0.00    +0.000 C 
ATOM      4  C   UNL     1       2.024   8.246  18.316  0.00  0.00    +0.000 C 
ATOM      5  C   UNL     1       0.637   8.631  17.857  0.00  0.00    +0.000 C 
ATOM      6  C   UNL     1       2.159   7.575  19.693  0.00  0.00    +0.000 C 
ATOM      7  N   UNL     1       2.263   6.824  18.463  0.00  0.00    +0.000 NA
ENDBRANCH   1   7
BRANCH   1   8
ATOM      8  N   UNL     1       5.084   5.056  17.203  0.00  0.00    +0.000 NA
ATOM      9  C   UNL     1       5.618   5.283  15.866  0.00  0.00    +0.000 C 
ATOM     10  C   UNL     1       6.458   5.574  17.102  0.00  0.00    +0.000 C 
ATOM     11  C   UNL     1       6.833   7.007  17.372  0.00  0.00    +0.000 C 
ATOM     12  C   UNL     1       7.534   4.587  17.482  0.00  0.00    +0.000 C 
ENDBRANCH   1   8
BRANCH   1  13
ATOM     13  O   UNL     1       2.712   4.550  17.642  0.00  0.00    +0.000 OA
BRANCH  13  14
ATOM     14  C   UNL     1       3.289   3.263  17.357  0.00  0.00    +0.000 C 
BRANCH  14  15
ATOM     15  C   UNL     1       2.663   2.130  18.188  0.00  0.00    +0.000 C 
BRANCH  15  16
ATOM     16  N   UNL     1       2.380   2.491  19.576  0.00  0.00    +0.000 N 
ATOM     17  C   UNL     1       1.151   2.868  20.073  0.00  0.00    +0.000 A 
ATOM     18  C   UNL     1       1.345   3.099  21.420  0.00  0.00    +0.000 A 
ATOM     19  N   UNL     1       2.656   2.882  21.764  0.00  0.00    +0.000 NA
ATOM     20  C   UNL     1       3.242   2.550  20.639  0.00  0.00    +0.000 A 
ATOM     21  N   UNL     1       4.642   2.282  20.532  0.00  0.00    +0.000 N 
ATOM     22  O   UNL     1       5.256   2.891  19.646  0.00  0.00    +0.000 OA
ATOM     23  O   UNL     1       5.111   1.420  21.285  0.00  0.00    +0.000 OA
ENDBRANCH  15  16
ENDBRANCH  14  15
ENDBRANCH  13  14
ENDBRANCH   1  13
TORSDOF 6
ENDMDL
MODEL 9
REMARK VINA RESULT:      -6.7      1.716      4.435
REMARK  Name = 
REMARK  10 active torsions:
REMARK  status: ('A' for Active; 'I' for Inactive)
REMARK    1  A    between atoms: C_1  and  C_2
REMARK    2  A    between atoms: C_2  and  C_3
REMARK    3  A    between atoms: N_5  and  P_6
REMARK    4  A    between atoms: P_6  and  O_8
REMARK    5  A    between atoms: P_6  and  N_19
REMARK    6  A    between atoms: O_8  and  C_9
REMARK    7  A    between atoms: C_9  and  C_10
REMARK    8  A    between atoms: C_10  and  N_11
REMARK    9  A    between atoms: C_21  and  C_22
REMARK   10  A    between atoms: C_21  and  C_23
REMARK                            x       y       z     vdW  Elec       q    Type
REMARK                         _______ _______ _______ _____ _____    ______ ____
ROOT
ATOM      1  P   UNL     1       4.545   4.396  18.521  0.00  0.00    +0.000 P 
ATOM      2  O   UNL     1       5.288   3.474  19.509  0.00  0.00    +0.000 OA
ENDROOT
BRANCH   1   7
ATOM      3  C   UNL     1       7.415   4.625  17.045  0.00  0.00    +0.000 C 
ATOM      4  C   UNL     1       7.036   5.729  17.981  0.00  0.00    +0.000 C 
ATOM      5  C   UNL     1       7.373   7.117  17.491  0.00  0.00    +0.000 C 
ATOM      6  C   UNL     1       7.052   5.484  19.499  0.00  0.00    +0.000 C 
ATOM      7  N   UNL     1       5.818   5.617  18.759  0.00  0.00    +0.000 NA
ENDBRANCH   1   7
BRANCH   1   8
ATOM      8  N   UNL     1       3.272   3.176  18.283  0.00  0.00    +0.000 NA
ATOM      9  C   UNL     1       3.476   1.763  18.573  0.00  0.00    +0.000 C 
ATOM     10  C   UNL     1       2.439   2.575  19.336  0.00  0.00    +0.000 C 
ATOM     11  C   UNL     1       2.666   2.794  20.808  0.00  0.00    +0.000 C 
ATOM     12  C   UNL     1       0.986   2.400  18.969  0.00  0.00    +0.000 C 
ENDBRANCH   1   8
BRANCH   1  13
ATOM     13  O   UNL     1       3.467   5.349  19.429  0.00  0.00    +0.000 OA
BRANCH  13  14
ATOM     14  C   UNL     1       2.351   6.021  18.818  0.00  0.00    +0.000 C 
BRANCH  14  15
ATOM     15  C   UNL     1       2.497   7.552  18.827  0.00  0.00    +0.000 C 
BRANCH  15  16
ATOM     16  N   UNL     1       1.724   8.221  19.870  0.00  0.00    +0.000 N 
ATOM     17  C   UNL     1       1.541   7.758  21.157  0.00  0.00    +0.000 A 
ATOM     18  C   UNL     1       0.765   8.707  21.792  0.00  0.00    +0.000 A 
ATOM     19  N   UNL     1       0.461   9.735  20.934  0.00  0.00    +0.000 NA
ATOM     20  C   UNL     1       1.024   9.397  19.800  0.00  0.00    +0.000 A 
ATOM     21  N   UNL     1       0.914  10.175  18.605  0.00  0.00    +0.000 N 
ATOM     22  O   UNL     1       0.548   9.575  17.586  0.00  0.00    +0.000 OA
ATOM     23  O   UNL     1       1.253  11.362  18.672  0.00  0.00    +0.000 OA
ENDBRANCH  15  16
ENDBRANCH  14  15
ENDBRANCH  13  14
ENDBRANCH   1  13
TORSDOF 6
ENDMDL
