MODEL 1
REMARK VINA RESULT:      -7.6      0.000      0.000
REMARK  Name = 
REMARK  10 active torsions:
REMARK  status: ('A' for Active; 'I' for Inactive)
REMARK    1  A    between atoms: C_1  and  O_2
REMARK    2  A    between atoms: O_2  and  C_3
REMARK    3  A    between atoms: C_3  and  C_4
REMARK    4  A    between atoms: C_4  and  N_5
REMARK    5  A    between atoms: C_6  and  C_7
REMARK    6  A    between atoms: C_10  and  S_11
REMARK    7  A    between atoms: S_11  and  C_12
REMARK    8  A    between atoms: C_12  and  C_13
REMARK    9  A    between atoms: N_15  and  N_16
REMARK   10  A    between atoms: C_17  and  C_19
REMARK                            x       y       z     vdW  Elec       q    Type
REMARK                         _______ _______ _______ _____ _____    ______ ____
ROOT
ATOM      1  C   UNL     1       2.549   4.418  20.550  0.00  0.00    +0.000 C 
ATOM      2  O   UNL     1       1.640   4.046  21.293  0.00  0.00    +0.000 OA
ATOM      3  N   UNL     1       2.841   5.749  20.325  0.00  0.00    +0.000 N 
ATOM      4  H   UNL     1       3.332   6.038  19.474  0.00  0.00    +0.000 HD
ENDROOT
BRANCH   3   5
ATOM      5  N   UNL     1       2.031   6.719  20.918  0.00  0.00    +0.000 N 
ATOM      6  C   UNL     1       1.738   7.857  20.195  0.00  0.00    +0.000 C 
ATOM      7  O   UNL     1       2.119   8.049  19.044  0.00  0.00    +0.000 OA
ATOM      8  H   UNL     1       1.636   6.491  21.825  0.00  0.00    +0.000 HD
BRANCH   6   9
ATOM      9  C   UNL     1       0.889   8.866  20.881  0.00  0.00    +0.000 A 
ATOM     10  C   UNL     1       0.709   8.868  22.271  0.00  0.00    +0.000 A 
ATOM     11  C   UNL     1      -0.087   9.846  22.872  0.00  0.00    +0.000 A 
ATOM     12  C   UNL     1      -0.697  10.821  22.086  0.00  0.00    +0.000 A 
ATOM     13 BR   UNL     1      -1.774  12.142  22.904  0.00  0.00    +0.000 Br
ATOM     14  C   UNL     1      -0.514  10.838  20.704  0.00  0.00    +0.000 A 
ATOM     15  C   UNL     1       0.285   9.862  20.102  0.00  0.00    +0.000 A 
ENDBRANCH   6   9
ENDBRANCH   3   5
BRANCH   1  16
ATOM     16  C   UNL     1       3.473   3.461  19.822  0.00  0.00    +0.000 C 
BRANCH  16  17
ATOM     17  S   UNL     1       3.931   4.065  18.180  0.00  0.00    +0.000 S 
BRANCH  17  23
ATOM     18  N   UNL     1       5.816   6.040  17.826  0.00  0.00    +0.000 N 
ATOM     19  C   UNL     1       7.058   6.338  18.353  0.00  0.00    +0.000 A 
ATOM     20  C   UNL     1       7.952   7.456  17.960  0.00  0.00    +0.000 C 
ATOM     21  N   UNL     1       7.351   5.445  19.280  0.00  0.00    +0.000 NA
ATOM     22  N   UNL     1       6.334   4.533  19.342  0.00  0.00    +0.000 NA
ATOM     23  C   UNL     1       5.420   4.895  18.475  0.00  0.00    +0.000 A 
BRANCH  18  24
ATOM     24  C   UNL     1       5.116   6.745  16.774  0.00  0.00    +0.000 C 
BRANCH  24  25
ATOM     25  C   UNL     1       5.250   6.118  15.389  0.00  0.00    +0.000 C 
BRANCH  25  27
ATOM     26  C   UNL     1       6.518   4.225  14.799  0.00  0.00    +0.000 C 
ATOM     27  O   UNL     1       6.566   5.574  15.252  0.00  0.00    +0.000 OA
ENDBRANCH  25  27
ENDBRANCH  24  25
ENDBRANCH  18  24
ENDBRANCH  17  23
ENDBRANCH  16  17
ENDBRANCH   1  16
TORSDOF 8
ENDMDL
MODEL 2
REMARK VINA RESULT:      -7.6      0.906      1.376
REMARK  Name = 
REMARK  10 active torsions:
REMARK  status: ('A' for Active; 'I' for Inactive)
REMARK    1  A    between atoms: C_1  and  O_2
REMARK    2  A    between atoms: O_2  and  C_3
REMARK    3  A    between atoms: C_3  and  C_4
REMARK    4  A    between atoms: C_4  and  N_5
REMARK    5  A    between atoms: C_6  and  C_7
REMARK    6  A    between atoms: C_10  and  S_11
REMARK    7  A    between atoms: S_11  and  C_12
REMARK    8  A    between atoms: C_12  and  C_13
REMARK    9  A    between atoms: N_15  and  N_16
REMARK   10  A    between atoms: C_17  and  C_19
REMARK                            x       y       z     vdW  Elec       q    Type
REMARK                         _______ _______ _______ _____ _____    ______ ____
ROOT
ATOM      1  C   UNL     1       2.179   4.082  19.910  0.00  0.00    +0.000 C 
ATOM      2  O   UNL     1       0.958   4.053  19.753  0.00  0.00    +0.000 OA
ATOM      3  N   UNL     1       2.835   5.129  20.527  0.00  0.00    +0.000 N 
ATOM      4  H   UNL     1       3.827   5.304  20.340  0.00  0.00    +0.000 HD
ENDROOT
BRANCH   3   5
ATOM      5  N   UNL     1       2.090   6.234  20.938  0.00  0.00    +0.000 N 
ATOM      6  C   UNL     1       2.058   7.343  20.119  0.00  0.00    +0.000 C 
ATOM      7  O   UNL     1       2.619   7.399  19.028  0.00  0.00    +0.000 OA
ATOM      8  H   UNL     1       1.544   6.126  21.788  0.00  0.00    +0.000 HD
BRANCH   6   9
ATOM      9  C   UNL     1       1.266   8.499  20.613  0.00  0.00    +0.000 A 
ATOM     10  C   UNL     1       0.765   9.484  19.750  0.00  0.00    +0.000 A 
ATOM     11  C   UNL     1       0.012  10.544  20.261  0.00  0.00    +0.000 A 
ATOM     12  C   UNL     1      -0.242  10.617  21.628  0.00  0.00    +0.000 A 
ATOM     13 BR   UNL     1      -1.261  12.054  22.314  0.00  0.00    +0.000 Br
ATOM     14  C   UNL     1       0.238   9.636  22.494  0.00  0.00    +0.000 A 
ATOM     15  C   UNL     1       0.987   8.573  21.985  0.00  0.00    +0.000 A 
ENDBRANCH   6   9
ENDBRANCH   3   5
BRANCH   1  16
ATOM     16  C   UNL     1       3.099   2.958  19.474  0.00  0.00    +0.000 C 
BRANCH  16  17
ATOM     17  S   UNL     1       3.938   3.324  17.914  0.00  0.00    +0.000 S 
BRANCH  17  23
ATOM     18  N   UNL     1       5.831   5.298  17.599  0.00  0.00    +0.000 N 
ATOM     19  C   UNL     1       6.815   5.870  18.383  0.00  0.00    +0.000 A 
ATOM     20  C   UNL     1       7.791   6.912  17.976  0.00  0.00    +0.000 C 
ATOM     21  N   UNL     1       6.768   5.327  19.585  0.00  0.00    +0.000 NA
ATOM     22  N   UNL     1       5.791   4.369  19.592  0.00  0.00    +0.000 NA
ATOM     23  C   UNL     1       5.234   4.359  18.406  0.00  0.00    +0.000 A 
BRANCH  18  24
ATOM     24  C   UNL     1       5.539   5.582  16.211  0.00  0.00    +0.000 C 
BRANCH  24  25
ATOM     25  C   UNL     1       6.320   4.736  15.208  0.00  0.00    +0.000 C 
BRANCH  25  27
ATOM     26  C   UNL     1       6.148   3.674  13.115  0.00  0.00    +0.000 C 
ATOM     27  O   UNL     1       5.436   4.322  14.163  0.00  0.00    +0.000 OA
ENDBRANCH  25  27
ENDBRANCH  24  25
ENDBRANCH  18  24
ENDBRANCH  17  23
ENDBRANCH  16  17
ENDBRANCH   1  16
TORSDOF 8
ENDMDL
MODEL 3
REMARK VINA RESULT:      -7.3      1.387      2.511
REMARK  Name = 
REMARK  10 active torsions:
REMARK  status: ('A' for Active; 'I' for Inactive)
REMARK    1  A    between atoms: C_1  and  O_2
REMARK    2  A    between atoms: O_2  and  C_3
REMARK    3  A    between atoms: C_3  and  C_4
REMARK    4  A    between atoms: C_4  and  N_5
REMARK    5  A    between atoms: C_6  and  C_7
REMARK    6  A    between atoms: C_10  and  S_11
REMARK    7  A    between atoms: S_11  and  C_12
REMARK    8  A    between atoms: C_12  and  C_13
REMARK    9  A    between atoms: N_15  and  N_16
REMARK   10  A    between atoms: C_17  and  C_19
REMARK                            x       y       z     vdW  Elec       q    Type
REMARK                         _______ _______ _______ _____ _____    ______ ____
ROOT
ATOM      1  C   UNL     1       2.066   4.321  20.081  0.00  0.00    +0.000 C 
ATOM      2  O   UNL     1       0.913   4.065  20.431  0.00  0.00    +0.000 OA
ATOM      3  N   UNL     1       2.654   5.556  20.271  0.00  0.00    +0.000 N 
ATOM      4  H   UNL     1       3.440   5.854  19.685  0.00  0.00    +0.000 HD
ENDROOT
BRANCH   3   5
ATOM      5  N   UNL     1       1.890   6.581  20.829  0.00  0.00    +0.000 N 
ATOM      6  C   UNL     1       1.768   7.762  20.127  0.00  0.00    +0.000 C 
ATOM      7  O   UNL     1       2.264   7.950  19.020  0.00  0.00    +0.000 OA
ATOM      8  H   UNL     1       1.397   6.366  21.690  0.00  0.00    +0.000 HD
BRANCH   6   9
ATOM      9  C   UNL     1       0.959   8.827  20.775  0.00  0.00    +0.000 A 
ATOM     10  C   UNL     1       0.289   9.810  20.033  0.00  0.00    +0.000 A 
ATOM     11  C   UNL     1      -0.472  10.783  20.688  0.00  0.00    +0.000 A 
ATOM     12  C   UNL     1      -0.565  10.769  22.077  0.00  0.00    +0.000 A 
ATOM     13 BR   UNL     1      -1.595  12.088  22.957  0.00  0.00    +0.000 Br
ATOM     14  C   UNL     1       0.084   9.789  22.824  0.00  0.00    +0.000 A 
ATOM     15  C   UNL     1       0.842   8.813  22.172  0.00  0.00    +0.000 A 
ENDBRANCH   6   9
ENDBRANCH   3   5
BRANCH   1  16
ATOM     16  C   UNL     1       2.983   3.303  19.433  0.00  0.00    +0.000 C 
BRANCH  16  17
ATOM     17  S   UNL     1       4.713   3.832  19.444  0.00  0.00    +0.000 S 
BRANCH  17  23
ATOM     18  N   UNL     1       6.282   4.429  17.262  0.00  0.00    +0.000 N 
ATOM     19  C   UNL     1       6.095   4.525  15.897  0.00  0.00    +0.000 A 
ATOM     20  C   UNL     1       7.099   4.934  14.882  0.00  0.00    +0.000 C 
ATOM     21  N   UNL     1       4.847   4.203  15.616  0.00  0.00    +0.000 NA
ATOM     22  N   UNL     1       4.192   3.936  16.787  0.00  0.00    +0.000 NA
ATOM     23  C   UNL     1       5.054   4.070  17.765  0.00  0.00    +0.000 A 
BRANCH  18  24
ATOM     24  C   UNL     1       7.491   4.710  18.005  0.00  0.00    +0.000 C 
BRANCH  24  25
ATOM     25  C   UNL     1       7.392   5.897  18.960  0.00  0.00    +0.000 C 
BRANCH  25  27
ATOM     26  C   UNL     1       7.567   7.795  17.579  0.00  0.00    +0.000 C 
ATOM     27  O   UNL     1       8.250   6.941  18.491  0.00  0.00    +0.000 OA
ENDBRANCH  25  27
ENDBRANCH  24  25
ENDBRANCH  18  24
ENDBRANCH  17  23
ENDBRANCH  16  17
ENDBRANCH   1  16
TORSDOF 8
ENDMDL
MODEL 4
REMARK VINA RESULT:      -6.9      3.786      7.274
REMARK  Name = 
REMARK  10 active torsions:
REMARK  status: ('A' for Active; 'I' for Inactive)
REMARK    1  A    between atoms: C_1  and  O_2
REMARK    2  A    between atoms: O_2  and  C_3
REMARK    3  A    between atoms: C_3  and  C_4
REMARK    4  A    between atoms: C_4  and  N_5
REMARK    5  A    between atoms: C_6  and  C_7
REMARK    6  A    between atoms: C_10  and  S_11
REMARK    7  A    between atoms: S_11  and  C_12
REMARK    8  A    between atoms: C_12  and  C_13
REMARK    9  A    between atoms: N_15  and  N_16
REMARK   10  A    between atoms: C_17  and  C_19
REMARK                            x       y       z     vdW  Elec       q    Type
REMARK                         _______ _______ _______ _____ _____    ______ ____
ROOT
ATOM      1  C   UNL     1       5.319   6.748  16.906  0.00  0.00    +0.000 C 
ATOM      2  O   UNL     1       4.546   7.616  17.311  0.00  0.00    +0.000 OA
ATOM      3  N   UNL     1       6.679   6.952  16.775  0.00  0.00    +0.000 N 
ATOM      4  H   UNL     1       7.231   6.377  16.131  0.00  0.00    +0.000 HD
ENDROOT
BRANCH   3   5
ATOM      5  N   UNL     1       7.194   8.217  17.056  0.00  0.00    +0.000 N 
ATOM      6  C   UNL     1       8.087   8.343  18.100  0.00  0.00    +0.000 C 
ATOM      7  O   UNL     1       8.484   7.396  18.773  0.00  0.00    +0.000 OA
ATOM      8  H   UNL     1       6.940   8.966  16.418  0.00  0.00    +0.000 HD
BRANCH   6   9
ATOM      9  C   UNL     1       8.589   9.715  18.368  0.00  0.00    +0.000 A 
ATOM     10  C   UNL     1       8.290  10.797  17.528  0.00  0.00    +0.000 A 
ATOM     11  C   UNL     1       8.773  12.073  17.830  0.00  0.00    +0.000 A 
ATOM     12  C   UNL     1       9.549  12.266  18.970  0.00  0.00    +0.000 A 
ATOM     13 BR   UNL     1      10.201  13.994  19.374  0.00  0.00    +0.000 Br
ATOM     14  C   UNL     1       9.842  11.202  19.821  0.00  0.00    +0.000 A 
ATOM     15  C   UNL     1       9.356   9.926  19.522  0.00  0.00    +0.000 A 
ENDBRANCH   6   9
ENDBRANCH   3   5
BRANCH   1  16
ATOM     16  C   UNL     1       4.875   5.346  16.536  0.00  0.00    +0.000 C 
BRANCH  16  17
ATOM     17  S   UNL     1       5.434   4.111  17.733  0.00  0.00    +0.000 S 
BRANCH  17  23
ATOM     18  N   UNL     1       3.112   3.920  19.200  0.00  0.00    +0.000 N 
ATOM     19  C   UNL     1       2.081   3.008  19.319  0.00  0.00    +0.000 A 
ATOM     20  C   UNL     1       0.923   3.082  20.246  0.00  0.00    +0.000 C 
ATOM     21  N   UNL     1       2.288   2.020  18.470  0.00  0.00    +0.000 NA
ATOM     22  N   UNL     1       3.470   2.247  17.819  0.00  0.00    +0.000 NA
ATOM     23  C   UNL     1       3.955   3.383  18.256  0.00  0.00    +0.000 A 
BRANCH  18  24
ATOM     24  C   UNL     1       3.295   5.143  19.952  0.00  0.00    +0.000 C 
BRANCH  24  25
ATOM     25  C   UNL     1       2.357   6.281  19.557  0.00  0.00    +0.000 C 
BRANCH  25  27
ATOM     26  C   UNL     1       1.504   8.070  20.827  0.00  0.00    +0.000 C 
ATOM     27  O   UNL     1       1.577   6.654  20.697  0.00  0.00    +0.000 OA
ENDBRANCH  25  27
ENDBRANCH  24  25
ENDBRANCH  18  24
ENDBRANCH  17  23
ENDBRANCH  16  17
ENDBRANCH   1  16
TORSDOF 8
ENDMDL
MODEL 5
REMARK VINA RESULT:      -6.9      1.466      1.907
REMARK  Name = 
REMARK  10 active torsions:
REMARK  status: ('A' for Active; 'I' for Inactive)
REMARK    1  A    between atoms: C_1  and  O_2
REMARK    2  A    between atoms: O_2  and  C_3
REMARK    3  A    between atoms: C_3  and  C_4
REMARK    4  A    between atoms: C_4  and  N_5
REMARK    5  A    between atoms: C_6  and  C_7
REMARK    6  A    between atoms: C_10  and  S_11
REMARK    7  A    between atoms: S_11  and  C_12
REMARK    8  A    between atoms: C_12  and  C_13
REMARK    9  A    between atoms: N_15  and  N_16
REMARK   10  A    between atoms: C_17  and  C_19
REMARK                            x       y       z     vdW  Elec       q    Type
REMARK                         _______ _______ _______ _____ _____    ______ ____
ROOT
ATOM      1  C   UNL     1       2.187   6.392  19.830  0.00  0.00    +0.000 C 
ATOM      2  O   UNL     1       2.364   7.102  18.839  0.00  0.00    +0.000 OA
ATOM      3  N   UNL     1       1.735   6.885  21.039  0.00  0.00    +0.000 N 
ATOM      4  H   UNL     1       1.926   6.381  21.910  0.00  0.00    +0.000 HD
ENDROOT
BRANCH   3   5
ATOM      5  N   UNL     1       1.526   8.259  21.163  0.00  0.00    +0.000 N 
ATOM      6  C   UNL     1       0.269   8.699  21.522  0.00  0.00    +0.000 C 
ATOM      7  O   UNL     1      -0.669   7.948  21.775  0.00  0.00    +0.000 OA
ATOM      8  H   UNL     1       2.341   8.856  21.059  0.00  0.00    +0.000 HD
BRANCH   6   9
ATOM      9  C   UNL     1       0.097  10.172  21.621  0.00  0.00    +0.000 A 
ATOM     10  C   UNL     1      -0.735  10.762  22.584  0.00  0.00    +0.000 A 
ATOM     11  C   UNL     1      -0.854  12.153  22.647  0.00  0.00    +0.000 A 
ATOM     12  C   UNL     1      -0.140  12.950  21.755  0.00  0.00    +0.000 A 
ATOM     13 BR   UNL     1      -0.305  14.831  21.846  0.00  0.00    +0.000 Br
ATOM     14  C   UNL     1       0.700  12.375  20.803  0.00  0.00    +0.000 A 
ATOM     15  C   UNL     1       0.823  10.985  20.741  0.00  0.00    +0.000 A 
ENDBRANCH   6   9
ENDBRANCH   3   5
BRANCH   1  16
ATOM     16  C   UNL     1       2.413   4.893  19.830  0.00  0.00    +0.000 C 
BRANCH  16  17
ATOM     17  S   UNL     1       3.372   4.344  18.398  0.00  0.00    +0.000 S 
BRANCH  17  23
ATOM     18  N   UNL     1       5.590   5.907  17.933  0.00  0.00    +0.000 N 
ATOM     19  C   UNL     1       6.811   6.112  18.545  0.00  0.00    +0.000 A 
ATOM     20  C   UNL     1       7.915   6.985  18.073  0.00  0.00    +0.000 C 
ATOM     21  N   UNL     1       6.862   5.381  19.643  0.00  0.00    +0.000 NA
ATOM     22  N   UNL     1       5.703   4.662  19.741  0.00  0.00    +0.000 NA
ATOM     23  C   UNL     1       4.947   4.982  18.720  0.00  0.00    +0.000 A 
BRANCH  18  24
ATOM     24  C   UNL     1       5.119   6.492  16.696  0.00  0.00    +0.000 C 
BRANCH  24  25
ATOM     25  C   UNL     1       5.750   5.909  15.434  0.00  0.00    +0.000 C 
BRANCH  25  27
ATOM     26  C   UNL     1       6.011   3.893  14.247  0.00  0.00    +0.000 C 
ATOM     27  O   UNL     1       5.260   4.579  15.244  0.00  0.00    +0.000 OA
ENDBRANCH  25  27
ENDBRANCH  24  25
ENDBRANCH  18  24
ENDBRANCH  17  23
ENDBRANCH  16  17
ENDBRANCH   1  16
TORSDOF 8
ENDMDL
MODEL 6
REMARK VINA RESULT:      -6.9      4.050      7.142
REMARK  Name = 
REMARK  10 active torsions:
REMARK  status: ('A' for Active; 'I' for Inactive)
REMARK    1  A    between atoms: C_1  and  O_2
REMARK    2  A    between atoms: O_2  and  C_3
REMARK    3  A    between atoms: C_3  and  C_4
REMARK    4  A    between atoms: C_4  and  N_5
REMARK    5  A    between atoms: C_6  and  C_7
REMARK    6  A    between atoms: C_10  and  S_11
REMARK    7  A    between atoms: S_11  and  C_12
REMARK    8  A    between atoms: C_12  and  C_13
REMARK    9  A    between atoms: N_15  and  N_16
REMARK   10  A    between atoms: C_17  and  C_19
REMARK                            x       y       z     vdW  Elec       q    Type
REMARK                         _______ _______ _______ _____ _____    ______ ____
ROOT
ATOM      1  C   UNL     1       7.416   5.645  18.979  0.00  0.00    +0.000 C 
ATOM      2  O   UNL     1       7.543   5.713  20.202  0.00  0.00    +0.000 OA
ATOM      3  N   UNL     1       7.865   6.628  18.119  0.00  0.00    +0.000 N 
ATOM      4  H   UNL     1       7.455   6.729  17.186  0.00  0.00    +0.000 HD
ENDROOT
BRANCH   3   5
ATOM      5  N   UNL     1       8.435   7.780  18.662  0.00  0.00    +0.000 N 
ATOM      6  C   UNL     1       8.177   8.988  18.048  0.00  0.00    +0.000 C 
ATOM      7  O   UNL     1       7.444   9.113  17.071  0.00  0.00    +0.000 OA
ATOM      8  H   UNL     1       8.945   7.670  19.533  0.00  0.00    +0.000 HD
BRANCH   6   9
ATOM      9  C   UNL     1       8.824  10.180  18.654  0.00  0.00    +0.000 A 
ATOM     10  C   UNL     1       9.381  10.153  19.941  0.00  0.00    +0.000 A 
ATOM     11  C   UNL     1       9.993  11.296  20.463  0.00  0.00    +0.000 A 
ATOM     12  C   UNL     1      10.051  12.459  19.700  0.00  0.00    +0.000 A 
ATOM     13 BR   UNL     1      10.879  14.002  20.411  0.00  0.00    +0.000 Br
ATOM     14  C   UNL     1       9.514  12.494  18.415  0.00  0.00    +0.000 A 
ATOM     15  C   UNL     1       8.905  11.352  17.889  0.00  0.00    +0.000 A 
ENDBRANCH   6   9
ENDBRANCH   3   5
BRANCH   1  16
ATOM     16  C   UNL     1       6.782   4.462  18.274  0.00  0.00    +0.000 C 
BRANCH  16  17
ATOM     17  S   UNL     1       5.213   4.893  17.485  0.00  0.00    +0.000 S 
BRANCH  17  23
ATOM     18  N   UNL     1       3.273   4.014  19.230  0.00  0.00    +0.000 N 
ATOM     19  C   UNL     1       2.595   2.831  19.452  0.00  0.00    +0.000 A 
ATOM     20  C   UNL     1       1.603   2.555  20.521  0.00  0.00    +0.000 C 
ATOM     21  N   UNL     1       2.982   1.945  18.554  0.00  0.00    +0.000 NA
ATOM     22  N   UNL     1       3.942   2.517  17.765  0.00  0.00    +0.000 NA
ATOM     23  C   UNL     1       4.109   3.752  18.171  0.00  0.00    +0.000 A 
BRANCH  18  24
ATOM     24  C   UNL     1       3.171   5.241  19.990  0.00  0.00    +0.000 C 
BRANCH  24  25
ATOM     25  C   UNL     1       2.048   6.174  19.545  0.00  0.00    +0.000 C 
BRANCH  25  27
ATOM     26  C   UNL     1       2.458   8.018  18.141  0.00  0.00    +0.000 C 
ATOM     27  O   UNL     1       2.558   7.508  19.466  0.00  0.00    +0.000 OA
ENDBRANCH  25  27
ENDBRANCH  24  25
ENDBRANCH  18  24
ENDBRANCH  17  23
ENDBRANCH  16  17
ENDBRANCH   1  16
TORSDOF 8
ENDMDL
MODEL 7
REMARK VINA RESULT:      -6.8      4.007      7.153
REMARK  Name = 
REMARK  10 active torsions:
REMARK  status: ('A' for Active; 'I' for Inactive)
REMARK    1  A    between atoms: C_1  and  O_2
REMARK    2  A    between atoms: O_2  and  C_3
REMARK    3  A    between atoms: C_3  and  C_4
REMARK    4  A    between atoms: C_4  and  N_5
REMARK    5  A    between atoms: C_6  and  C_7
REMARK    6  A    between atoms: C_10  and  S_11
REMARK    7  A    between atoms: S_11  and  C_12
REMARK    8  A    between atoms: C_12  and  C_13
REMARK    9  A    between atoms: N_15  and  N_16
REMARK   10  A    between atoms: C_17  and  C_19
REMARK                            x       y       z     vdW  Elec       q    Type
REMARK                         _______ _______ _______ _____ _____    ______ ____
ROOT
ATOM      1  C   UNL     1       7.769   5.654  18.839  0.00  0.00    +0.000 C 
ATOM      2  O   UNL     1       8.258   5.571  19.966  0.00  0.00    +0.000 OA
ATOM      3  N   UNL     1       7.848   6.794  18.064  0.00  0.00    +0.000 N 
ATOM      4  H   UNL     1       7.165   6.967  17.321  0.00  0.00    +0.000 HD
ENDROOT
BRANCH   3   5
ATOM      5  N   UNL     1       8.457   7.927  18.605  0.00  0.00    +0.000 N 
ATOM      6  C   UNL     1       8.183   9.153  18.035  0.00  0.00    +0.000 C 
ATOM      7  O   UNL     1       7.402   9.309  17.100  0.00  0.00    +0.000 OA
ATOM      8  H   UNL     1       9.010   7.790  19.446  0.00  0.00    +0.000 HD
BRANCH   6   9
ATOM      9  C   UNL     1       8.873  10.323  18.636  0.00  0.00    +0.000 A 
ATOM     10  C   UNL     1       9.453  10.272  19.912  0.00  0.00    +0.000 A 
ATOM     11  C   UNL     1      10.105  11.394  20.430  0.00  0.00    +0.000 A 
ATOM     12  C   UNL     1      10.180  12.561  19.673  0.00  0.00    +0.000 A 
ATOM     13 BR   UNL     1      11.062  14.076  20.378  0.00  0.00    +0.000 Br
ATOM     14  C   UNL     1       9.619  12.619  18.398  0.00  0.00    +0.000 A 
ATOM     15  C   UNL     1       8.971  11.497  17.877  0.00  0.00    +0.000 A 
ENDBRANCH   6   9
ENDBRANCH   3   5
BRANCH   1  16
ATOM     16  C   UNL     1       7.051   4.504  18.158  0.00  0.00    +0.000 C 
BRANCH  16  17
ATOM     17  S   UNL     1       5.371   4.275  18.786  0.00  0.00    +0.000 S 
BRANCH  17  23
ATOM     18  N   UNL     1       3.406   6.203  18.760  0.00  0.00    +0.000 N 
ATOM     19  C   UNL     1       3.086   7.290  17.970  0.00  0.00    +0.000 A 
ATOM     20  C   UNL     1       1.909   8.184  18.109  0.00  0.00    +0.000 C 
ATOM     21  N   UNL     1       4.004   7.415  17.030  0.00  0.00    +0.000 NA
ATOM     22  N   UNL     1       4.906   6.395  17.164  0.00  0.00    +0.000 NA
ATOM     23  C   UNL     1       4.545   5.677  18.200  0.00  0.00    +0.000 A 
BRANCH  18  24
ATOM     24  C   UNL     1       2.664   5.693  19.893  0.00  0.00    +0.000 C 
BRANCH  24  25
ATOM     25  C   UNL     1       1.672   4.582  19.557  0.00  0.00    +0.000 C 
BRANCH  25  27
ATOM     26  C   UNL     1       1.762   3.114  21.395  0.00  0.00    +0.000 C 
ATOM     27  O   UNL     1       2.181   3.341  20.053  0.00  0.00    +0.000 OA
ENDBRANCH  25  27
ENDBRANCH  24  25
ENDBRANCH  18  24
ENDBRANCH  17  23
ENDBRANCH  16  17
ENDBRANCH   1  16
TORSDOF 8
ENDMDL
MODEL 8
REMARK VINA RESULT:      -6.8      2.409      4.401
REMARK  Name = 
REMARK  10 active torsions:
REMARK  status: ('A' for Active; 'I' for Inactive)
REMARK    1  A    between atoms: C_1  and  O_2
REMARK    2  A    between atoms: O_2  and  C_3
REMARK    3  A    between atoms: C_3  and  C_4
REMARK    4  A    between atoms: C_4  and  N_5
REMARK    5  A    between atoms: C_6  and  C_7
REMARK    6  A    between atoms: C_10  and  S_11
REMARK    7  A    between atoms: S_11  and  C_12
REMARK    8  A    between atoms: C_12  and  C_13
REMARK    9  A    between atoms: N_15  and  N_16
REMARK   10  A    between atoms: C_17  and  C_19
REMARK                            x       y       z     vdW  Elec       q    Type
REMARK                         _______ _______ _______ _____ _____    ______ ____
ROOT
ATOM      1  C   UNL     1       4.371   5.981  18.063  0.00  0.00    +0.000 C 
ATOM      2  O   UNL     1       4.876   6.106  19.180  0.00  0.00    +0.000 OA
ATOM      3  N   UNL     1       3.142   6.516  17.728  0.00  0.00    +0.000 N 
ATOM      4  H   UNL     1       2.597   6.122  16.956  0.00  0.00    +0.000 HD
ENDROOT
BRANCH   3   5
ATOM      5  N   UNL     1       2.410   7.177  18.715  0.00  0.00    +0.000 N 
ATOM      6  C   UNL     1       1.963   8.455  18.452  0.00  0.00    +0.000 C 
ATOM      7  O   UNL     1       2.142   9.032  17.383  0.00  0.00    +0.000 OA
ATOM      8  H   UNL     1       2.179   6.642  19.547  0.00  0.00    +0.000 HD
BRANCH   6   9
ATOM      9  C   UNL     1       1.206   9.120  19.544  0.00  0.00    +0.000 A 
ATOM     10  C   UNL     1       1.169   8.604  20.847  0.00  0.00    +0.000 A 
ATOM     11  C   UNL     1       0.455   9.274  21.845  0.00  0.00    +0.000 A 
ATOM     12  C   UNL     1      -0.215  10.457  21.540  0.00  0.00    +0.000 A 
ATOM     13 BR   UNL     1      -1.180  11.358  22.893  0.00  0.00    +0.000 Br
ATOM     14  C   UNL     1      -0.174  10.986  20.252  0.00  0.00    +0.000 A 
ATOM     15  C   UNL     1       0.543  10.321  19.255  0.00  0.00    +0.000 A 
ENDBRANCH   6   9
ENDBRANCH   3   5
BRANCH   1  16
ATOM     16  C   UNL     1       5.052   5.255  16.920  0.00  0.00    +0.000 C 
BRANCH  16  17
ATOM     17  S   UNL     1       4.882   3.459  17.049  0.00  0.00    +0.000 S 
BRANCH  17  23
ATOM     18  N   UNL     1       3.149   3.056  19.150  0.00  0.00    +0.000 N 
ATOM     19  C   UNL     1       1.781   2.946  19.306  0.00  0.00    +0.000 A 
ATOM     20  C   UNL     1       1.043   2.660  20.561  0.00  0.00    +0.000 C 
ATOM     21  N   UNL     1       1.205   3.124  18.132  0.00  0.00    +0.000 NA
ATOM     22  N   UNL     1       2.181   3.308  17.191  0.00  0.00    +0.000 NA
ATOM     23  C   UNL     1       3.339   3.270  17.805  0.00  0.00    +0.000 A 
BRANCH  18  24
ATOM     24  C   UNL     1       4.164   2.913  20.171  0.00  0.00    +0.000 C 
BRANCH  24  25
ATOM     25  C   UNL     1       4.704   1.494  20.339  0.00  0.00    +0.000 C 
BRANCH  25  27
ATOM     26  C   UNL     1       5.918   0.113  21.808  0.00  0.00    +0.000 C 
ATOM     27  O   UNL     1       5.534   1.450  21.503  0.00  0.00    +0.000 OA
ENDBRANCH  25  27
ENDBRANCH  24  25
ENDBRANCH  18  24
ENDBRANCH  17  23
ENDBRANCH  16  17
ENDBRANCH   1  16
TORSDOF 8
ENDMDL
MODEL 9
REMARK VINA RESULT:      -6.7      1.463      2.515
REMARK  Name = 
REMARK  10 active torsions:
REMARK  status: ('A' for Active; 'I' for Inactive)
REMARK    1  A    between atoms: C_1  and  O_2
REMARK    2  A    between atoms: O_2  and  C_3
REMARK    3  A    between atoms: C_3  and  C_4
REMARK    4  A    between atoms: C_4  and  N_5
REMARK    5  A    between atoms: C_6  and  C_7
REMARK    6  A    between atoms: C_10  and  S_11
REMARK    7  A    between atoms: S_11  and  C_12
REMARK    8  A    between atoms: C_12  and  C_13
REMARK    9  A    between atoms: N_15  and  N_16
REMARK   10  A    between atoms: C_17  and  C_19
REMARK                            x       y       z     vdW  Elec       q    Type
REMARK                         _______ _______ _______ _____ _____    ______ ____
ROOT
ATOM      1  C   UNL     1       2.440   5.099  20.376  0.00  0.00    +0.000 C 
ATOM      2  O   UNL     1       1.708   4.745  21.301  0.00  0.00    +0.000 OA
ATOM      3  N   UNL     1       2.616   6.421  20.018  0.00  0.00    +0.000 N 
ATOM      4  H   UNL     1       2.923   6.667  19.072  0.00  0.00    +0.000 HD
ENDROOT
BRANCH   3   5
ATOM      5  N   UNL     1       1.886   7.398  20.694  0.00  0.00    +0.000 N 
ATOM      6  C   UNL     1       1.539   8.545  20.010  0.00  0.00    +0.000 C 
ATOM      7  O   UNL     1       1.805   8.738  18.827  0.00  0.00    +0.000 OA
ATOM      8  H   UNL     1       1.580   7.171  21.635  0.00  0.00    +0.000 HD
BRANCH   6   9
ATOM      9  C   UNL     1       0.779   9.562  20.782  0.00  0.00    +0.000 A 
ATOM     10  C   UNL     1       0.789  10.921  20.436  0.00  0.00    +0.000 A 
ATOM     11  C   UNL     1       0.045  11.838  21.185  0.00  0.00    +0.000 A 
ATOM     12  C   UNL     1      -0.708  11.397  22.270  0.00  0.00    +0.000 A 
ATOM     13 BR   UNL     1      -1.710  12.642  23.279  0.00  0.00    +0.000 Br
ATOM     14  C   UNL     1      -0.736  10.047  22.614  0.00  0.00    +0.000 A 
ATOM     15  C   UNL     1       0.003   9.128  21.865  0.00  0.00    +0.000 A 
ENDBRANCH   6   9
ENDBRANCH   3   5
BRANCH   1  16
ATOM     16  C   UNL     1       3.257   4.128  19.546  0.00  0.00    +0.000 C 
BRANCH  16  17
ATOM     17  S   UNL     1       4.984   4.643  19.391  0.00  0.00    +0.000 S 
BRANCH  17  23
ATOM     18  N   UNL     1       6.337   4.982  17.018  0.00  0.00    +0.000 N 
ATOM     19  C   UNL     1       6.219   4.504  15.727  0.00  0.00    +0.000 A 
ATOM     20  C   UNL     1       7.048   4.879  14.554  0.00  0.00    +0.000 C 
ATOM     21  N   UNL     1       5.218   3.645  15.682  0.00  0.00    +0.000 NA
ATOM     22  N   UNL     1       4.643   3.582  16.922  0.00  0.00    +0.000 NA
ATOM     23  C   UNL     1       5.317   4.379  17.715  0.00  0.00    +0.000 A 
BRANCH  18  24
ATOM     24  C   UNL     1       7.287   5.955  17.511  0.00  0.00    +0.000 C 
BRANCH  24  25
ATOM     25  C   UNL     1       6.853   7.410  17.347  0.00  0.00    +0.000 C 
BRANCH  25  27
ATOM     26  C   UNL     1       8.320   9.046  18.190  0.00  0.00    +0.000 C 
ATOM     27  O   UNL     1       8.008   8.210  17.081  0.00  0.00    +0.000 OA
ENDBRANCH  25  27
ENDBRANCH  24  25
ENDBRANCH  18  24
ENDBRANCH  17  23
ENDBRANCH  16  17
ENDBRANCH   1  16
TORSDOF 8
ENDMDL
