MODEL 1
REMARK VINA RESULT:      -7.7      0.000      0.000
REMARK  Name = 
REMARK  10 active torsions:
REMARK  status: ('A' for Active; 'I' for Inactive)
REMARK    1  A    between atoms: C_1  and  C_2
REMARK    2  A    between atoms: C_4  and  C_5
REMARK    3  A    between atoms: C_6  and  C_7
REMARK    4  A    between atoms: N_9  and  C_10
REMARK    5  A    between atoms: C_10  and  C_11
REMARK    6  A    between atoms: C_10  and  C_12
REMARK    7  A    between atoms: C_12  and  O_13
REMARK    8  A    between atoms: C_12  and  C_14
REMARK    9  A    between atoms: C_12  and  C_20
REMARK   10  A    between atoms: C_14  and  N_15
REMARK                            x       y       z     vdW  Elec       q    Type
REMARK                         _______ _______ _______ _____ _____    ______ ____
ROOT
ATOM      1  C   UNL     1       4.448   4.094  18.341  0.00  0.00    +0.000 C 
ENDROOT
BRANCH   1   2
ATOM      2  C   UNL     1       3.392   3.605  19.357  0.00  0.00    +0.000 A 
ATOM      3  C   UNL     1       3.739   2.930  20.548  0.00  0.00    +0.000 A 
ATOM      4  C   UNL     1       2.758   2.532  21.464  0.00  0.00    +0.000 A 
ATOM      5  C   UNL     1       1.420   2.788  21.199  0.00  0.00    +0.000 A 
ATOM      6  F   UNL     1       0.487   2.407  22.080  0.00  0.00    +0.000 F 
ATOM      7  C   UNL     1       1.039   3.420  20.028  0.00  0.00    +0.000 A 
ATOM      8  C   UNL     1       2.019   3.810  19.119  0.00  0.00    +0.000 A 
ATOM      9  F   UNL     1       1.605   4.382  17.980  0.00  0.00    +0.000 F 
ENDBRANCH   1   2
BRANCH   1  10
ATOM     10  C   UNL     1       4.843   5.586  18.676  0.00  0.00    +0.000 C 
ATOM     11  C   UNL     1       6.164   5.786  19.419  0.00  0.00    +0.000 C 
BRANCH  10  14
ATOM     12  C   UNL     1       2.936   7.283  18.600  0.00  0.00    +0.000 C 
ATOM     13  O   UNL     1       3.030   7.452  17.386  0.00  0.00    +0.000 OA
ATOM     14  N   UNL     1       3.742   6.377  19.254  0.00  0.00    +0.000 N 
ATOM     15  H   UNL     1       3.755   6.448  20.266  0.00  0.00    +0.000 HD
BRANCH  12  21
ATOM     16  C   UNL     1      -0.040   9.143  22.555  0.00  0.00    +0.000 C 
ATOM     17  C   UNL     1       0.613   8.894  21.240  0.00  0.00    +0.000 A 
ATOM     18  N   UNL     1       0.637   9.753  20.248  0.00  0.00    +0.000 NA
ATOM     19  C   UNL     1       1.416   9.263  19.207  0.00  0.00    +0.000 A 
ATOM     20  C   UNL     1       1.563  10.115  17.995  0.00  0.00    +0.000 C 
ATOM     21  C   UNL     1       1.996   8.021  19.437  0.00  0.00    +0.000 A 
ATOM     22  S   UNL     1       1.440   7.419  20.951  0.00  0.00    +0.000 S 
ENDBRANCH  12  21
ENDBRANCH  10  14
ENDBRANCH   1  10
BRANCH   1  23
ATOM     23  O   UNL     1       5.679   3.349  18.551  0.00  0.00    +0.000 OA
ATOM     24  H   UNL     1       6.049   3.180  17.654  0.00  0.00    +0.000 HD
ENDBRANCH   1  23
BRANCH   1  25
ATOM     25  C   UNL     1       4.036   3.859  16.855  0.00  0.00    +0.000 C 
BRANCH  25  26
ATOM     26  N   UNL     1       5.047   4.294  15.893  0.00  0.00    +0.000 N 
ATOM     27  C   UNL     1       5.228   5.529  15.356  0.00  0.00    +0.000 A 
ATOM     28  N   UNL     1       6.215   5.498  14.487  0.00  0.00    +0.000 NA
ATOM     29  C   UNL     1       6.637   4.204  14.545  0.00  0.00    +0.000 A 
ATOM     30  N   UNL     1       5.962   3.428  15.400  0.00  0.00    +0.000 NA
ENDBRANCH  25  26
ENDBRANCH   1  25
TORSDOF 7
ENDMDL
MODEL 2
REMARK VINA RESULT:      -7.4      2.770      4.544
REMARK  Name = 
REMARK  10 active torsions:
REMARK  status: ('A' for Active; 'I' for Inactive)
REMARK    1  A    between atoms: C_1  and  C_2
REMARK    2  A    between atoms: C_4  and  C_5
REMARK    3  A    between atoms: C_6  and  C_7
REMARK    4  A    between atoms: N_9  and  C_10
REMARK    5  A    between atoms: C_10  and  C_11
REMARK    6  A    between atoms: C_10  and  C_12
REMARK    7  A    between atoms: C_12  and  O_13
REMARK    8  A    between atoms: C_12  and  C_14
REMARK    9  A    between atoms: C_12  and  C_20
REMARK   10  A    between atoms: C_14  and  N_15
REMARK                            x       y       z     vdW  Elec       q    Type
REMARK                         _______ _______ _______ _____ _____    ______ ____
ROOT
ATOM      1  C   UNL     1       5.579   5.191  16.555  0.00  0.00    +0.000 C 
ENDROOT
BRANCH   1   2
ATOM      2  C   UNL     1       6.556   6.165  17.250  0.00  0.00    +0.000 A 
ATOM      3  C   UNL     1       6.665   7.523  16.879  0.00  0.00    +0.000 A 
ATOM      4  C   UNL     1       7.535   8.388  17.554  0.00  0.00    +0.000 A 
ATOM      5  C   UNL     1       8.316   7.908  18.595  0.00  0.00    +0.000 A 
ATOM      6  F   UNL     1       9.145   8.740  19.238  0.00  0.00    +0.000 F 
ATOM      7  C   UNL     1       8.260   6.577  18.966  0.00  0.00    +0.000 A 
ATOM      8  C   UNL     1       7.395   5.720  18.290  0.00  0.00    +0.000 A 
ATOM      9  F   UNL     1       7.400   4.430  18.653  0.00  0.00    +0.000 F 
ENDBRANCH   1   2
BRANCH   1  10
ATOM     10  C   UNL     1       4.457   4.757  17.579  0.00  0.00    +0.000 C 
ATOM     11  C   UNL     1       3.565   3.591  17.152  0.00  0.00    +0.000 C 
BRANCH  10  14
ATOM     12  C   UNL     1       3.090   5.958  19.370  0.00  0.00    +0.000 C 
ATOM     13  O   UNL     1       3.229   5.054  20.194  0.00  0.00    +0.000 OA
ATOM     14  N   UNL     1       3.688   5.887  18.132  0.00  0.00    +0.000 N 
ATOM     15  H   UNL     1       3.358   6.554  17.443  0.00  0.00    +0.000 HD
BRANCH  12  21
ATOM     16  C   UNL     1       0.265   9.874  21.524  0.00  0.00    +0.000 C 
ATOM     17  C   UNL     1       0.978   8.960  20.590  0.00  0.00    +0.000 A 
ATOM     18  N   UNL     1       1.343   9.282  19.370  0.00  0.00    +0.000 NA
ATOM     19  C   UNL     1       2.082   8.252  18.802  0.00  0.00    +0.000 A 
ATOM     20  C   UNL     1       2.587   8.448  17.415  0.00  0.00    +0.000 C 
ATOM     21  C   UNL     1       2.285   7.148  19.623  0.00  0.00    +0.000 A 
ATOM     22  S   UNL     1       1.418   7.381  21.092  0.00  0.00    +0.000 S 
ENDBRANCH  12  21
ENDBRANCH  10  14
ENDBRANCH   1  10
BRANCH   1  23
ATOM     23  O   UNL     1       4.853   5.912  15.522  0.00  0.00    +0.000 OA
ATOM     24  H   UNL     1       5.373   5.795  14.695  0.00  0.00    +0.000 HD
ENDBRANCH   1  23
BRANCH   1  25
ATOM     25  C   UNL     1       6.292   3.999  15.845  0.00  0.00    +0.000 C 
BRANCH  25  26
ATOM     26  N   UNL     1       6.683   4.289  14.466  0.00  0.00    +0.000 N 
ATOM     27  C   UNL     1       6.260   3.689  13.322  0.00  0.00    +0.000 A 
ATOM     28  N   UNL     1       6.889   4.203  12.289  0.00  0.00    +0.000 NA
ATOM     29  C   UNL     1       7.685   5.154  12.854  0.00  0.00    +0.000 A 
ATOM     30  N   UNL     1       7.587   5.255  14.184  0.00  0.00    +0.000 NA
ENDBRANCH  25  26
ENDBRANCH   1  25
TORSDOF 7
ENDMDL
MODEL 3
REMARK VINA RESULT:      -7.3      3.009      4.816
REMARK  Name = 
REMARK  10 active torsions:
REMARK  status: ('A' for Active; 'I' for Inactive)
REMARK    1  A    between atoms: C_1  and  C_2
REMARK    2  A    between atoms: C_4  and  C_5
REMARK    3  A    between atoms: C_6  and  C_7
REMARK    4  A    between atoms: N_9  and  C_10
REMARK    5  A    between atoms: C_10  and  C_11
REMARK    6  A    between atoms: C_10  and  C_12
REMARK    7  A    between atoms: C_12  and  O_13
REMARK    8  A    between atoms: C_12  and  C_14
REMARK    9  A    between atoms: C_12  and  C_20
REMARK   10  A    between atoms: C_14  and  N_15
REMARK                            x       y       z     vdW  Elec       q    Type
REMARK                         _______ _______ _______ _____ _____    ______ ____
ROOT
ATOM      1  C   UNL     1       5.690   5.452  16.369  0.00  0.00    +0.000 C 
ENDROOT
BRANCH   1   2
ATOM      2  C   UNL     1       6.661   6.368  17.147  0.00  0.00    +0.000 A 
ATOM      3  C   UNL     1       6.859   7.725  16.811  0.00  0.00    +0.000 A 
ATOM      4  C   UNL     1       7.720   8.536  17.560  0.00  0.00    +0.000 A 
ATOM      5  C   UNL     1       8.403   8.002  18.643  0.00  0.00    +0.000 A 
ATOM      6  F   UNL     1       9.224   8.783  19.357  0.00  0.00    +0.000 F 
ATOM      7  C   UNL     1       8.259   6.670  18.984  0.00  0.00    +0.000 A 
ATOM      8  C   UNL     1       7.404   5.867  18.234  0.00  0.00    +0.000 A 
ATOM      9  F   UNL     1       7.323   4.572  18.572  0.00  0.00    +0.000 F 
ENDBRANCH   1   2
BRANCH   1  10
ATOM     10  C   UNL     1       4.453   5.103  17.286  0.00  0.00    +0.000 C 
ATOM     11  C   UNL     1       3.556   3.961  16.807  0.00  0.00    +0.000 C 
BRANCH  10  14
ATOM     12  C   UNL     1       3.094   6.482  18.950  0.00  0.00    +0.000 C 
ATOM     13  O   UNL     1       3.241   5.671  19.863  0.00  0.00    +0.000 OA
ATOM     14  N   UNL     1       3.684   6.283  17.722  0.00  0.00    +0.000 N 
ATOM     15  H   UNL     1       3.347   6.873  16.969  0.00  0.00    +0.000 HD
BRANCH  12  21
ATOM     16  C   UNL     1       0.265  10.872  18.126  0.00  0.00    +0.000 C 
ATOM     17  C   UNL     1       0.984   9.716  18.729  0.00  0.00    +0.000 A 
ATOM     18  N   UNL     1       0.776   9.265  19.945  0.00  0.00    +0.000 NA
ATOM     19  C   UNL     1       1.522   8.113  20.163  0.00  0.00    +0.000 A 
ATOM     20  C   UNL     1       1.404   7.457  21.494  0.00  0.00    +0.000 C 
ATOM     21  C   UNL     1       2.288   7.691  19.082  0.00  0.00    +0.000 A 
ATOM     22  S   UNL     1       2.144   8.847  17.814  0.00  0.00    +0.000 S 
ENDBRANCH  12  21
ENDBRANCH  10  14
ENDBRANCH   1  10
BRANCH   1  23
ATOM     23  O   UNL     1       5.112   6.209  15.270  0.00  0.00    +0.000 OA
ATOM     24  H   UNL     1       4.142   6.044  15.310  0.00  0.00    +0.000 HD
ENDBRANCH   1  23
BRANCH   1  25
ATOM     25  C   UNL     1       6.386   4.209  15.732  0.00  0.00    +0.000 C 
BRANCH  25  26
ATOM     26  N   UNL     1       6.753   4.400  14.330  0.00  0.00    +0.000 N 
ATOM     27  C   UNL     1       6.316   3.715  13.239  0.00  0.00    +0.000 A 
ATOM     28  N   UNL     1       6.927   4.156  12.162  0.00  0.00    +0.000 NA
ATOM     29  C   UNL     1       7.726   5.149  12.643  0.00  0.00    +0.000 A 
ATOM     30  N   UNL     1       7.647   5.346  13.963  0.00  0.00    +0.000 NA
ENDBRANCH  25  26
ENDBRANCH   1  25
TORSDOF 7
ENDMDL
MODEL 4
REMARK VINA RESULT:      -7.3      1.180      1.277
REMARK  Name = 
REMARK  10 active torsions:
REMARK  status: ('A' for Active; 'I' for Inactive)
REMARK    1  A    between atoms: C_1  and  C_2
REMARK    2  A    between atoms: C_4  and  C_5
REMARK    3  A    between atoms: C_6  and  C_7
REMARK    4  A    between atoms: N_9  and  C_10
REMARK    5  A    between atoms: C_10  and  C_11
REMARK    6  A    between atoms: C_10  and  C_12
REMARK    7  A    between atoms: C_12  and  O_13
REMARK    8  A    between atoms: C_12  and  C_14
REMARK    9  A    between atoms: C_12  and  C_20
REMARK   10  A    between atoms: C_14  and  N_15
REMARK                            x       y       z     vdW  Elec       q    Type
REMARK                         _______ _______ _______ _____ _____    ______ ____
ROOT
ATOM      1  C   UNL     1       4.170   4.954  17.999  0.00  0.00    +0.000 C 
ENDROOT
BRANCH   1   2
ATOM      2  C   UNL     1       3.174   4.353  19.016  0.00  0.00    +0.000 A 
ATOM      3  C   UNL     1       3.503   4.156  20.375  0.00  0.00    +0.000 A 
ATOM      4  C   UNL     1       2.564   3.643  21.278  0.00  0.00    +0.000 A 
ATOM      5  C   UNL     1       1.293   3.305  20.836  0.00  0.00    +0.000 A 
ATOM      6  F   UNL     1       0.399   2.816  21.704  0.00  0.00    +0.000 F 
ATOM      7  C   UNL     1       0.944   3.455  19.506  0.00  0.00    +0.000 A 
ATOM      8  C   UNL     1       1.882   3.964  18.611  0.00  0.00    +0.000 A 
ATOM      9  F   UNL     1       1.517   4.055  17.325  0.00  0.00    +0.000 F 
ENDBRANCH   1   2
BRANCH   1  10
ATOM     10  C   UNL     1       3.649   6.371  17.534  0.00  0.00    +0.000 C 
ATOM     11  C   UNL     1       4.708   7.342  17.009  0.00  0.00    +0.000 C 
BRANCH  10  14
ATOM     12  C   UNL     1       2.088   8.221  18.346  0.00  0.00    +0.000 C 
ATOM     13  O   UNL     1       2.197   8.876  17.310  0.00  0.00    +0.000 OA
ATOM     14  N   UNL     1       2.720   7.006  18.486  0.00  0.00    +0.000 N 
ATOM     15  H   UNL     1       2.758   6.634  19.429  0.00  0.00    +0.000 HD
BRANCH  12  21
ATOM     16  C   UNL     1       0.236   9.297  23.180  0.00  0.00    +0.000 C 
ATOM     17  C   UNL     1       0.435   9.178  21.709  0.00  0.00    +0.000 A 
ATOM     18  N   UNL     1      -0.172   9.924  20.815  0.00  0.00    +0.000 NA
ATOM     19  C   UNL     1       0.312   9.639  19.543  0.00  0.00    +0.000 A 
ATOM     20  C   UNL     1      -0.262  10.401  18.401  0.00  0.00    +0.000 C 
ATOM     21  C   UNL     1       1.310   8.672  19.494  0.00  0.00    +0.000 A 
ATOM     22  S   UNL     1       1.546   8.035  21.076  0.00  0.00    +0.000 S 
ENDBRANCH  12  21
ENDBRANCH  10  14
ENDBRANCH   1  10
BRANCH   1  23
ATOM     23  O   UNL     1       5.419   5.245  18.683  0.00  0.00    +0.000 OA
ATOM     24  H   UNL     1       6.073   5.451  17.976  0.00  0.00    +0.000 HD
ENDBRANCH   1  23
BRANCH   1  25
ATOM     25  C   UNL     1       4.521   3.985  16.828  0.00  0.00    +0.000 C 
BRANCH  25  26
ATOM     26  N   UNL     1       5.629   4.453  15.996  0.00  0.00    +0.000 N 
ATOM     27  C   UNL     1       5.594   4.901  14.713  0.00  0.00    +0.000 A 
ATOM     28  N   UNL     1       6.812   5.178  14.304  0.00  0.00    +0.000 NA
ATOM     29  C   UNL     1       7.576   4.905  15.398  0.00  0.00    +0.000 A 
ATOM     30  N   UNL     1       6.898   4.469  16.465  0.00  0.00    +0.000 NA
ENDBRANCH  25  26
ENDBRANCH   1  25
TORSDOF 7
ENDMDL
MODEL 5
REMARK VINA RESULT:      -7.1      3.125      4.947
REMARK  Name = 
REMARK  10 active torsions:
REMARK  status: ('A' for Active; 'I' for Inactive)
REMARK    1  A    between atoms: C_1  and  C_2
REMARK    2  A    between atoms: C_4  and  C_5
REMARK    3  A    between atoms: C_6  and  C_7
REMARK    4  A    between atoms: N_9  and  C_10
REMARK    5  A    between atoms: C_10  and  C_11
REMARK    6  A    between atoms: C_10  and  C_12
REMARK    7  A    between atoms: C_12  and  O_13
REMARK    8  A    between atoms: C_12  and  C_14
REMARK    9  A    between atoms: C_12  and  C_20
REMARK   10  A    between atoms: C_14  and  N_15
REMARK                            x       y       z     vdW  Elec       q    Type
REMARK                         _______ _______ _______ _____ _____    ______ ____
ROOT
ATOM      1  C   UNL     1       2.789   5.923  18.804  0.00  0.00    +0.000 C 
ENDROOT
BRANCH   1   2
ATOM      2  C   UNL     1       4.239   5.485  18.503  0.00  0.00    +0.000 A 
ATOM      3  C   UNL     1       5.315   5.777  19.369  0.00  0.00    +0.000 A 
ATOM      4  C   UNL     1       6.612   5.334  19.084  0.00  0.00    +0.000 A 
ATOM      5  C   UNL     1       6.856   4.608  17.928  0.00  0.00    +0.000 A 
ATOM      6  F   UNL     1       8.098   4.185  17.661  0.00  0.00    +0.000 F 
ATOM      7  C   UNL     1       5.832   4.328  17.040  0.00  0.00    +0.000 A 
ATOM      8  C   UNL     1       4.545   4.774  17.326  0.00  0.00    +0.000 A 
ATOM      9  F   UNL     1       3.591   4.517  16.421  0.00  0.00    +0.000 F 
ENDBRANCH   1   2
BRANCH   1  10
ATOM     10  C   UNL     1       2.516   7.324  18.128  0.00  0.00    +0.000 C 
ATOM     11  C   UNL     1       3.621   7.865  17.221  0.00  0.00    +0.000 C 
BRANCH  10  14
ATOM     12  C   UNL     1       1.088   9.338  18.779  0.00  0.00    +0.000 C 
ATOM     13  O   UNL     1       0.544   9.408  17.678  0.00  0.00    +0.000 OA
ATOM     14  N   UNL     1       1.997   8.343  19.059  0.00  0.00    +0.000 N 
ATOM     15  H   UNL     1       2.553   8.475  19.897  0.00  0.00    +0.000 HD
BRANCH  12  21
ATOM     16  C   UNL     1       0.285  13.664  21.711  0.00  0.00    +0.000 C 
ATOM     17  C   UNL     1       0.464  12.267  21.226  0.00  0.00    +0.000 A 
ATOM     18  N   UNL     1       0.068  11.198  21.878  0.00  0.00    +0.000 NA
ATOM     19  C   UNL     1       0.283  10.061  21.109  0.00  0.00    +0.000 A 
ATOM     20  C   UNL     1      -0.116   8.750  21.691  0.00  0.00    +0.000 C 
ATOM     21  C   UNL     1       0.834  10.291  19.854  0.00  0.00    +0.000 A 
ATOM     22  S   UNL     1       1.195  11.968  19.704  0.00  0.00    +0.000 S 
ENDBRANCH  12  21
ENDBRANCH  10  14
ENDBRANCH   1  10
BRANCH   1  23
ATOM     23  O   UNL     1       1.876   5.019  18.121  0.00  0.00    +0.000 OA
ATOM     24  H   UNL     1       2.320   4.773  17.278  0.00  0.00    +0.000 HD
ENDBRANCH   1  23
BRANCH   1  25
ATOM     25  C   UNL     1       2.423   5.861  20.319  0.00  0.00    +0.000 C 
BRANCH  25  26
ATOM     26  N   UNL     1       2.098   4.514  20.787  0.00  0.00    +0.000 N 
ATOM     27  C   UNL     1       2.873   3.658  21.504  0.00  0.00    +0.000 A 
ATOM     28  N   UNL     1       2.237   2.521  21.679  0.00  0.00    +0.000 NA
ATOM     29  C   UNL     1       1.041   2.738  21.066  0.00  0.00    +0.000 A 
ATOM     30  N   UNL     1       0.901   3.948  20.514  0.00  0.00    +0.000 NA
ENDBRANCH  25  26
ENDBRANCH   1  25
TORSDOF 7
ENDMDL
MODEL 6
REMARK VINA RESULT:      -7.0      1.843      2.363
REMARK  Name = 
REMARK  10 active torsions:
REMARK  status: ('A' for Active; 'I' for Inactive)
REMARK    1  A    between atoms: C_1  and  C_2
REMARK    2  A    between atoms: C_4  and  C_5
REMARK    3  A    between atoms: C_6  and  C_7
REMARK    4  A    between atoms: N_9  and  C_10
REMARK    5  A    between atoms: C_10  and  C_11
REMARK    6  A    between atoms: C_10  and  C_12
REMARK    7  A    between atoms: C_12  and  O_13
REMARK    8  A    between atoms: C_12  and  C_14
REMARK    9  A    between atoms: C_12  and  C_20
REMARK   10  A    between atoms: C_14  and  N_15
REMARK                            x       y       z     vdW  Elec       q    Type
REMARK                         _______ _______ _______ _____ _____    ______ ____
ROOT
ATOM      1  C   UNL     1       5.117   4.985  18.352  0.00  0.00    +0.000 C 
ENDROOT
BRANCH   1   2
ATOM      2  C   UNL     1       3.822   4.145  18.421  0.00  0.00    +0.000 A 
ATOM      3  C   UNL     1       2.632   4.530  17.767  0.00  0.00    +0.000 A 
ATOM      4  C   UNL     1       1.486   3.727  17.820  0.00  0.00    +0.000 A 
ATOM      5  C   UNL     1       1.508   2.540  18.537  0.00  0.00    +0.000 A 
ATOM      6  F   UNL     1       0.410   1.775  18.584  0.00  0.00    +0.000 F 
ATOM      7  C   UNL     1       2.646   2.144  19.217  0.00  0.00    +0.000 A 
ATOM      8  C   UNL     1       3.781   2.948  19.163  0.00  0.00    +0.000 A 
ATOM      9  F   UNL     1       4.849   2.550  19.868  0.00  0.00    +0.000 F 
ENDBRANCH   1   2
BRANCH   1  10
ATOM     10  C   UNL     1       4.787   6.404  17.742  0.00  0.00    +0.000 C 
ATOM     11  C   UNL     1       5.986   7.296  17.417  0.00  0.00    +0.000 C 
BRANCH  10  14
ATOM     12  C   UNL     1       2.829   8.032  17.928  0.00  0.00    +0.000 C 
ATOM     13  O   UNL     1       2.804   8.262  16.720  0.00  0.00    +0.000 OA
ATOM     14  N   UNL     1       3.721   7.127  18.459  0.00  0.00    +0.000 N 
ATOM     15  H   UNL     1       3.826   7.150  19.468  0.00  0.00    +0.000 HD
BRANCH  12  21
ATOM     16  C   UNL     1      -0.611  11.215  20.376  0.00  0.00    +0.000 C 
ATOM     17  C   UNL     1       0.370  10.148  20.034  0.00  0.00    +0.000 A 
ATOM     18  N   UNL     1       0.540   9.046  20.727  0.00  0.00    +0.000 NA
ATOM     19  C   UNL     1       1.447   8.210  20.086  0.00  0.00    +0.000 A 
ATOM     20  C   UNL     1       1.756   6.905  20.730  0.00  0.00    +0.000 C 
ATOM     21  C   UNL     1       1.949   8.695  18.884  0.00  0.00    +0.000 A 
ATOM     22  S   UNL     1       1.347  10.289  18.632  0.00  0.00    +0.000 S 
ENDBRANCH  12  21
ENDBRANCH  10  14
ENDBRANCH   1  10
BRANCH   1  23
ATOM     23  O   UNL     1       5.557   5.278  19.707  0.00  0.00    +0.000 OA
ATOM     24  H   UNL     1       6.015   6.148  19.659  0.00  0.00    +0.000 HD
ENDBRANCH   1  23
BRANCH   1  25
ATOM     25  C   UNL     1       6.299   4.246  17.652  0.00  0.00    +0.000 C 
BRANCH  25  26
ATOM     26  N   UNL     1       6.278   4.363  16.194  0.00  0.00    +0.000 N 
ATOM     27  C   UNL     1       5.292   4.003  15.331  0.00  0.00    +0.000 A 
ATOM     28  N   UNL     1       5.681   4.221  14.094  0.00  0.00    +0.000 NA
ATOM     29  C   UNL     1       6.926   4.749  14.249  0.00  0.00    +0.000 A 
ATOM     30  N   UNL     1       7.334   4.868  15.518  0.00  0.00    +0.000 NA
ENDBRANCH  25  26
ENDBRANCH   1  25
TORSDOF 7
ENDMDL
MODEL 7
REMARK VINA RESULT:      -6.9      1.149      1.453
REMARK  Name = 
REMARK  10 active torsions:
REMARK  status: ('A' for Active; 'I' for Inactive)
REMARK    1  A    between atoms: C_1  and  C_2
REMARK    2  A    between atoms: C_4  and  C_5
REMARK    3  A    between atoms: C_6  and  C_7
REMARK    4  A    between atoms: N_9  and  C_10
REMARK    5  A    between atoms: C_10  and  C_11
REMARK    6  A    between atoms: C_10  and  C_12
REMARK    7  A    between atoms: C_12  and  O_13
REMARK    8  A    between atoms: C_12  and  C_14
REMARK    9  A    between atoms: C_12  and  C_20
REMARK   10  A    between atoms: C_14  and  N_15
REMARK                            x       y       z     vdW  Elec       q    Type
REMARK                         _______ _______ _______ _____ _____    ______ ____
ROOT
ATOM      1  C   UNL     1       4.673   4.074  18.198  0.00  0.00    +0.000 C 
ENDROOT
BRANCH   1   2
ATOM      2  C   UNL     1       3.548   3.637  19.162  0.00  0.00    +0.000 A 
ATOM      3  C   UNL     1       3.810   3.005  20.398  0.00  0.00    +0.000 A 
ATOM      4  C   UNL     1       2.768   2.655  21.264  0.00  0.00    +0.000 A 
ATOM      5  C   UNL     1       1.453   2.917  20.906  0.00  0.00    +0.000 A 
ATOM      6  F   UNL     1       0.461   2.581  21.739  0.00  0.00    +0.000 F 
ATOM      7  C   UNL     1       1.156   3.506  19.690  0.00  0.00    +0.000 A 
ATOM      8  C   UNL     1       2.196   3.850  18.830  0.00  0.00    +0.000 A 
ATOM      9  F   UNL     1       1.863   4.382  17.646  0.00  0.00    +0.000 F 
ENDBRANCH   1   2
BRANCH   1  10
ATOM     10  C   UNL     1       5.110   5.552  18.541  0.00  0.00    +0.000 C 
ATOM     11  C   UNL     1       6.308   5.704  19.480  0.00  0.00    +0.000 C 
BRANCH  10  14
ATOM     12  C   UNL     1       3.333   7.329  18.089  0.00  0.00    +0.000 C 
ATOM     13  O   UNL     1       3.601   7.405  16.891  0.00  0.00    +0.000 OA
ATOM     14  N   UNL     1       3.988   6.435  18.907  0.00  0.00    +0.000 N 
ATOM     15  H   UNL     1       3.867   6.578  19.904  0.00  0.00    +0.000 HD
BRANCH  12  21
ATOM     16  C   UNL     1      -0.389  10.902  19.244  0.00  0.00    +0.000 C 
ATOM     17  C   UNL     1       0.619   9.807  19.294  0.00  0.00    +0.000 A 
ATOM     18  N   UNL     1       0.675   8.891  20.233  0.00  0.00    +0.000 NA
ATOM     19  C   UNL     1       1.655   7.954  19.932  0.00  0.00    +0.000 A 
ATOM     20  C   UNL     1       1.854   6.832  20.889  0.00  0.00    +0.000 C 
ATOM     21  C   UNL     1       2.331   8.169  18.736  0.00  0.00    +0.000 A 
ATOM     22  S   UNL     1       1.789   9.653  18.050  0.00  0.00    +0.000 S 
ENDBRANCH  12  21
ENDBRANCH  10  14
ENDBRANCH   1  10
BRANCH   1  23
ATOM     23  O   UNL     1       5.861   3.282  18.475  0.00  0.00    +0.000 OA
ATOM     24  H   UNL     1       5.855   3.118  19.446  0.00  0.00    +0.000 HD
ENDBRANCH   1  23
BRANCH   1  25
ATOM     25  C   UNL     1       4.327   3.841  16.695  0.00  0.00    +0.000 C 
BRANCH  25  26
ATOM     26  N   UNL     1       5.355   4.329  15.776  0.00  0.00    +0.000 N 
ATOM     27  C   UNL     1       5.269   5.335  14.866  0.00  0.00    +0.000 A 
ATOM     28  N   UNL     1       6.397   5.428  14.196  0.00  0.00    +0.000 NA
ATOM     29  C   UNL     1       7.171   4.458  14.758  0.00  0.00    +0.000 A 
ATOM     30  N   UNL     1       6.584   3.764  15.739  0.00  0.00    +0.000 NA
ENDBRANCH  25  26
ENDBRANCH   1  25
TORSDOF 7
ENDMDL
MODEL 8
REMARK VINA RESULT:      -6.9      1.682      2.331
REMARK  Name = 
REMARK  10 active torsions:
REMARK  status: ('A' for Active; 'I' for Inactive)
REMARK    1  A    between atoms: C_1  and  C_2
REMARK    2  A    between atoms: C_4  and  C_5
REMARK    3  A    between atoms: C_6  and  C_7
REMARK    4  A    between atoms: N_9  and  C_10
REMARK    5  A    between atoms: C_10  and  C_11
REMARK    6  A    between atoms: C_10  and  C_12
REMARK    7  A    between atoms: C_12  and  O_13
REMARK    8  A    between atoms: C_12  and  C_14
REMARK    9  A    between atoms: C_12  and  C_20
REMARK   10  A    between atoms: C_14  and  N_15
REMARK                            x       y       z     vdW  Elec       q    Type
REMARK                         _______ _______ _______ _____ _____    ______ ____
ROOT
ATOM      1  C   UNL     1       4.985   4.531  16.892  0.00  0.00    +0.000 C 
ENDROOT
BRANCH   1   2
ATOM      2  C   UNL     1       3.932   3.883  17.818  0.00  0.00    +0.000 A 
ATOM      3  C   UNL     1       2.572   3.765  17.456  0.00  0.00    +0.000 A 
ATOM      4  C   UNL     1       1.651   3.140  18.305  0.00  0.00    +0.000 A 
ATOM      5  C   UNL     1       2.069   2.639  19.529  0.00  0.00    +0.000 A 
ATOM      6  F   UNL     1       1.184   2.040  20.336  0.00  0.00    +0.000 F 
ATOM      7  C   UNL     1       3.387   2.763  19.932  0.00  0.00    +0.000 A 
ATOM      8  C   UNL     1       4.298   3.389  19.085  0.00  0.00    +0.000 A 
ATOM      9  F   UNL     1       5.555   3.525  19.529  0.00  0.00    +0.000 F 
ENDBRANCH   1   2
BRANCH   1  10
ATOM     10  C   UNL     1       5.380   5.949  17.462  0.00  0.00    +0.000 C 
ATOM     11  C   UNL     1       6.708   6.030  18.216  0.00  0.00    +0.000 C 
BRANCH  10  14
ATOM     12  C   UNL     1       3.365   7.508  17.636  0.00  0.00    +0.000 C 
ATOM     13  O   UNL     1       3.341   7.741  16.428  0.00  0.00    +0.000 OA
ATOM     14  N   UNL     1       4.283   6.632  18.172  0.00  0.00    +0.000 N 
ATOM     15  H   UNL     1       4.379   6.656  19.181  0.00  0.00    +0.000 HD
BRANCH  12  21
ATOM     16  C   UNL     1      -0.181  10.581  20.073  0.00  0.00    +0.000 C 
ATOM     17  C   UNL     1       0.826   9.539  19.732  0.00  0.00    +0.000 A 
ATOM     18  N   UNL     1       1.002   8.426  20.407  0.00  0.00    +0.000 NA
ATOM     19  C   UNL     1       1.937   7.620  19.769  0.00  0.00    +0.000 A 
ATOM     20  C   UNL     1       2.257   6.308  20.394  0.00  0.00    +0.000 C 
ATOM     21  C   UNL     1       2.454   8.137  18.586  0.00  0.00    +0.000 A 
ATOM     22  S   UNL     1       1.828   9.724  18.352  0.00  0.00    +0.000 S 
ENDBRANCH  12  21
ENDBRANCH  10  14
ENDBRANCH   1  10
BRANCH   1  23
ATOM     23  O   UNL     1       6.217   3.763  16.974  0.00  0.00    +0.000 OA
ATOM     24  H   UNL     1       6.300   3.487  17.916  0.00  0.00    +0.000 HD
ENDBRANCH   1  23
BRANCH   1  25
ATOM     25  C   UNL     1       4.568   4.539  15.389  0.00  0.00    +0.000 C 
BRANCH  25  26
ATOM     26  N   UNL     1       5.704   4.542  14.467  0.00  0.00    +0.000 N 
ATOM     27  C   UNL     1       5.931   3.729  13.401  0.00  0.00    +0.000 A 
ATOM     28  N   UNL     1       7.094   4.018  12.860  0.00  0.00    +0.000 NA
ATOM     29  C   UNL     1       7.543   5.052  13.625  0.00  0.00    +0.000 A 
ATOM     30  N   UNL     1       6.722   5.419  14.615  0.00  0.00    +0.000 NA
ENDBRANCH  25  26
ENDBRANCH   1  25
TORSDOF 7
ENDMDL
MODEL 9
REMARK VINA RESULT:      -6.9      3.061      4.788
REMARK  Name = 
REMARK  10 active torsions:
REMARK  status: ('A' for Active; 'I' for Inactive)
REMARK    1  A    between atoms: C_1  and  C_2
REMARK    2  A    between atoms: C_4  and  C_5
REMARK    3  A    between atoms: C_6  and  C_7
REMARK    4  A    between atoms: N_9  and  C_10
REMARK    5  A    between atoms: C_10  and  C_11
REMARK    6  A    between atoms: C_10  and  C_12
REMARK    7  A    between atoms: C_12  and  O_13
REMARK    8  A    between atoms: C_12  and  C_14
REMARK    9  A    between atoms: C_12  and  C_20
REMARK   10  A    between atoms: C_14  and  N_15
REMARK                            x       y       z     vdW  Elec       q    Type
REMARK                         _______ _______ _______ _____ _____    ______ ____
ROOT
ATOM      1  C   UNL     1       3.016   5.793  18.644  0.00  0.00    +0.000 C 
ENDROOT
BRANCH   1   2
ATOM      2  C   UNL     1       4.480   5.386  18.366  0.00  0.00    +0.000 A 
ATOM      3  C   UNL     1       5.519   5.610  19.295  0.00  0.00    +0.000 A 
ATOM      4  C   UNL     1       6.829   5.195  19.026  0.00  0.00    +0.000 A 
ATOM      5  C   UNL     1       7.122   4.567  17.825  0.00  0.00    +0.000 A 
ATOM      6  F   UNL     1       8.376   4.171  17.573  0.00  0.00    +0.000 F 
ATOM      7  C   UNL     1       6.136   4.358  16.877  0.00  0.00    +0.000 A 
ATOM      8  C   UNL     1       4.836   4.775  17.148  0.00  0.00    +0.000 A 
ATOM      9  F   UNL     1       3.919   4.590  16.188  0.00  0.00    +0.000 F 
ENDBRANCH   1   2
BRANCH   1  10
ATOM     10  C   UNL     1       2.713   7.170  17.932  0.00  0.00    +0.000 C 
ATOM     11  C   UNL     1       3.927   7.960  17.440  0.00  0.00    +0.000 C 
BRANCH  10  14
ATOM     12  C   UNL     1       1.405   9.319  18.374  0.00  0.00    +0.000 C 
ATOM     13  O   UNL     1       1.858   9.891  17.384  0.00  0.00    +0.000 OA
ATOM     14  N   UNL     1       1.744   8.014  18.656  0.00  0.00    +0.000 N 
ATOM     15  H   UNL     1       1.506   7.687  19.586  0.00  0.00    +0.000 HD
BRANCH  12  21
ATOM     16  C   UNL     1      -0.783  11.732  22.539  0.00  0.00    +0.000 C 
ATOM     17  C   UNL     1      -0.529  11.071  21.229  0.00  0.00    +0.000 A 
ATOM     18  N   UNL     1      -1.319  11.163  20.185  0.00  0.00    +0.000 NA
ATOM     19  C   UNL     1      -0.747  10.526  19.091  0.00  0.00    +0.000 A 
ATOM     20  C   UNL     1      -1.506  10.537  17.811  0.00  0.00    +0.000 C 
ATOM     21  C   UNL     1       0.503   9.963  19.323  0.00  0.00    +0.000 A 
ATOM     22  S   UNL     1       0.895  10.145  20.989  0.00  0.00    +0.000 S 
ENDBRANCH  12  21
ENDBRANCH  10  14
ENDBRANCH   1  10
BRANCH   1  23
ATOM     23  O   UNL     1       2.133   4.851  17.976  0.00  0.00    +0.000 OA
ATOM     24  H   UNL     1       1.383   4.698  18.596  0.00  0.00    +0.000 HD
ENDBRANCH   1  23
BRANCH   1  25
ATOM     25  C   UNL     1       2.638   5.759  20.157  0.00  0.00    +0.000 C 
BRANCH  25  26
ATOM     26  N   UNL     1       2.162   4.453  20.611  0.00  0.00    +0.000 N 
ATOM     27  C   UNL     1       2.856   3.476  21.255  0.00  0.00    +0.000 A 
ATOM     28  N   UNL     1       2.083   2.430  21.442  0.00  0.00    +0.000 NA
ATOM     29  C   UNL     1       0.893   2.825  20.911  0.00  0.00    +0.000 A 
ATOM     30  N   UNL     1       0.885   4.061  20.400  0.00  0.00    +0.000 NA
ENDBRANCH  25  26
ENDBRANCH   1  25
TORSDOF 7
ENDMDL
