MODEL 1
REMARK VINA RESULT:      -6.9      0.000      0.000
REMARK  Name = 
REMARK  13 active torsions:
REMARK  status: ('A' for Active; 'I' for Inactive)
REMARK    1  A    between atoms: C_1  and  C_2
REMARK    2  A    between atoms: C_2  and  N_3
REMARK    3  A    between atoms: N_3  and  C_4
REMARK    4  A    between atoms: C_4  and  C_5
REMARK    5  A    between atoms: N_8  and  S_9
REMARK    6  A    between atoms: S_9  and  C_12
REMARK    7  A    between atoms: C_14  and  C_15
REMARK    8  A    between atoms: C_15  and  C_16
REMARK    9  A    between atoms: C_16  and  C_17
REMARK   10  A    between atoms: C_16  and  C_18
REMARK   11  A    between atoms: C_20  and  C_21
REMARK   12  A    between atoms: C_25  and  C_26
REMARK   13  A    between atoms: C_26  and  N_27
REMARK                            x       y       z     vdW  Elec       q    Type
REMARK                         _______ _______ _______ _____ _____    ______ ____
ROOT
ATOM      1  C   UNL     1       0.209  11.782  19.973  0.00  0.00    +0.000 A 
ATOM      2  S   UNL     1       1.136  13.081  20.634  0.00  0.00    +0.000 S 
ATOM      3  C   UNL     1       0.563  14.189  19.476  0.00  0.00    +0.000 A 
ATOM      4  C   UNL     1      -0.259  13.571  18.561  0.00  0.00    +0.000 A 
ATOM      5  C   UNL     1      -0.560  12.210  18.900  0.00  0.00    +0.000 A 
ENDROOT
BRANCH   5   6
ATOM      6  C   UNL     1      -1.575  11.412  18.218  0.00  0.00    +0.000 A 
ATOM      7  C   UNL     1      -1.220  10.234  17.548  0.00  0.00    +0.000 A 
ATOM      8  C   UNL     1      -2.154   9.551  16.767  0.00  0.00    +0.000 A 
ATOM      9  C   UNL     1      -3.469  10.013  16.682  0.00  0.00    +0.000 A 
ATOM     10  C   UNL     1      -3.855  11.166  17.374  0.00  0.00    +0.000 A 
ATOM     11  C   UNL     1      -2.890  11.879  18.099  0.00  0.00    +0.000 A 
BRANCH  10  12
ATOM     12  C   UNL     1      -5.276  11.657  17.358  0.00  0.00    +0.000 C 
BRANCH  12  13
ATOM     13  N   UNL     1      -5.901  11.550  18.661  0.00  0.00    +0.000 N 
ATOM     14  C   UNL     1      -5.819  12.455  19.684  0.00  0.00    +0.000 A 
ATOM     15  C   UNL     1      -6.470  11.858  20.737  0.00  0.00    +0.000 A 
ATOM     16  N   UNL     1      -6.946  10.622  20.380  0.00  0.00    +0.000 NA
ATOM     17  C   UNL     1      -6.591  10.466  19.124  0.00  0.00    +0.000 A 
ENDBRANCH  12  13
ENDBRANCH  10  12
ENDBRANCH   5   6
BRANCH   1  18
ATOM     18  S   UNL     1       0.491  10.231  20.806  0.00  0.00    +0.000 S 
ATOM     19  O   UNL     1      -0.794   9.601  21.051  0.00  0.00    +0.000 OA
ATOM     20  O   UNL     1       1.365  10.536  21.922  0.00  0.00    +0.000 OA
BRANCH  18  24
ATOM     21  N   UNL     1       2.438   7.210  19.232  0.00  0.00    +0.000 N 
ATOM     22  C   UNL     1       1.685   7.934  20.150  0.00  0.00    +0.000 C 
ATOM     23  O   UNL     1       1.324   7.454  21.215  0.00  0.00    +0.000 OA
ATOM     24  N   UNL     1       1.348   9.235  19.801  0.00  0.00    +0.000 N 
ATOM     25  H   UNL     1       1.696   9.701  18.976  0.00  0.00    +0.000 HD
BRANCH  21  27
ATOM     26  C   UNL     1       2.004   4.769  19.012  0.00  0.00    +0.000 C 
ATOM     27  C   UNL     1       2.852   5.868  19.641  0.00  0.00    +0.000 C 
ENDBRANCH  21  27
BRANCH  21  28
ATOM     28  C   UNL     1       2.829   7.775  17.937  0.00  0.00    +0.000 C 
ATOM     29  C   UNL     1       4.065   7.220  17.253  0.00  0.00    +0.000 C 
ENDBRANCH  21  28
ENDBRANCH  18  24
ENDBRANCH   1  18
BRANCH   3  30
ATOM     30  C   UNL     1       0.924  15.645  19.542  0.00  0.00    +0.000 C 
BRANCH  30  31
ATOM     31  C   UNL     1       0.156  16.477  18.492  0.00  0.00    +0.000 C 
ATOM     32  C   UNL     1      -1.090  17.151  19.076  0.00  0.00    +0.000 C 
ATOM     33  C   UNL     1       1.072  17.534  17.876  0.00  0.00    +0.000 C 
ENDBRANCH  30  31
ENDBRANCH   3  30
TORSDOF 9
ENDMDL
MODEL 2
REMARK VINA RESULT:      -6.9      0.736      1.113
REMARK  Name = 
REMARK  13 active torsions:
REMARK  status: ('A' for Active; 'I' for Inactive)
REMARK    1  A    between atoms: C_1  and  C_2
REMARK    2  A    between atoms: C_2  and  N_3
REMARK    3  A    between atoms: N_3  and  C_4
REMARK    4  A    between atoms: C_4  and  C_5
REMARK    5  A    between atoms: N_8  and  S_9
REMARK    6  A    between atoms: S_9  and  C_12
REMARK    7  A    between atoms: C_14  and  C_15
REMARK    8  A    between atoms: C_15  and  C_16
REMARK    9  A    between atoms: C_16  and  C_17
REMARK   10  A    between atoms: C_16  and  C_18
REMARK   11  A    between atoms: C_20  and  C_21
REMARK   12  A    between atoms: C_25  and  C_26
REMARK   13  A    between atoms: C_26  and  N_27
REMARK                            x       y       z     vdW  Elec       q    Type
REMARK                         _______ _______ _______ _____ _____    ______ ____
ROOT
ATOM      1  C   UNL     1       0.333  11.743  19.827  0.00  0.00    +0.000 A 
ATOM      2  S   UNL     1       1.382  12.994  20.390  0.00  0.00    +0.000 S 
ATOM      3  C   UNL     1       0.828  14.099  19.220  0.00  0.00    +0.000 A 
ATOM      4  C   UNL     1      -0.081  13.511  18.372  0.00  0.00    +0.000 A 
ATOM      5  C   UNL     1      -0.459  12.188  18.777  0.00  0.00    +0.000 A 
ENDROOT
BRANCH   5   6
ATOM      6  C   UNL     1      -1.562  11.442  18.177  0.00  0.00    +0.000 A 
ATOM      7  C   UNL     1      -1.323  10.226  17.522  0.00  0.00    +0.000 A 
ATOM      8  C   UNL     1      -2.343   9.587  16.816  0.00  0.00    +0.000 A 
ATOM      9  C   UNL     1      -3.628  10.132  16.793  0.00  0.00    +0.000 A 
ATOM     10  C   UNL     1      -3.898  11.325  17.471  0.00  0.00    +0.000 A 
ATOM     11  C   UNL     1      -2.848  11.990  18.120  0.00  0.00    +0.000 A 
BRANCH  10  12
ATOM     12  C   UNL     1      -5.283  11.907  17.522  0.00  0.00    +0.000 C 
BRANCH  12  13
ATOM     13  N   UNL     1      -5.924  11.671  18.801  0.00  0.00    +0.000 N 
ATOM     14  C   UNL     1      -5.874  12.480  19.902  0.00  0.00    +0.000 A 
ATOM     15  C   UNL     1      -6.528  11.777  20.887  0.00  0.00    +0.000 A 
ATOM     16  N   UNL     1      -6.975  10.571  20.411  0.00  0.00    +0.000 NA
ATOM     17  C   UNL     1      -6.600  10.537  19.152  0.00  0.00    +0.000 A 
ENDBRANCH  12  13
ENDBRANCH  10  12
ENDBRANCH   5   6
BRANCH   1  18
ATOM     18  S   UNL     1       0.548  10.206  20.704  0.00  0.00    +0.000 S 
ATOM     19  O   UNL     1      -0.761   9.632  20.954  0.00  0.00    +0.000 OA
ATOM     20  O   UNL     1       1.425  10.508  21.820  0.00  0.00    +0.000 OA
BRANCH  18  24
ATOM     21  N   UNL     1       2.441   7.091  19.252  0.00  0.00    +0.000 N 
ATOM     22  C   UNL     1       1.716   7.870  20.147  0.00  0.00    +0.000 C 
ATOM     23  O   UNL     1       1.381   7.452  21.247  0.00  0.00    +0.000 OA
ATOM     24  N   UNL     1       1.374   9.151  19.734  0.00  0.00    +0.000 N 
ATOM     25  H   UNL     1       1.703   9.568  18.876  0.00  0.00    +0.000 HD
BRANCH  21  27
ATOM     26  C   UNL     1       1.890   4.665  19.332  0.00  0.00    +0.000 C 
ATOM     27  C   UNL     1       2.861   5.772  19.725  0.00  0.00    +0.000 C 
ENDBRANCH  21  27
BRANCH  21  28
ATOM     28  C   UNL     1       2.800   7.581  17.918  0.00  0.00    +0.000 C 
ATOM     29  C   UNL     1       4.055   7.033  17.263  0.00  0.00    +0.000 C 
ENDBRANCH  21  28
ENDBRANCH  18  24
ENDBRANCH   1  18
BRANCH   3  30
ATOM     30  C   UNL     1       1.294  15.528  19.212  0.00  0.00    +0.000 C 
BRANCH  30  31
ATOM     31  C   UNL     1       2.742  15.657  18.690  0.00  0.00    +0.000 C 
ATOM     32  C   UNL     1       2.856  16.640  17.519  0.00  0.00    +0.000 C 
ATOM     33  C   UNL     1       3.677  16.090  19.819  0.00  0.00    +0.000 C 
ENDBRANCH  30  31
ENDBRANCH   3  30
TORSDOF 9
ENDMDL
MODEL 3
REMARK VINA RESULT:      -6.7      0.691      1.000
REMARK  Name = 
REMARK  13 active torsions:
REMARK  status: ('A' for Active; 'I' for Inactive)
REMARK    1  A    between atoms: C_1  and  C_2
REMARK    2  A    between atoms: C_2  and  N_3
REMARK    3  A    between atoms: N_3  and  C_4
REMARK    4  A    between atoms: C_4  and  C_5
REMARK    5  A    between atoms: N_8  and  S_9
REMARK    6  A    between atoms: S_9  and  C_12
REMARK    7  A    between atoms: C_14  and  C_15
REMARK    8  A    between atoms: C_15  and  C_16
REMARK    9  A    between atoms: C_16  and  C_17
REMARK   10  A    between atoms: C_16  and  C_18
REMARK   11  A    between atoms: C_20  and  C_21
REMARK   12  A    between atoms: C_25  and  C_26
REMARK   13  A    between atoms: C_26  and  N_27
REMARK                            x       y       z     vdW  Elec       q    Type
REMARK                         _______ _______ _______ _____ _____    ______ ____
ROOT
ATOM      1  C   UNL     1       0.440  11.518  20.076  0.00  0.00    +0.000 A 
ATOM      2  S   UNL     1       1.504  12.698  20.751  0.00  0.00    +0.000 S 
ATOM      3  C   UNL     1       0.928  13.926  19.723  0.00  0.00    +0.000 A 
ATOM      4  C   UNL     1       0.000  13.435  18.834  0.00  0.00    +0.000 A 
ATOM      5  C   UNL     1      -0.373  12.075  19.099  0.00  0.00    +0.000 A 
ENDROOT
BRANCH   5   6
ATOM      6  C   UNL     1      -1.490  11.400  18.444  0.00  0.00    +0.000 A 
ATOM      7  C   UNL     1      -1.271  10.254  17.669  0.00  0.00    +0.000 A 
ATOM      8  C   UNL     1      -2.306   9.696  16.918  0.00  0.00    +0.000 A 
ATOM      9  C   UNL     1      -3.587  10.249  16.968  0.00  0.00    +0.000 A 
ATOM     10  C   UNL     1      -3.837  11.371  17.765  0.00  0.00    +0.000 A 
ATOM     11  C   UNL     1      -2.773  11.961  18.461  0.00  0.00    +0.000 A 
BRANCH  10  12
ATOM     12  C   UNL     1      -5.216  11.955  17.894  0.00  0.00    +0.000 C 
BRANCH  12  13
ATOM     13  N   UNL     1      -5.947  11.380  19.005  0.00  0.00    +0.000 N 
ATOM     14  C   UNL     1      -6.763  10.283  18.967  0.00  0.00    +0.000 A 
ATOM     15  C   UNL     1      -7.313  10.207  20.225  0.00  0.00    +0.000 A 
ATOM     16  N   UNL     1      -6.849  11.222  21.022  0.00  0.00    +0.000 NA
ATOM     17  C   UNL     1      -6.026  11.909  20.262  0.00  0.00    +0.000 A 
ENDBRANCH  12  13
ENDBRANCH  10  12
ENDBRANCH   5   6
BRANCH   1  18
ATOM     18  S   UNL     1       0.670   9.893  20.774  0.00  0.00    +0.000 S 
ATOM     19  O   UNL     1      -0.631   9.263  20.910  0.00  0.00    +0.000 OA
ATOM     20  O   UNL     1       1.503  10.081  21.946  0.00  0.00    +0.000 OA
BRANCH  18  24
ATOM     21  N   UNL     1       2.596   6.982  18.982  0.00  0.00    +0.000 N 
ATOM     22  C   UNL     1       1.811   7.632  19.928  0.00  0.00    +0.000 C 
ATOM     23  O   UNL     1       1.355   7.049  20.903  0.00  0.00    +0.000 OA
ATOM     24  N   UNL     1       1.553   8.979  19.715  0.00  0.00    +0.000 N 
ATOM     25  H   UNL     1       1.978   9.520  18.977  0.00  0.00    +0.000 HD
BRANCH  21  27
ATOM     26  C   UNL     1       4.392   5.375  19.607  0.00  0.00    +0.000 C 
ATOM     27  C   UNL     1       2.924   5.582  19.255  0.00  0.00    +0.000 C 
ENDBRANCH  21  27
BRANCH  21  28
ATOM     28  C   UNL     1       3.101   7.674  17.792  0.00  0.00    +0.000 C 
ATOM     29  C   UNL     1       4.203   7.010  16.987  0.00  0.00    +0.000 C 
ENDBRANCH  21  28
ENDBRANCH  18  24
ENDBRANCH   1  18
BRANCH   3  30
ATOM     30  C   UNL     1       1.398  15.346  19.862  0.00  0.00    +0.000 C 
BRANCH  30  31
ATOM     31  C   UNL     1       1.340  16.106  18.518  0.00  0.00    +0.000 C 
ATOM     32  C   UNL     1       0.260  17.193  18.507  0.00  0.00    +0.000 C 
ATOM     33  C   UNL     1       2.700  16.726  18.199  0.00  0.00    +0.000 C 
ENDBRANCH  30  31
ENDBRANCH   3  30
TORSDOF 9
ENDMDL
MODEL 4
REMARK VINA RESULT:      -6.6      5.782     11.542
REMARK  Name = 
REMARK  13 active torsions:
REMARK  status: ('A' for Active; 'I' for Inactive)
REMARK    1  A    between atoms: C_1  and  C_2
REMARK    2  A    between atoms: C_2  and  N_3
REMARK    3  A    between atoms: N_3  and  C_4
REMARK    4  A    between atoms: C_4  and  C_5
REMARK    5  A    between atoms: N_8  and  S_9
REMARK    6  A    between atoms: S_9  and  C_12
REMARK    7  A    between atoms: C_14  and  C_15
REMARK    8  A    between atoms: C_15  and  C_16
REMARK    9  A    between atoms: C_16  and  C_17
REMARK   10  A    between atoms: C_16  and  C_18
REMARK   11  A    between atoms: C_20  and  C_21
REMARK   12  A    between atoms: C_25  and  C_26
REMARK   13  A    between atoms: C_26  and  N_27
REMARK                            x       y       z     vdW  Elec       q    Type
REMARK                         _______ _______ _______ _____ _____    ______ ____
ROOT
ATOM      1  C   UNL     1       5.415   4.617  16.299  0.00  0.00    +0.000 A 
ATOM      2  S   UNL     1       5.000   3.626  14.946  0.00  0.00    +0.000 S 
ATOM      3  C   UNL     1       6.272   4.242  13.999  0.00  0.00    +0.000 A 
ATOM      4  C   UNL     1       6.955   5.232  14.667  0.00  0.00    +0.000 A 
ATOM      5  C   UNL     1       6.543   5.380  16.033  0.00  0.00    +0.000 A 
ENDROOT
BRANCH   5   6
ATOM      6  C   UNL     1       7.256   6.201  17.008  0.00  0.00    +0.000 A 
ATOM      7  C   UNL     1       7.778   5.624  18.174  0.00  0.00    +0.000 A 
ATOM      8  C   UNL     1       8.322   6.423  19.180  0.00  0.00    +0.000 A 
ATOM      9  C   UNL     1       8.393   7.808  19.015  0.00  0.00    +0.000 A 
ATOM     10  C   UNL     1       7.913   8.401  17.843  0.00  0.00    +0.000 A 
ATOM     11  C   UNL     1       7.308   7.592  16.870  0.00  0.00    +0.000 A 
BRANCH  10  12
ATOM     12  C   UNL     1       8.031   9.880  17.602  0.00  0.00    +0.000 C 
BRANCH  12  13
ATOM     13  N   UNL     1       9.088  10.476  18.395  0.00  0.00    +0.000 N 
ATOM     14  C   UNL     1      10.288  10.946  17.936  0.00  0.00    +0.000 A 
ATOM     15  C   UNL     1      10.986  11.297  19.068  0.00  0.00    +0.000 A 
ATOM     16  N   UNL     1      10.242  11.057  20.194  0.00  0.00    +0.000 NA
ATOM     17  C   UNL     1       9.103  10.567  19.757  0.00  0.00    +0.000 A 
ENDBRANCH  12  13
ENDBRANCH  10  12
ENDBRANCH   5   6
BRANCH   1  18
ATOM     18  S   UNL     1       4.288   4.433  17.668  0.00  0.00    +0.000 S 
ATOM     19  O   UNL     1       5.055   4.086  18.851  0.00  0.00    +0.000 OA
ATOM     20  O   UNL     1       3.243   3.543  17.203  0.00  0.00    +0.000 OA
BRANCH  18  24
ATOM     21  N   UNL     1       2.154   7.366  19.165  0.00  0.00    +0.000 N 
ATOM     22  C   UNL     1       2.731   6.106  19.050  0.00  0.00    +0.000 C 
ATOM     23  O   UNL     1       2.529   5.222  19.872  0.00  0.00    +0.000 OA
ATOM     24  N   UNL     1       3.563   5.892  17.959  0.00  0.00    +0.000 N 
ATOM     25  H   UNL     1       3.689   6.558  17.213  0.00  0.00    +0.000 HD
BRANCH  21  27
ATOM     26  C   UNL     1       1.796   8.419  21.392  0.00  0.00    +0.000 C 
ATOM     27  C   UNL     1       1.220   7.558  20.275  0.00  0.00    +0.000 C 
ENDBRANCH  21  27
BRANCH  21  28
ATOM     28  C   UNL     1       2.437   8.435  18.203  0.00  0.00    +0.000 C 
ATOM     29  C   UNL     1       1.408   9.537  18.029  0.00  0.00    +0.000 C 
ENDBRANCH  21  28
ENDBRANCH  18  24
ENDBRANCH   1  18
BRANCH   3  30
ATOM     30  C   UNL     1       6.568   3.689  12.634  0.00  0.00    +0.000 C 
BRANCH  30  31
ATOM     31  C   UNL     1       5.466   2.719  12.155  0.00  0.00    +0.000 C 
ATOM     32  C   UNL     1       4.367   3.430  11.357  0.00  0.00    +0.000 C 
ATOM     33  C   UNL     1       6.073   1.599  11.310  0.00  0.00    +0.000 C 
ENDBRANCH  30  31
ENDBRANCH   3  30
TORSDOF 9
ENDMDL
MODEL 5
REMARK VINA RESULT:      -6.5      2.407      7.583
REMARK  Name = 
REMARK  13 active torsions:
REMARK  status: ('A' for Active; 'I' for Inactive)
REMARK    1  A    between atoms: C_1  and  C_2
REMARK    2  A    between atoms: C_2  and  N_3
REMARK    3  A    between atoms: N_3  and  C_4
REMARK    4  A    between atoms: C_4  and  C_5
REMARK    5  A    between atoms: N_8  and  S_9
REMARK    6  A    between atoms: S_9  and  C_12
REMARK    7  A    between atoms: C_14  and  C_15
REMARK    8  A    between atoms: C_15  and  C_16
REMARK    9  A    between atoms: C_16  and  C_17
REMARK   10  A    between atoms: C_16  and  C_18
REMARK   11  A    between atoms: C_20  and  C_21
REMARK   12  A    between atoms: C_25  and  C_26
REMARK   13  A    between atoms: C_26  and  N_27
REMARK                            x       y       z     vdW  Elec       q    Type
REMARK                         _______ _______ _______ _____ _____    ______ ____
ROOT
ATOM      1  C   UNL     1      -0.445  11.985  18.704  0.00  0.00    +0.000 A 
ATOM      2  S   UNL     1      -0.314  13.678  18.390  0.00  0.00    +0.000 S 
ATOM      3  C   UNL     1       1.190  13.792  19.178  0.00  0.00    +0.000 A 
ATOM      4  C   UNL     1       1.553  12.587  19.733  0.00  0.00    +0.000 A 
ATOM      5  C   UNL     1       0.675  11.511  19.373  0.00  0.00    +0.000 A 
ENDROOT
BRANCH   5   6
ATOM      6  C   UNL     1       0.963  10.106  19.646  0.00  0.00    +0.000 A 
ATOM      7  C   UNL     1       0.614   9.537  20.879  0.00  0.00    +0.000 A 
ATOM      8  C   UNL     1       1.022   8.243  21.205  0.00  0.00    +0.000 A 
ATOM      9  C   UNL     1       1.746   7.483  20.285  0.00  0.00    +0.000 A 
ATOM     10  C   UNL     1       2.072   8.017  19.034  0.00  0.00    +0.000 A 
ATOM     11  C   UNL     1       1.714   9.341  18.747  0.00  0.00    +0.000 A 
BRANCH  10  12
ATOM     12  C   UNL     1       2.794   7.206  17.995  0.00  0.00    +0.000 C 
BRANCH  12  13
ATOM     13  N   UNL     1       3.072   5.859  18.454  0.00  0.00    +0.000 N 
ATOM     14  C   UNL     1       4.173   5.446  19.154  0.00  0.00    +0.000 A 
ATOM     15  C   UNL     1       4.038   4.080  19.249  0.00  0.00    +0.000 A 
ATOM     16  N   UNL     1       2.887   3.659  18.633  0.00  0.00    +0.000 NA
ATOM     17  C   UNL     1       2.325   4.753  18.168  0.00  0.00    +0.000 A 
ENDBRANCH  12  13
ENDBRANCH  10  12
ENDBRANCH   5   6
BRANCH   1  18
ATOM     18  S   UNL     1      -1.979  11.286  18.124  0.00  0.00    +0.000 S 
ATOM     19  O   UNL     1      -2.005   9.878  18.477  0.00  0.00    +0.000 OA
ATOM     20  O   UNL     1      -2.091  11.679  16.733  0.00  0.00    +0.000 OA
BRANCH  18  24
ATOM     21  N   UNL     1      -5.521  12.371  19.419  0.00  0.00    +0.000 N 
ATOM     22  C   UNL     1      -4.557  11.654  18.718  0.00  0.00    +0.000 C 
ATOM     23  O   UNL     1      -4.851  10.738  17.963  0.00  0.00    +0.000 OA
ATOM     24  N   UNL     1      -3.232  12.019  18.918  0.00  0.00    +0.000 N 
ATOM     25  H   UNL     1      -2.949  12.821  19.460  0.00  0.00    +0.000 HD
BRANCH  21  27
ATOM     26  C   UNL     1      -7.498  11.050  20.156  0.00  0.00    +0.000 C 
ATOM     27  C   UNL     1      -6.917  12.029  19.144  0.00  0.00    +0.000 C 
ENDBRANCH  21  27
BRANCH  21  28
ATOM     28  C   UNL     1      -5.159  13.437  20.357  0.00  0.00    +0.000 C 
ATOM     29  C   UNL     1      -5.005  13.083  21.825  0.00  0.00    +0.000 C 
ENDBRANCH  21  28
ENDBRANCH  18  24
ENDBRANCH   1  18
BRANCH   3  30
ATOM     30  C   UNL     1       1.973  15.074  19.185  0.00  0.00    +0.000 C 
BRANCH  30  31
ATOM     31  C   UNL     1       3.368  14.899  18.545  0.00  0.00    +0.000 C 
ATOM     32  C   UNL     1       3.542  15.744  17.278  0.00  0.00    +0.000 C 
ATOM     33  C   UNL     1       4.464  15.249  19.552  0.00  0.00    +0.000 C 
ENDBRANCH  30  31
ENDBRANCH   3  30
TORSDOF 9
ENDMDL
MODEL 6
REMARK VINA RESULT:      -6.5      2.860      4.919
REMARK  Name = 
REMARK  13 active torsions:
REMARK  status: ('A' for Active; 'I' for Inactive)
REMARK    1  A    between atoms: C_1  and  C_2
REMARK    2  A    between atoms: C_2  and  N_3
REMARK    3  A    between atoms: N_3  and  C_4
REMARK    4  A    between atoms: C_4  and  C_5
REMARK    5  A    between atoms: N_8  and  S_9
REMARK    6  A    between atoms: S_9  and  C_12
REMARK    7  A    between atoms: C_14  and  C_15
REMARK    8  A    between atoms: C_15  and  C_16
REMARK    9  A    between atoms: C_16  and  C_17
REMARK   10  A    between atoms: C_16  and  C_18
REMARK   11  A    between atoms: C_20  and  C_21
REMARK   12  A    between atoms: C_25  and  C_26
REMARK   13  A    between atoms: C_26  and  N_27
REMARK                            x       y       z     vdW  Elec       q    Type
REMARK                         _______ _______ _______ _____ _____    ______ ____
ROOT
ATOM      1  C   UNL     1       0.273  11.602  20.184  0.00  0.00    +0.000 A 
ATOM      2  S   UNL     1       1.667  12.559  20.534  0.00  0.00    +0.000 S 
ATOM      3  C   UNL     1       1.748  13.171  18.948  0.00  0.00    +0.000 A 
ATOM      4  C   UNL     1       0.783  12.606  18.148  0.00  0.00    +0.000 A 
ATOM      5  C   UNL     1      -0.144  11.785  18.873  0.00  0.00    +0.000 A 
ENDROOT
BRANCH   5   6
ATOM      6  C   UNL     1      -1.378  11.256  18.298  0.00  0.00    +0.000 A 
ATOM      7  C   UNL     1      -1.349  10.120  17.478  0.00  0.00    +0.000 A 
ATOM      8  C   UNL     1      -2.497   9.702  16.804  0.00  0.00    +0.000 A 
ATOM      9  C   UNL     1      -3.701  10.388  16.975  0.00  0.00    +0.000 A 
ATOM     10  C   UNL     1      -3.761  11.502  17.819  0.00  0.00    +0.000 A 
ATOM     11  C   UNL     1      -2.585  11.951  18.437  0.00  0.00    +0.000 A 
BRANCH  10  12
ATOM     12  C   UNL     1      -5.053  12.226  18.078  0.00  0.00    +0.000 C 
BRANCH  12  13
ATOM     13  N   UNL     1      -5.827  11.595  19.129  0.00  0.00    +0.000 N 
ATOM     14  C   UNL     1      -6.693  10.546  18.987  0.00  0.00    +0.000 A 
ATOM     15  C   UNL     1      -7.265  10.390  20.229  0.00  0.00    +0.000 A 
ATOM     16  N   UNL     1      -6.766  11.310  21.115  0.00  0.00    +0.000 NA
ATOM     17  C   UNL     1      -5.900  12.018  20.425  0.00  0.00    +0.000 A 
ENDBRANCH  12  13
ENDBRANCH  10  12
ENDBRANCH   5   6
BRANCH   1  18
ATOM     18  S   UNL     1      -0.257  10.611  21.568  0.00  0.00    +0.000 S 
ATOM     19  O   UNL     1       0.838  10.524  22.517  0.00  0.00    +0.000 OA
ATOM     20  O   UNL     1      -0.809   9.398  20.996  0.00  0.00    +0.000 OA
BRANCH  18  24
ATOM     21  N   UNL     1      -2.469  13.114  23.626  0.00  0.00    +0.000 N 
ATOM     22  C   UNL     1      -1.345  12.585  22.999  0.00  0.00    +0.000 C 
ATOM     23  O   UNL     1      -0.261  13.150  23.026  0.00  0.00    +0.000 OA
ATOM     24  N   UNL     1      -1.509  11.381  22.326  0.00  0.00    +0.000 N 
ATOM     25  H   UNL     1      -2.358  10.838  22.351  0.00  0.00    +0.000 HD
BRANCH  21  27
ATOM     26  C   UNL     1      -2.805  15.580  23.686  0.00  0.00    +0.000 C 
ATOM     27  C   UNL     1      -2.269  14.343  24.395  0.00  0.00    +0.000 C 
ENDBRANCH  21  27
BRANCH  21  28
ATOM     28  C   UNL     1      -3.776  12.456  23.551  0.00  0.00    +0.000 C 
ATOM     29  C   UNL     1      -4.605  12.356  24.819  0.00  0.00    +0.000 C 
ENDBRANCH  21  28
ENDBRANCH  18  24
ENDBRANCH   1  18
BRANCH   3  30
ATOM     30  C   UNL     1       2.752  14.222  18.567  0.00  0.00    +0.000 C 
BRANCH  30  31
ATOM     31  C   UNL     1       2.106  15.621  18.460  0.00  0.00    +0.000 C 
ATOM     32  C   UNL     1       1.902  16.277  19.831  0.00  0.00    +0.000 C 
ATOM     33  C   UNL     1       2.956  16.533  17.575  0.00  0.00    +0.000 C 
ENDBRANCH  30  31
ENDBRANCH   3  30
TORSDOF 9
ENDMDL
MODEL 7
REMARK VINA RESULT:      -6.5      2.924      7.427
REMARK  Name = 
REMARK  13 active torsions:
REMARK  status: ('A' for Active; 'I' for Inactive)
REMARK    1  A    between atoms: C_1  and  C_2
REMARK    2  A    between atoms: C_2  and  N_3
REMARK    3  A    between atoms: N_3  and  C_4
REMARK    4  A    between atoms: C_4  and  C_5
REMARK    5  A    between atoms: N_8  and  S_9
REMARK    6  A    between atoms: S_9  and  C_12
REMARK    7  A    between atoms: C_14  and  C_15
REMARK    8  A    between atoms: C_15  and  C_16
REMARK    9  A    between atoms: C_16  and  C_17
REMARK   10  A    between atoms: C_16  and  C_18
REMARK   11  A    between atoms: C_20  and  C_21
REMARK   12  A    between atoms: C_25  and  C_26
REMARK   13  A    between atoms: C_26  and  N_27
REMARK                            x       y       z     vdW  Elec       q    Type
REMARK                         _______ _______ _______ _____ _____    ______ ____
ROOT
ATOM      1  C   UNL     1       1.121   8.900  20.098  0.00  0.00    +0.000 A 
ATOM      2  S   UNL     1       2.046   7.443  20.015  0.00  0.00    +0.000 S 
ATOM      3  C   UNL     1       2.482   7.715  18.392  0.00  0.00    +0.000 A 
ATOM      4  C   UNL     1       1.880   8.849  17.899  0.00  0.00    +0.000 A 
ATOM      5  C   UNL     1       1.183   9.602  18.902  0.00  0.00    +0.000 A 
ENDROOT
BRANCH   5   6
ATOM      6  C   UNL     1       0.653  10.945  18.684  0.00  0.00    +0.000 A 
ATOM      7  C   UNL     1      -0.653  11.124  18.207  0.00  0.00    +0.000 A 
ATOM      8  C   UNL     1      -1.111  12.393  17.851  0.00  0.00    +0.000 A 
ATOM      9  C   UNL     1      -0.285  13.507  18.009  0.00  0.00    +0.000 A 
ATOM     10  C   UNL     1       1.009  13.356  18.518  0.00  0.00    +0.000 A 
ATOM     11  C   UNL     1       1.479  12.068  18.808  0.00  0.00    +0.000 A 
BRANCH  10  12
ATOM     12  C   UNL     1       1.904  14.540  18.762  0.00  0.00    +0.000 C 
BRANCH  12  13
ATOM     13  N   UNL     1       1.603  15.197  20.018  0.00  0.00    +0.000 N 
ATOM     14  C   UNL     1       1.810  14.695  21.274  0.00  0.00    +0.000 A 
ATOM     15  C   UNL     1       1.260  15.628  22.122  0.00  0.00    +0.000 A 
ATOM     16  N   UNL     1       0.733  16.679  21.416  0.00  0.00    +0.000 NA
ATOM     17  C   UNL     1       0.958  16.393  20.153  0.00  0.00    +0.000 A 
ENDBRANCH  12  13
ENDBRANCH  10  12
ENDBRANCH   5   6
BRANCH   1  18
ATOM     18  S   UNL     1       0.306   9.119  21.669  0.00  0.00    +0.000 S 
ATOM     19  O   UNL     1       1.321   9.299  22.691  0.00  0.00    +0.000 OA
ATOM     20  O   UNL     1      -0.638   8.025  21.779  0.00  0.00    +0.000 OA
BRANCH  18  24
ATOM     21  N   UNL     1      -1.894  12.242  22.568  0.00  0.00    +0.000 N 
ATOM     22  C   UNL     1      -1.127  11.095  22.751  0.00  0.00    +0.000 C 
ATOM     23  O   UNL     1      -0.920  10.624  23.861  0.00  0.00    +0.000 OA
ATOM     24  N   UNL     1      -0.592  10.507  21.613  0.00  0.00    +0.000 N 
ATOM     25  H   UNL     1      -0.807  10.808  20.674  0.00  0.00    +0.000 HD
BRANCH  21  27
ATOM     26  C   UNL     1      -4.011  12.532  23.844  0.00  0.00    +0.000 C 
ATOM     27  C   UNL     1      -2.515  12.809  23.765  0.00  0.00    +0.000 C 
ENDBRANCH  21  27
BRANCH  21  28
ATOM     28  C   UNL     1      -2.099  12.828  21.241  0.00  0.00    +0.000 C 
ATOM     29  C   UNL     1      -2.110  14.341  21.116  0.00  0.00    +0.000 C 
ENDBRANCH  21  28
ENDBRANCH  18  24
ENDBRANCH   1  18
BRANCH   3  30
ATOM     30  C   UNL     1       3.440   6.804  17.678  0.00  0.00    +0.000 C 
BRANCH  30  31
ATOM     31  C   UNL     1       3.627   5.466  18.426  0.00  0.00    +0.000 C 
ATOM     32  C   UNL     1       3.311   4.253  17.543  0.00  0.00    +0.000 C 
ATOM     33  C   UNL     1       5.053   5.353  18.965  0.00  0.00    +0.000 C 
ENDBRANCH  30  31
ENDBRANCH   3  30
TORSDOF 9
ENDMDL
MODEL 8
REMARK VINA RESULT:      -6.3      2.241      7.589
REMARK  Name = 
REMARK  13 active torsions:
REMARK  status: ('A' for Active; 'I' for Inactive)
REMARK    1  A    between atoms: C_1  and  C_2
REMARK    2  A    between atoms: C_2  and  N_3
REMARK    3  A    between atoms: N_3  and  C_4
REMARK    4  A    between atoms: C_4  and  C_5
REMARK    5  A    between atoms: N_8  and  S_9
REMARK    6  A    between atoms: S_9  and  C_12
REMARK    7  A    between atoms: C_14  and  C_15
REMARK    8  A    between atoms: C_15  and  C_16
REMARK    9  A    between atoms: C_16  and  C_17
REMARK   10  A    between atoms: C_16  and  C_18
REMARK   11  A    between atoms: C_20  and  C_21
REMARK   12  A    between atoms: C_25  and  C_26
REMARK   13  A    between atoms: C_26  and  N_27
REMARK                            x       y       z     vdW  Elec       q    Type
REMARK                         _______ _______ _______ _____ _____    ______ ____
ROOT
ATOM      1  C   UNL     1      -0.471  11.957  18.743  0.00  0.00    +0.000 A 
ATOM      2  S   UNL     1      -0.384  13.665  18.505  0.00  0.00    +0.000 S 
ATOM      3  C   UNL     1       1.084  13.792  19.358  0.00  0.00    +0.000 A 
ATOM      4  C   UNL     1       1.464  12.576  19.876  0.00  0.00    +0.000 A 
ATOM      5  C   UNL     1       0.636  11.490  19.437  0.00  0.00    +0.000 A 
ENDROOT
BRANCH   5   6
ATOM      6  C   UNL     1       0.959  10.083  19.664  0.00  0.00    +0.000 A 
ATOM      7  C   UNL     1       0.646   9.472  20.886  0.00  0.00    +0.000 A 
ATOM      8  C   UNL     1       1.088   8.178  21.166  0.00  0.00    +0.000 A 
ATOM      9  C   UNL     1       1.809   7.460  20.211  0.00  0.00    +0.000 A 
ATOM     10  C   UNL     1       2.099   8.037  18.970  0.00  0.00    +0.000 A 
ATOM     11  C   UNL     1       1.708   9.361  18.728  0.00  0.00    +0.000 A 
BRANCH  10  12
ATOM     12  C   UNL     1       2.818   7.272  17.893  0.00  0.00    +0.000 C 
BRANCH  12  13
ATOM     13  N   UNL     1       3.164   5.931  18.320  0.00  0.00    +0.000 N 
ATOM     14  C   UNL     1       4.304   5.550  18.974  0.00  0.00    +0.000 A 
ATOM     15  C   UNL     1       4.225   4.179  19.051  0.00  0.00    +0.000 A 
ATOM     16  N   UNL     1       3.071   3.723  18.469  0.00  0.00    +0.000 NA
ATOM     17  C   UNL     1       2.451   4.800  18.042  0.00  0.00    +0.000 A 
ENDBRANCH  12  13
ENDBRANCH  10  12
ENDBRANCH   5   6
BRANCH   1  18
ATOM     18  S   UNL     1      -1.958  11.235  18.073  0.00  0.00    +0.000 S 
ATOM     19  O   UNL     1      -1.988   9.829  18.431  0.00  0.00    +0.000 OA
ATOM     20  O   UNL     1      -1.988  11.621  16.675  0.00  0.00    +0.000 OA
BRANCH  18  24
ATOM     21  N   UNL     1      -5.581  12.400  19.030  0.00  0.00    +0.000 N 
ATOM     22  C   UNL     1      -4.569  11.705  18.375  0.00  0.00    +0.000 C 
ATOM     23  O   UNL     1      -4.807  10.900  17.485  0.00  0.00    +0.000 OA
ATOM     24  N   UNL     1      -3.266  11.955  18.784  0.00  0.00    +0.000 N 
ATOM     25  H   UNL     1      -3.017  12.671  19.450  0.00  0.00    +0.000 HD
BRANCH  21  27
ATOM     26  C   UNL     1      -7.438  13.318  17.651  0.00  0.00    +0.000 C 
ATOM     27  C   UNL     1      -6.943  12.185  18.541  0.00  0.00    +0.000 C 
ENDBRANCH  21  27
BRANCH  21  28
ATOM     28  C   UNL     1      -5.294  13.327  20.128  0.00  0.00    +0.000 C 
ATOM     29  C   UNL     1      -5.490  12.840  21.552  0.00  0.00    +0.000 C 
ENDBRANCH  21  28
ENDBRANCH  18  24
ENDBRANCH   1  18
BRANCH   3  30
ATOM     30  C   UNL     1       1.824  15.096  19.449  0.00  0.00    +0.000 C 
BRANCH  30  31
ATOM     31  C   UNL     1       1.053  16.244  18.761  0.00  0.00    +0.000 C 
ATOM     32  C   UNL     1       0.364  17.172  19.767  0.00  0.00    +0.000 C 
ATOM     33  C   UNL     1       1.993  17.057  17.871  0.00  0.00    +0.000 C 
ENDBRANCH  30  31
ENDBRANCH   3  30
TORSDOF 9
ENDMDL
MODEL 9
REMARK VINA RESULT:      -6.3      3.029      6.139
REMARK  Name = 
REMARK  13 active torsions:
REMARK  status: ('A' for Active; 'I' for Inactive)
REMARK    1  A    between atoms: C_1  and  C_2
REMARK    2  A    between atoms: C_2  and  N_3
REMARK    3  A    between atoms: N_3  and  C_4
REMARK    4  A    between atoms: C_4  and  C_5
REMARK    5  A    between atoms: N_8  and  S_9
REMARK    6  A    between atoms: S_9  and  C_12
REMARK    7  A    between atoms: C_14  and  C_15
REMARK    8  A    between atoms: C_15  and  C_16
REMARK    9  A    between atoms: C_16  and  C_17
REMARK   10  A    between atoms: C_16  and  C_18
REMARK   11  A    between atoms: C_20  and  C_21
REMARK   12  A    between atoms: C_25  and  C_26
REMARK   13  A    between atoms: C_26  and  N_27
REMARK                            x       y       z     vdW  Elec       q    Type
REMARK                         _______ _______ _______ _____ _____    ______ ____
ROOT
ATOM      1  C   UNL     1      -0.248  11.836  19.587  0.00  0.00    +0.000 A 
ATOM      2  S   UNL     1       1.154  11.195  20.365  0.00  0.00    +0.000 S 
ATOM      3  C   UNL     1       0.636   9.588  20.158  0.00  0.00    +0.000 A 
ATOM      4  C   UNL     1      -0.610   9.538  19.576  0.00  0.00    +0.000 A 
ATOM      5  C   UNL     1      -1.082  10.820  19.141  0.00  0.00    +0.000 A 
ENDROOT
BRANCH   5   6
ATOM      6  C   UNL     1      -2.264  11.006  18.304  0.00  0.00    +0.000 A 
ATOM      7  C   UNL     1      -2.193  10.801  16.919  0.00  0.00    +0.000 A 
ATOM      8  C   UNL     1      -3.273  11.125  16.097  0.00  0.00    +0.000 A 
ATOM      9  C   UNL     1      -4.456  11.615  16.652  0.00  0.00    +0.000 A 
ATOM     10  C   UNL     1      -4.562  11.791  18.036  0.00  0.00    +0.000 A 
ATOM     11  C   UNL     1      -3.447  11.526  18.842  0.00  0.00    +0.000 A 
BRANCH  10  12
ATOM     12  C   UNL     1      -5.841  12.256  18.676  0.00  0.00    +0.000 C 
BRANCH  12  13
ATOM     13  N   UNL     1      -6.452  11.218  19.483  0.00  0.00    +0.000 N 
ATOM     14  C   UNL     1      -6.767   9.949  19.081  0.00  0.00    +0.000 A 
ATOM     15  C   UNL     1      -7.426   9.394  20.153  0.00  0.00    +0.000 A 
ATOM     16  N   UNL     1      -7.513  10.287  21.190  0.00  0.00    +0.000 NA
ATOM     17  C   UNL     1      -6.914  11.374  20.758  0.00  0.00    +0.000 A 
ENDBRANCH  12  13
ENDBRANCH  10  12
ENDBRANCH   5   6
BRANCH   1  18
ATOM     18  S   UNL     1      -0.286  13.619  19.578  0.00  0.00    +0.000 S 
ATOM     19  O   UNL     1      -0.562  14.066  18.225  0.00  0.00    +0.000 OA
ATOM     20  O   UNL     1       0.932  14.043  20.240  0.00  0.00    +0.000 OA
BRANCH  18  24
ATOM     21  N   UNL     1      -2.754  14.254  22.563  0.00  0.00    +0.000 N 
ATOM     22  C   UNL     1      -1.635  13.793  21.876  0.00  0.00    +0.000 C 
ATOM     23  O   UNL     1      -0.767  13.128  22.424  0.00  0.00    +0.000 OA
ATOM     24  N   UNL     1      -1.538  14.129  20.533  0.00  0.00    +0.000 N 
ATOM     25  H   UNL     1      -2.268  14.598  20.019  0.00  0.00    +0.000 HD
BRANCH  21  27
ATOM     26  C   UNL     1      -3.876  12.689  24.139  0.00  0.00    +0.000 C 
ATOM     27  C   UNL     1      -2.884  13.831  23.957  0.00  0.00    +0.000 C 
ENDBRANCH  21  27
BRANCH  21  28
ATOM     28  C   UNL     1      -3.767  15.089  21.912  0.00  0.00    +0.000 C 
ATOM     29  C   UNL     1      -4.927  14.402  21.216  0.00  0.00    +0.000 C 
ENDBRANCH  21  28
ENDBRANCH  18  24
ENDBRANCH   1  18
BRANCH   3  30
ATOM     30  C   UNL     1       1.508   8.429  20.551  0.00  0.00    +0.000 C 
BRANCH  30  31
ATOM     31  C   UNL     1       1.838   7.522  19.344  0.00  0.00    +0.000 C 
ATOM     32  C   UNL     1       2.574   8.275  18.231  0.00  0.00    +0.000 C 
ATOM     33  C   UNL     1       2.671   6.322  19.793  0.00  0.00    +0.000 C 
ENDBRANCH  30  31
ENDBRANCH   3  30
TORSDOF 9
ENDMDL
