MODEL 1
REMARK VINA RESULT:      -7.9      0.000      0.000
REMARK  Name = 
REMARK  9 active torsions:
REMARK  status: ('A' for Active; 'I' for Inactive)
REMARK    1  A    between atoms: C_1  and  C_2
REMARK    2  A    between atoms: C_3  and  C_4
REMARK    3  A    between atoms: C_4  and  O_6
REMARK    4  A    between atoms: N_13  and  C_14
REMARK    5  A    between atoms: C_20  and  O_21
REMARK    6  A    between atoms: O_21  and  C_22
REMARK    7  A    between atoms: C_22  and  C_23
REMARK    8  A    between atoms: C_23  and  C_24
REMARK    9  A    between atoms: C_24  and  C_25
REMARK                            x       y       z     vdW  Elec       q    Type
REMARK                         _______ _______ _______ _____ _____    ______ ____
ROOT
ATOM      1  C   UNL     1       3.381   7.810  17.624  0.00  0.00    +0.000 C 
ATOM      2  C   UNL     1       2.995   6.647  18.491  0.00  0.00    +0.000 A 
ATOM      3  C   UNL     1       2.219   6.754  19.654  0.00  0.00    +0.000 A 
ATOM      4  S   UNL     1       1.972   5.229  20.385  0.00  0.00    +0.000 S 
ATOM      5  C   UNL     1       2.857   4.425  19.195  0.00  0.00    +0.000 A 
ATOM      6  N   UNL     1       2.971   3.097  19.298  0.00  0.00    +0.000 NA
ATOM      7  C   UNL     1       3.651   2.576  18.289  0.00  0.00    +0.000 A 
ATOM      8  N   UNL     1       4.200   3.229  17.265  0.00  0.00    +0.000 NA
ATOM      9  C   UNL     1       4.124   4.579  17.189  0.00  0.00    +0.000 A 
ATOM     10  N   UNL     1       4.713   5.239  16.094  0.00  0.00    +0.000 N 
ATOM     11  C   UNL     1       3.375   5.251  18.209  0.00  0.00    +0.000 A 
ATOM     12  H   UNL     1       4.323   6.158  15.955  0.00  0.00    +0.000 HD
ENDROOT
BRANCH  10  13
ATOM     13  C   UNL     1       5.438   4.771  14.963  0.00  0.00    +0.000 A 
ATOM     14  C   UNL     1       4.653   4.143  13.959  0.00  0.00    +0.000 A 
ATOM     15  C   UNL     1       5.215   3.602  12.805  0.00  0.00    +0.000 A 
ATOM     16  C   UNL     1       6.582   3.676  12.629  0.00  0.00    +0.000 A 
ATOM     17  F   UNL     1       7.144   3.156  11.528  0.00  0.00    +0.000 F 
ATOM     18  C   UNL     1       7.386   4.287  13.575  0.00  0.00    +0.000 A 
ATOM     19  C   UNL     1       6.839   4.856  14.744  0.00  0.00    +0.000 A 
BRANCH  19  20
ATOM     20  O   UNL     1       7.636   5.510  15.660  0.00  0.00    +0.000 OA
BRANCH  20  21
ATOM     21  C   UNL     1       7.697   4.962  16.980  0.00  0.00    +0.000 C 
BRANCH  21  22
ATOM     22  C   UNL     1       7.377   6.029  18.015  0.00  0.00    +0.000 C 
ATOM     23  C   UNL     1       6.777   5.566  19.333  0.00  0.00    +0.000 C 
ATOM     24  C   UNL     1       8.204   6.030  19.288  0.00  0.00    +0.000 C 
BRANCH  22  25
ATOM     25  C   UNL     1       6.903   7.358  17.453  0.00  0.00    +0.000 C 
BRANCH  25  26
ATOM     26  C   UNL     1       7.870   8.376  17.887  0.00  0.00    +0.000 C 
ATOM     27  N   UNL     1       8.642   9.180  18.215  0.00  0.00    +0.000 NA
ENDBRANCH  25  26
ENDBRANCH  22  25
ENDBRANCH  21  22
ENDBRANCH  20  21
ENDBRANCH  19  20
ENDBRANCH  10  13
BRANCH   3  28
ATOM     28  C   UNL     1       1.629   7.937  20.278  0.00  0.00    +0.000 C 
ATOM     29  O   UNL     1       1.112   8.875  19.690  0.00  0.00    +0.000 OA
BRANCH  28  30
ATOM     30  O   UNL     1       1.693   7.922  21.638  0.00  0.00    +0.000 OA
ATOM     31  H   UNL     1       1.194   8.661  22.041  0.00  0.00    +0.000 HD
ENDBRANCH  28  30
ENDBRANCH   3  28
TORSDOF 8
ENDMDL
MODEL 2
REMARK VINA RESULT:      -7.6      3.192      5.144
REMARK  Name = 
REMARK  9 active torsions:
REMARK  status: ('A' for Active; 'I' for Inactive)
REMARK    1  A    between atoms: C_1  and  C_2
REMARK    2  A    between atoms: C_3  and  C_4
REMARK    3  A    between atoms: C_4  and  O_6
REMARK    4  A    between atoms: N_13  and  C_14
REMARK    5  A    between atoms: C_20  and  O_21
REMARK    6  A    between atoms: O_21  and  C_22
REMARK    7  A    between atoms: C_22  and  C_23
REMARK    8  A    between atoms: C_23  and  C_24
REMARK    9  A    between atoms: C_24  and  C_25
REMARK                            x       y       z     vdW  Elec       q    Type
REMARK                         _______ _______ _______ _____ _____    ______ ____
ROOT
ATOM      1  C   UNL     1       0.310   8.064  22.002  0.00  0.00    +0.000 C 
ATOM      2  C   UNL     1       0.615   9.013  20.881  0.00  0.00    +0.000 A 
ATOM      3  C   UNL     1       0.231  10.362  20.865  0.00  0.00    +0.000 A 
ATOM      4  S   UNL     1       0.749  11.143  19.436  0.00  0.00    +0.000 S 
ATOM      5  C   UNL     1       1.481   9.745  18.840  0.00  0.00    +0.000 A 
ATOM      6  N   UNL     1       2.096   9.823  17.655  0.00  0.00    +0.000 NA
ATOM      7  C   UNL     1       2.664   8.678  17.313  0.00  0.00    +0.000 A 
ATOM      8  N   UNL     1       2.655   7.537  18.001  0.00  0.00    +0.000 NA
ATOM      9  C   UNL     1       1.992   7.447  19.178  0.00  0.00    +0.000 A 
ATOM     10  N   UNL     1       2.004   6.229  19.883  0.00  0.00    +0.000 N 
ATOM     11  C   UNL     1       1.369   8.640  19.671  0.00  0.00    +0.000 A 
ATOM     12  H   UNL     1       1.788   6.357  20.859  0.00  0.00    +0.000 HD
ENDROOT
BRANCH  10  13
ATOM     13  C   UNL     1       2.596   4.964  19.611  0.00  0.00    +0.000 A 
ATOM     14  C   UNL     1       1.693   3.868  19.580  0.00  0.00    +0.000 A 
ATOM     15  C   UNL     1       2.118   2.560  19.360  0.00  0.00    +0.000 A 
ATOM     16  C   UNL     1       3.463   2.316  19.168  0.00  0.00    +0.000 A 
ATOM     17  F   UNL     1       3.893   1.064  18.962  0.00  0.00    +0.000 F 
ATOM     18  C   UNL     1       4.379   3.354  19.181  0.00  0.00    +0.000 A 
ATOM     19  C   UNL     1       3.971   4.689  19.386  0.00  0.00    +0.000 A 
BRANCH  19  20
ATOM     20  O   UNL     1       4.879   5.726  19.347  0.00  0.00    +0.000 OA
BRANCH  20  21
ATOM     21  C   UNL     1       5.518   5.987  18.093  0.00  0.00    +0.000 C 
BRANCH  21  22
ATOM     22  C   UNL     1       6.995   5.635  18.165  0.00  0.00    +0.000 C 
ATOM     23  C   UNL     1       7.968   6.765  18.465  0.00  0.00    +0.000 C 
ATOM     24  C   UNL     1       7.668   5.741  19.521  0.00  0.00    +0.000 C 
BRANCH  22  25
ATOM     25  C   UNL     1       7.452   4.550  17.207  0.00  0.00    +0.000 C 
BRANCH  25  26
ATOM     26  C   UNL     1       7.021   4.957  15.862  0.00  0.00    +0.000 C 
ATOM     27  N   UNL     1       6.681   5.295  14.803  0.00  0.00    +0.000 NA
ENDBRANCH  25  26
ENDBRANCH  22  25
ENDBRANCH  21  22
ENDBRANCH  20  21
ENDBRANCH  19  20
ENDBRANCH  10  13
BRANCH   3  28
ATOM     28  C   UNL     1      -0.511  11.135  21.859  0.00  0.00    +0.000 C 
ATOM     29  O   UNL     1      -0.248  11.209  23.051  0.00  0.00    +0.000 OA
BRANCH  28  30
ATOM     30  O   UNL     1      -1.572  11.812  21.341  0.00  0.00    +0.000 OA
ATOM     31  H   UNL     1      -1.736  11.583  20.404  0.00  0.00    +0.000 HD
ENDBRANCH  28  30
ENDBRANCH   3  28
TORSDOF 8
ENDMDL
MODEL 3
REMARK VINA RESULT:      -7.6      4.058      6.134
REMARK  Name = 
REMARK  9 active torsions:
REMARK  status: ('A' for Active; 'I' for Inactive)
REMARK    1  A    between atoms: C_1  and  C_2
REMARK    2  A    between atoms: C_3  and  C_4
REMARK    3  A    between atoms: C_4  and  O_6
REMARK    4  A    between atoms: N_13  and  C_14
REMARK    5  A    between atoms: C_20  and  O_21
REMARK    6  A    between atoms: O_21  and  C_22
REMARK    7  A    between atoms: C_22  and  C_23
REMARK    8  A    between atoms: C_23  and  C_24
REMARK    9  A    between atoms: C_24  and  C_25
REMARK                            x       y       z     vdW  Elec       q    Type
REMARK                         _______ _______ _______ _____ _____    ______ ____
ROOT
ATOM      1  C   UNL     1       1.600  10.318  17.796  0.00  0.00    +0.000 C 
ATOM      2  C   UNL     1       1.047  10.801  19.104  0.00  0.00    +0.000 A 
ATOM      3  C   UNL     1       0.523  12.085  19.312  0.00  0.00    +0.000 A 
ATOM      4  S   UNL     1      -0.019  12.288  20.920  0.00  0.00    +0.000 S 
ATOM      5  C   UNL     1       0.409  10.714  21.349  0.00  0.00    +0.000 A 
ATOM      6  N   UNL     1       0.164  10.324  22.604  0.00  0.00    +0.000 NA
ATOM      7  C   UNL     1       0.505   9.062  22.809  0.00  0.00    +0.000 A 
ATOM      8  N   UNL     1       1.047   8.220  21.928  0.00  0.00    +0.000 NA
ATOM      9  C   UNL     1       1.338   8.632  20.672  0.00  0.00    +0.000 A 
ATOM     10  N   UNL     1       1.907   7.719  19.765  0.00  0.00    +0.000 N 
ATOM     11  C   UNL     1       0.975   9.973  20.322  0.00  0.00    +0.000 A 
ATOM     12  H   UNL     1       1.772   8.004  18.808  0.00  0.00    +0.000 HD
ENDROOT
BRANCH  10  13
ATOM     13  C   UNL     1       2.287   6.353  19.883  0.00  0.00    +0.000 A 
ATOM     14  C   UNL     1       1.370   5.528  20.588  0.00  0.00    +0.000 A 
ATOM     15  C   UNL     1       1.610   4.176  20.818  0.00  0.00    +0.000 A 
ATOM     16  C   UNL     1       2.780   3.614  20.349  0.00  0.00    +0.000 A 
ATOM     17  F   UNL     1       3.034   2.316  20.565  0.00  0.00    +0.000 F 
ATOM     18  C   UNL     1       3.699   4.376  19.648  0.00  0.00    +0.000 A 
ATOM     19  C   UNL     1       3.471   5.744  19.388  0.00  0.00    +0.000 A 
BRANCH  19  20
ATOM     20  O   UNL     1       4.364   6.487  18.646  0.00  0.00    +0.000 OA
BRANCH  20  21
ATOM     21  C   UNL     1       4.295   6.359  17.222  0.00  0.00    +0.000 C 
BRANCH  21  22
ATOM     22  C   UNL     1       5.470   5.545  16.703  0.00  0.00    +0.000 C 
ATOM     23  C   UNL     1       5.155   4.229  16.011  0.00  0.00    +0.000 C 
ATOM     24  C   UNL     1       5.605   5.407  15.198  0.00  0.00    +0.000 C 
BRANCH  22  25
ATOM     25  C   UNL     1       6.731   5.614  17.545  0.00  0.00    +0.000 C 
BRANCH  25  26
ATOM     26  C   UNL     1       7.288   6.962  17.373  0.00  0.00    +0.000 C 
ATOM     27  N   UNL     1       7.716   8.035  17.244  0.00  0.00    +0.000 NA
ENDBRANCH  25  26
ENDBRANCH  22  25
ENDBRANCH  21  22
ENDBRANCH  20  21
ENDBRANCH  19  20
ENDBRANCH  10  13
BRANCH   3  28
ATOM     28  C   UNL     1       0.392  13.203  18.379  0.00  0.00    +0.000 C 
ATOM     29  O   UNL     1       1.200  14.107  18.226  0.00  0.00    +0.000 OA
BRANCH  28  30
ATOM     30  O   UNL     1      -0.755  13.167  17.645  0.00  0.00    +0.000 OA
ATOM     31  H   UNL     1      -0.811  13.906  17.008  0.00  0.00    +0.000 HD
ENDBRANCH  28  30
ENDBRANCH   3  28
TORSDOF 8
ENDMDL
MODEL 4
REMARK VINA RESULT:      -7.5      1.909      2.720
REMARK  Name = 
REMARK  9 active torsions:
REMARK  status: ('A' for Active; 'I' for Inactive)
REMARK    1  A    between atoms: C_1  and  C_2
REMARK    2  A    between atoms: C_3  and  C_4
REMARK    3  A    between atoms: C_4  and  O_6
REMARK    4  A    between atoms: N_13  and  C_14
REMARK    5  A    between atoms: C_20  and  O_21
REMARK    6  A    between atoms: O_21  and  C_22
REMARK    7  A    between atoms: C_22  and  C_23
REMARK    8  A    between atoms: C_23  and  C_24
REMARK    9  A    between atoms: C_24  and  C_25
REMARK                            x       y       z     vdW  Elec       q    Type
REMARK                         _______ _______ _______ _____ _____    ______ ____
ROOT
ATOM      1  C   UNL     1       3.889   2.234  18.681  0.00  0.00    +0.000 C 
ATOM      2  C   UNL     1       3.332   3.576  19.056  0.00  0.00    +0.000 A 
ATOM      3  C   UNL     1       2.589   3.823  20.219  0.00  0.00    +0.000 A 
ATOM      4  S   UNL     1       2.120   5.463  20.325  0.00  0.00    +0.000 S 
ATOM      5  C   UNL     1       2.885   5.860  18.876  0.00  0.00    +0.000 A 
ATOM      6  N   UNL     1       2.827   7.133  18.472  0.00  0.00    +0.000 NA
ATOM      7  C   UNL     1       3.495   7.330  17.347  0.00  0.00    +0.000 A 
ATOM      8  N   UNL     1       4.158   6.419  16.634  0.00  0.00    +0.000 NA
ATOM      9  C   UNL     1       4.176   5.122  17.020  0.00  0.00    +0.000 A 
ATOM     10  N   UNL     1       4.888   4.185  16.248  0.00  0.00    +0.000 N 
ATOM     11  C   UNL     1       3.517   4.796  18.250  0.00  0.00    +0.000 A 
ATOM     12  H   UNL     1       5.119   3.359  16.777  0.00  0.00    +0.000 HD
ENDROOT
BRANCH  10  13
ATOM     13  C   UNL     1       5.646   4.301  15.049  0.00  0.00    +0.000 A 
ATOM     14  C   UNL     1       5.131   3.583  13.936  0.00  0.00    +0.000 A 
ATOM     15  C   UNL     1       5.773   3.566  12.701  0.00  0.00    +0.000 A 
ATOM     16  C   UNL     1       6.952   4.267  12.549  0.00  0.00    +0.000 A 
ATOM     17  F   UNL     1       7.589   4.258  11.370  0.00  0.00    +0.000 F 
ATOM     18  C   UNL     1       7.487   4.989  13.602  0.00  0.00    +0.000 A 
ATOM     19  C   UNL     1       6.847   5.035  14.859  0.00  0.00    +0.000 A 
BRANCH  19  20
ATOM     20  O   UNL     1       7.355   5.795  15.890  0.00  0.00    +0.000 OA
BRANCH  20  21
ATOM     21  C   UNL     1       7.666   5.116  17.110  0.00  0.00    +0.000 C 
BRANCH  21  22
ATOM     22  C   UNL     1       7.387   6.013  18.306  0.00  0.00    +0.000 C 
ATOM     23  C   UNL     1       6.756   5.369  19.529  0.00  0.00    +0.000 C 
ATOM     24  C   UNL     1       8.202   5.767  19.562  0.00  0.00    +0.000 C 
BRANCH  22  25
ATOM     25  C   UNL     1       6.978   7.436  17.969  0.00  0.00    +0.000 C 
BRANCH  25  26
ATOM     26  C   UNL     1       8.111   8.302  18.322  0.00  0.00    +0.000 C 
ATOM     27  N   UNL     1       9.001   9.000  18.591  0.00  0.00    +0.000 NA
ENDBRANCH  25  26
ENDBRANCH  22  25
ENDBRANCH  21  22
ENDBRANCH  20  21
ENDBRANCH  19  20
ENDBRANCH  10  13
BRANCH   3  28
ATOM     28  C   UNL     1       2.192   2.907  21.287  0.00  0.00    +0.000 C 
ATOM     29  O   UNL     1       1.046   2.675  21.643  0.00  0.00    +0.000 OA
BRANCH  28  30
ATOM     30  O   UNL     1       3.244   2.289  21.892  0.00  0.00    +0.000 OA
ATOM     31  H   UNL     1       4.105   2.636  21.586  0.00  0.00    +0.000 HD
ENDBRANCH  28  30
ENDBRANCH   3  28
TORSDOF 8
ENDMDL
MODEL 5
REMARK VINA RESULT:      -7.4      3.963      6.018
REMARK  Name = 
REMARK  9 active torsions:
REMARK  status: ('A' for Active; 'I' for Inactive)
REMARK    1  A    between atoms: C_1  and  C_2
REMARK    2  A    between atoms: C_3  and  C_4
REMARK    3  A    between atoms: C_4  and  O_6
REMARK    4  A    between atoms: N_13  and  C_14
REMARK    5  A    between atoms: C_20  and  O_21
REMARK    6  A    between atoms: O_21  and  C_22
REMARK    7  A    between atoms: C_22  and  C_23
REMARK    8  A    between atoms: C_23  and  C_24
REMARK    9  A    between atoms: C_24  and  C_25
REMARK                            x       y       z     vdW  Elec       q    Type
REMARK                         _______ _______ _______ _____ _____    ______ ____
ROOT
ATOM      1  C   UNL     1      -0.020   9.275  17.542  0.00  0.00    +0.000 C 
ATOM      2  C   UNL     1      -0.061  10.029  18.839  0.00  0.00    +0.000 A 
ATOM      3  C   UNL     1      -0.693  11.270  19.009  0.00  0.00    +0.000 A 
ATOM      4  S   UNL     1      -0.546  11.832  20.616  0.00  0.00    +0.000 S 
ATOM      5  C   UNL     1       0.323  10.470  21.100  0.00  0.00    +0.000 A 
ATOM      6  N   UNL     1       0.705  10.399  22.379  0.00  0.00    +0.000 NA
ATOM      7  C   UNL     1       1.342   9.271  22.647  0.00  0.00    +0.000 A 
ATOM      8  N   UNL     1       1.623   8.283  21.797  0.00  0.00    +0.000 NA
ATOM      9  C   UNL     1       1.278   8.379  20.491  0.00  0.00    +0.000 A 
ATOM     10  N   UNL     1       1.586   7.317  19.620  0.00  0.00    +0.000 N 
ATOM     11  C   UNL     1       0.545   9.543  20.092  0.00  0.00    +0.000 A 
ATOM     12  H   UNL     1       1.011   7.331  18.792  0.00  0.00    +0.000 HD
ENDROOT
BRANCH  10  13
ATOM     13  C   UNL     1       2.242   6.070  19.814  0.00  0.00    +0.000 A 
ATOM     14  C   UNL     1       1.492   5.096  20.527  0.00  0.00    +0.000 A 
ATOM     15  C   UNL     1       2.003   3.837  20.828  0.00  0.00    +0.000 A 
ATOM     16  C   UNL     1       3.284   3.521  20.424  0.00  0.00    +0.000 A 
ATOM     17  F   UNL     1       3.798   2.316  20.710  0.00  0.00    +0.000 F 
ATOM     18  C   UNL     1       4.050   4.433  19.719  0.00  0.00    +0.000 A 
ATOM     19  C   UNL     1       3.548   5.709  19.388  0.00  0.00    +0.000 A 
BRANCH  19  20
ATOM     20  O   UNL     1       4.293   6.597  18.641  0.00  0.00    +0.000 OA
BRANCH  20  21
ATOM     21  C   UNL     1       4.236   6.462  17.217  0.00  0.00    +0.000 C 
BRANCH  21  22
ATOM     22  C   UNL     1       5.427   5.665  16.709  0.00  0.00    +0.000 C 
ATOM     23  C   UNL     1       5.138   4.344  16.015  0.00  0.00    +0.000 C 
ATOM     24  C   UNL     1       5.579   5.528  15.206  0.00  0.00    +0.000 C 
BRANCH  22  25
ATOM     25  C   UNL     1       6.679   5.752  17.564  0.00  0.00    +0.000 C 
BRANCH  25  26
ATOM     26  C   UNL     1       7.232   7.101  17.377  0.00  0.00    +0.000 C 
ATOM     27  N   UNL     1       7.684   8.161  17.229  0.00  0.00    +0.000 NA
ENDBRANCH  25  26
ENDBRANCH  22  25
ENDBRANCH  21  22
ENDBRANCH  20  21
ENDBRANCH  19  20
ENDBRANCH  10  13
BRANCH   3  28
ATOM     28  C   UNL     1      -1.419  12.090  18.041  0.00  0.00    +0.000 C 
ATOM     29  O   UNL     1      -2.547  11.875  17.623  0.00  0.00    +0.000 OA
BRANCH  28  30
ATOM     30  O   UNL     1      -0.717  13.176  17.614  0.00  0.00    +0.000 OA
ATOM     31  H   UNL     1      -0.195  12.988  16.809  0.00  0.00    +0.000 HD
ENDBRANCH  28  30
ENDBRANCH   3  28
TORSDOF 8
ENDMDL
MODEL 6
REMARK VINA RESULT:      -7.2      4.842      8.685
REMARK  Name = 
REMARK  9 active torsions:
REMARK  status: ('A' for Active; 'I' for Inactive)
REMARK    1  A    between atoms: C_1  and  C_2
REMARK    2  A    between atoms: C_3  and  C_4
REMARK    3  A    between atoms: C_4  and  O_6
REMARK    4  A    between atoms: N_13  and  C_14
REMARK    5  A    between atoms: C_20  and  O_21
REMARK    6  A    between atoms: O_21  and  C_22
REMARK    7  A    between atoms: C_22  and  C_23
REMARK    8  A    between atoms: C_23  and  C_24
REMARK    9  A    between atoms: C_24  and  C_25
REMARK                            x       y       z     vdW  Elec       q    Type
REMARK                         _______ _______ _______ _____ _____    ______ ____
ROOT
ATOM      1  C   UNL     1       4.110   7.568  17.216  0.00  0.00    +0.000 C 
ATOM      2  C   UNL     1       3.949   6.169  17.736  0.00  0.00    +0.000 A 
ATOM      3  C   UNL     1       4.622   5.054  17.218  0.00  0.00    +0.000 A 
ATOM      4  S   UNL     1       4.201   3.624  18.055  0.00  0.00    +0.000 S 
ATOM      5  C   UNL     1       3.159   4.444  19.097  0.00  0.00    +0.000 A 
ATOM      6  N   UNL     1       2.528   3.729  20.033  0.00  0.00    +0.000 NA
ATOM      7  C   UNL     1       1.771   4.485  20.812  0.00  0.00    +0.000 A 
ATOM      8  N   UNL     1       1.593   5.804  20.728  0.00  0.00    +0.000 NA
ATOM      9  C   UNL     1       2.196   6.519  19.749  0.00  0.00    +0.000 A 
ATOM     10  N   UNL     1       1.990   7.910  19.689  0.00  0.00    +0.000 N 
ATOM     11  C   UNL     1       3.075   5.810  18.867  0.00  0.00    +0.000 A 
ATOM     12  H   UNL     1       2.717   8.375  19.168  0.00  0.00    +0.000 HD
ENDROOT
BRANCH  10  13
ATOM     13  C   UNL     1       1.222   8.806  20.482  0.00  0.00    +0.000 A 
ATOM     14  C   UNL     1       1.272   8.570  21.882  0.00  0.00    +0.000 A 
ATOM     15  C   UNL     1       0.549   9.338  22.792  0.00  0.00    +0.000 A 
ATOM     16  C   UNL     1      -0.246  10.362  22.321  0.00  0.00    +0.000 A 
ATOM     17  F   UNL     1      -0.954  11.109  23.180  0.00  0.00    +0.000 F 
ATOM     18  C   UNL     1      -0.319  10.636  20.966  0.00  0.00    +0.000 A 
ATOM     19  C   UNL     1       0.415   9.883  20.026  0.00  0.00    +0.000 A 
BRANCH  19  20
ATOM     20  O   UNL     1       0.380  10.190  18.683  0.00  0.00    +0.000 OA
BRANCH  20  21
ATOM     21  C   UNL     1      -0.542   9.458  17.869  0.00  0.00    +0.000 C 
BRANCH  21  22
ATOM     22  C   UNL     1      -1.736  10.326  17.505  0.00  0.00    +0.000 C 
ATOM     23  C   UNL     1      -2.531   9.936  16.269  0.00  0.00    +0.000 C 
ATOM     24  C   UNL     1      -3.112   9.698  17.632  0.00  0.00    +0.000 C 
BRANCH  22  25
ATOM     25  C   UNL     1      -1.580  11.806  17.804  0.00  0.00    +0.000 C 
BRANCH  25  26
ATOM     26  C   UNL     1      -2.541  12.133  18.866  0.00  0.00    +0.000 C 
ATOM     27  N   UNL     1      -3.290  12.387  19.718  0.00  0.00    +0.000 NA
ENDBRANCH  25  26
ENDBRANCH  22  25
ENDBRANCH  21  22
ENDBRANCH  20  21
ENDBRANCH  19  20
ENDBRANCH  10  13
BRANCH   3  28
ATOM     28  C   UNL     1       5.582   4.968  16.118  0.00  0.00    +0.000 C 
ATOM     29  O   UNL     1       5.312   5.009  14.927  0.00  0.00    +0.000 OA
BRANCH  28  30
ATOM     30  O   UNL     1       6.873   4.838  16.532  0.00  0.00    +0.000 OA
ATOM     31  H   UNL     1       7.224   5.666  16.916  0.00  0.00    +0.000 HD
ENDBRANCH  28  30
ENDBRANCH   3  28
TORSDOF 8
ENDMDL
MODEL 7
REMARK VINA RESULT:      -7.2      3.453      5.687
REMARK  Name = 
REMARK  9 active torsions:
REMARK  status: ('A' for Active; 'I' for Inactive)
REMARK    1  A    between atoms: C_1  and  C_2
REMARK    2  A    between atoms: C_3  and  C_4
REMARK    3  A    between atoms: C_4  and  O_6
REMARK    4  A    between atoms: N_13  and  C_14
REMARK    5  A    between atoms: C_20  and  O_21
REMARK    6  A    between atoms: O_21  and  C_22
REMARK    7  A    between atoms: C_22  and  C_23
REMARK    8  A    between atoms: C_23  and  C_24
REMARK    9  A    between atoms: C_24  and  C_25
REMARK                            x       y       z     vdW  Elec       q    Type
REMARK                         _______ _______ _______ _____ _____    ______ ____
ROOT
ATOM      1  C   UNL     1       0.183   8.820  22.302  0.00  0.00    +0.000 C 
ATOM      2  C   UNL     1       0.552   9.638  21.099  0.00  0.00    +0.000 A 
ATOM      3  C   UNL     1       0.331  11.018  20.986  0.00  0.00    +0.000 A 
ATOM      4  S   UNL     1       0.878  11.619  19.483  0.00  0.00    +0.000 S 
ATOM      5  C   UNL     1       1.413  10.101  18.979  0.00  0.00    +0.000 A 
ATOM      6  N   UNL     1       1.982  10.013  17.772  0.00  0.00    +0.000 NA
ATOM      7  C   UNL     1       2.396   8.785  17.505  0.00  0.00    +0.000 A 
ATOM      8  N   UNL     1       2.281   7.709  18.284  0.00  0.00    +0.000 NA
ATOM      9  C   UNL     1       1.661   7.791  19.484  0.00  0.00    +0.000 A 
ATOM     10  N   UNL     1       1.558   6.637  20.284  0.00  0.00    +0.000 N 
ATOM     11  C   UNL     1       1.206   9.084  19.899  0.00  0.00    +0.000 A 
ATOM     12  H   UNL     1       1.400   6.864  21.253  0.00  0.00    +0.000 HD
ENDROOT
BRANCH  10  13
ATOM     13  C   UNL     1       1.984   5.293  20.096  0.00  0.00    +0.000 A 
ATOM     14  C   UNL     1       0.973   4.309  20.266  0.00  0.00    +0.000 A 
ATOM     15  C   UNL     1       1.234   2.946  20.150  0.00  0.00    +0.000 A 
ATOM     16  C   UNL     1       2.519   2.533  19.862  0.00  0.00    +0.000 A 
ATOM     17  F   UNL     1       2.794   1.226  19.753  0.00  0.00    +0.000 F 
ATOM     18  C   UNL     1       3.535   3.456  19.679  0.00  0.00    +0.000 A 
ATOM     19  C   UNL     1       3.292   4.842  19.776  0.00  0.00    +0.000 A 
BRANCH  19  20
ATOM     20  O   UNL     1       4.294   5.759  19.542  0.00  0.00    +0.000 OA
BRANCH  20  21
ATOM     21  C   UNL     1       5.631   5.257  19.450  0.00  0.00    +0.000 C 
BRANCH  21  22
ATOM     22  C   UNL     1       6.315   5.790  18.200  0.00  0.00    +0.000 C 
ATOM     23  C   UNL     1       7.673   6.448  18.376  0.00  0.00    +0.000 C 
ATOM     24  C   UNL     1       7.582   5.087  17.751  0.00  0.00    +0.000 C 
BRANCH  22  25
ATOM     25  C   UNL     1       5.386   6.363  17.145  0.00  0.00    +0.000 C 
BRANCH  25  26
ATOM     26  C   UNL     1       5.270   5.354  16.083  0.00  0.00    +0.000 C 
ATOM     27  N   UNL     1       5.178   4.569  15.231  0.00  0.00    +0.000 NA
ENDBRANCH  25  26
ENDBRANCH  22  25
ENDBRANCH  21  22
ENDBRANCH  20  21
ENDBRANCH  19  20
ENDBRANCH  10  13
BRANCH   3  28
ATOM     28  C   UNL     1      -0.272  11.949  21.939  0.00  0.00    +0.000 C 
ATOM     29  O   UNL     1       0.155  13.058  22.225  0.00  0.00    +0.000 OA
BRANCH  28  30
ATOM     30  O   UNL     1      -1.410  11.474  22.516  0.00  0.00    +0.000 OA
ATOM     31  H   UNL     1      -2.094  12.167  22.612  0.00  0.00    +0.000 HD
ENDBRANCH  28  30
ENDBRANCH   3  28
TORSDOF 8
ENDMDL
MODEL 8
REMARK VINA RESULT:      -7.1      2.139      3.118
REMARK  Name = 
REMARK  9 active torsions:
REMARK  status: ('A' for Active; 'I' for Inactive)
REMARK    1  A    between atoms: C_1  and  C_2
REMARK    2  A    between atoms: C_3  and  C_4
REMARK    3  A    between atoms: C_4  and  O_6
REMARK    4  A    between atoms: N_13  and  C_14
REMARK    5  A    between atoms: C_20  and  O_21
REMARK    6  A    between atoms: O_21  and  C_22
REMARK    7  A    between atoms: C_22  and  C_23
REMARK    8  A    between atoms: C_23  and  C_24
REMARK    9  A    between atoms: C_24  and  C_25
REMARK                            x       y       z     vdW  Elec       q    Type
REMARK                         _______ _______ _______ _____ _____    ______ ____
ROOT
ATOM      1  C   UNL     1       3.648   2.227  18.736  0.00  0.00    +0.000 C 
ATOM      2  C   UNL     1       3.151   3.590  19.119  0.00  0.00    +0.000 A 
ATOM      3  C   UNL     1       2.397   3.858  20.271  0.00  0.00    +0.000 A 
ATOM      4  S   UNL     1       2.007   5.517  20.391  0.00  0.00    +0.000 S 
ATOM      5  C   UNL     1       2.821   5.896  18.964  0.00  0.00    +0.000 A 
ATOM      6  N   UNL     1       2.834   7.175  18.577  0.00  0.00    +0.000 NA
ATOM      7  C   UNL     1       3.534   7.354  17.468  0.00  0.00    +0.000 A 
ATOM      8  N   UNL     1       4.166   6.421  16.756  0.00  0.00    +0.000 NA
ATOM      9  C   UNL     1       4.112   5.119  17.124  0.00  0.00    +0.000 A 
ATOM     10  N   UNL     1       4.792   4.159  16.352  0.00  0.00    +0.000 N 
ATOM     11  C   UNL     1       3.413   4.810  18.335  0.00  0.00    +0.000 A 
ATOM     12  H   UNL     1       4.972   3.315  16.873  0.00  0.00    +0.000 HD
ENDROOT
BRANCH  10  13
ATOM     13  C   UNL     1       5.580   4.253  15.171  0.00  0.00    +0.000 A 
ATOM     14  C   UNL     1       4.982   3.714  14.000  0.00  0.00    +0.000 A 
ATOM     15  C   UNL     1       5.635   3.697  12.771  0.00  0.00    +0.000 A 
ATOM     16  C   UNL     1       6.909   4.221  12.683  0.00  0.00    +0.000 A 
ATOM     17  F   UNL     1       7.558   4.209  11.510  0.00  0.00    +0.000 F 
ATOM     18  C   UNL     1       7.528   4.766  13.794  0.00  0.00    +0.000 A 
ATOM     19  C   UNL     1       6.881   4.808  15.046  0.00  0.00    +0.000 A 
BRANCH  19  20
ATOM     20  O   UNL     1       7.481   5.398  16.139  0.00  0.00    +0.000 OA
BRANCH  20  21
ATOM     21  C   UNL     1       7.439   6.826  16.215  0.00  0.00    +0.000 C 
BRANCH  21  22
ATOM     22  C   UNL     1       7.737   7.293  17.631  0.00  0.00    +0.000 C 
ATOM     23  C   UNL     1       8.256   8.712  17.803  0.00  0.00    +0.000 C 
ATOM     24  C   UNL     1       6.848   8.383  18.202  0.00  0.00    +0.000 C 
BRANCH  22  25
ATOM     25  C   UNL     1       8.277   6.227  18.567  0.00  0.00    +0.000 C 
BRANCH  25  26
ATOM     26  C   UNL     1       7.123   5.650  19.269  0.00  0.00    +0.000 C 
ATOM     27  N   UNL     1       6.220   5.182  19.833  0.00  0.00    +0.000 NA
ENDBRANCH  25  26
ENDBRANCH  22  25
ENDBRANCH  21  22
ENDBRANCH  20  21
ENDBRANCH  19  20
ENDBRANCH  10  13
BRANCH   3  28
ATOM     28  C   UNL     1       1.933   2.948  21.318  0.00  0.00    +0.000 C 
ATOM     29  O   UNL     1       2.625   2.455  22.196  0.00  0.00    +0.000 OA
BRANCH  28  30
ATOM     30  O   UNL     1       0.601   2.676  21.250  0.00  0.00    +0.000 OA
ATOM     31  H   UNL     1       0.419   1.716  21.219  0.00  0.00    +0.000 HD
ENDBRANCH  28  30
ENDBRANCH   3  28
TORSDOF 8
ENDMDL
MODEL 9
REMARK VINA RESULT:      -7.1      3.250      5.229
REMARK  Name = 
REMARK  9 active torsions:
REMARK  status: ('A' for Active; 'I' for Inactive)
REMARK    1  A    between atoms: C_1  and  C_2
REMARK    2  A    between atoms: C_3  and  C_4
REMARK    3  A    between atoms: C_4  and  O_6
REMARK    4  A    between atoms: N_13  and  C_14
REMARK    5  A    between atoms: C_20  and  O_21
REMARK    6  A    between atoms: O_21  and  C_22
REMARK    7  A    between atoms: C_22  and  C_23
REMARK    8  A    between atoms: C_23  and  C_24
REMARK    9  A    between atoms: C_24  and  C_25
REMARK                            x       y       z     vdW  Elec       q    Type
REMARK                         _______ _______ _______ _____ _____    ______ ____
ROOT
ATOM      1  C   UNL     1       0.455   8.395  22.242  0.00  0.00    +0.000 C 
ATOM      2  C   UNL     1       0.614   9.231  21.006  0.00  0.00    +0.000 A 
ATOM      3  C   UNL     1       0.125  10.538  20.870  0.00  0.00    +0.000 A 
ATOM      4  S   UNL     1       0.491  11.186  19.332  0.00  0.00    +0.000 S 
ATOM      5  C   UNL     1       1.293   9.786  18.842  0.00  0.00    +0.000 A 
ATOM      6  N   UNL     1       1.826   9.772  17.616  0.00  0.00    +0.000 NA
ATOM      7  C   UNL     1       2.460   8.640  17.361  0.00  0.00    +0.000 A 
ATOM      8  N   UNL     1       2.585   7.586  18.169  0.00  0.00    +0.000 NA
ATOM      9  C   UNL     1       2.003   7.584  19.391  0.00  0.00    +0.000 A 
ATOM     10  N   UNL     1       2.156   6.458  20.222  0.00  0.00    +0.000 N 
ATOM     11  C   UNL     1       1.320   8.777  19.794  0.00  0.00    +0.000 A 
ATOM     12  H   UNL     1       1.990   6.680  21.191  0.00  0.00    +0.000 HD
ENDROOT
BRANCH  10  13
ATOM     13  C   UNL     1       2.828   5.216  20.049  0.00  0.00    +0.000 A 
ATOM     14  C   UNL     1       2.124   4.076  20.521  0.00  0.00    +0.000 A 
ATOM     15  C   UNL     1       2.658   2.792  20.456  0.00  0.00    +0.000 A 
ATOM     16  C   UNL     1       3.916   2.617  19.917  0.00  0.00    +0.000 A 
ATOM     17  F   UNL     1       4.452   1.390  19.851  0.00  0.00    +0.000 F 
ATOM     18  C   UNL     1       4.636   3.697  19.435  0.00  0.00    +0.000 A 
ATOM     19  C   UNL     1       4.110   5.005  19.475  0.00  0.00    +0.000 A 
BRANCH  19  20
ATOM     20  O   UNL     1       4.807   6.070  18.948  0.00  0.00    +0.000 OA
BRANCH  20  21
ATOM     21  C   UNL     1       5.118   6.021  17.552  0.00  0.00    +0.000 C 
BRANCH  21  22
ATOM     22  C   UNL     1       6.599   5.746  17.345  0.00  0.00    +0.000 C 
ATOM     23  C   UNL     1       6.989   4.369  16.833  0.00  0.00    +0.000 C 
ATOM     24  C   UNL     1       7.076   5.555  15.918  0.00  0.00    +0.000 C 
BRANCH  22  25
ATOM     25  C   UNL     1       7.530   6.416  18.341  0.00  0.00    +0.000 C 
BRANCH  25  26
ATOM     26  C   UNL     1       7.771   7.780  17.850  0.00  0.00    +0.000 C 
ATOM     27  N   UNL     1       7.979   8.856  17.464  0.00  0.00    +0.000 NA
ENDBRANCH  25  26
ENDBRANCH  22  25
ENDBRANCH  21  22
ENDBRANCH  20  21
ENDBRANCH  19  20
ENDBRANCH  10  13
BRANCH   3  28
ATOM     28  C   UNL     1      -0.613  11.364  21.824  0.00  0.00    +0.000 C 
ATOM     29  O   UNL     1      -0.338  11.513  23.006  0.00  0.00    +0.000 OA
BRANCH  28  30
ATOM     30  O   UNL     1      -1.687  11.997  21.278  0.00  0.00    +0.000 OA
ATOM     31  H   UNL     1      -2.291  11.378  20.821  0.00  0.00    +0.000 HD
ENDBRANCH  28  30
ENDBRANCH   3  28
TORSDOF 8
ENDMDL
