MODEL 1
REMARK VINA RESULT:      -8.0      0.000      0.000
REMARK  Name = 
REMARK  7 active torsions:
REMARK  status: ('A' for Active; 'I' for Inactive)
REMARK    1  A    between atoms: C_1  and  C_2
REMARK    2  A    between atoms: C_5  and  N_6
REMARK    3  A    between atoms: N_6  and  C_7
REMARK    4  A    between atoms: C_10  and  C_11
REMARK    5  A    between atoms: C_18  and  C_19
REMARK    6  A    between atoms: C_21  and  C_22
REMARK    7  A    between atoms: C_22  and  O_24
REMARK                            x       y       z     vdW  Elec       q    Type
REMARK                         _______ _______ _______ _____ _____    ______ ____
ROOT
ATOM      1  C   UNL     1       2.474   7.063  19.183  0.00  0.00    +0.000 A 
ATOM      2  C   UNL     1       2.287   7.867  18.073  0.00  0.00    +0.000 A 
ATOM      3  N   UNL     1       1.668   9.074  18.094  0.00  0.00    +0.000 NA
ATOM      4  C   UNL     1       1.108   9.520  19.252  0.00  0.00    +0.000 A 
ATOM      5  C   UNL     1       1.182   8.741  20.419  0.00  0.00    +0.000 A 
ATOM      6  C   UNL     1       0.560   9.082  21.743  0.00  0.00    +0.000 C 
ATOM      7  C   UNL     1       1.893   7.522  20.364  0.00  0.00    +0.000 A 
ENDROOT
BRANCH   4   8
ATOM      8  C   UNL     1       0.431  10.839  19.117  0.00  0.00    +0.000 A 
ATOM      9  C   UNL     1       1.066  12.061  19.422  0.00  0.00    +0.000 A 
ATOM     10  C   UNL     1       0.396  13.291  19.330  0.00  0.00    +0.000 A 
ATOM     11  C   UNL     1      -0.913  13.342  18.864  0.00  0.00    +0.000 A 
ATOM     12  C   UNL     1      -1.551  12.164  18.503  0.00  0.00    +0.000 A 
ATOM     13  C   UNL     1      -0.893  10.937  18.641  0.00  0.00    +0.000 A 
ATOM     14  F   UNL     1      -1.595   9.840  18.315  0.00  0.00    +0.000 F 
ENDBRANCH   4   8
BRANCH   1  15
ATOM     15  N   UNL     1       3.092   5.791  19.077  0.00  0.00    +0.000 N 
ATOM     16  H   UNL     1       3.549   5.573  19.977  0.00  0.00    +0.000 HD
BRANCH  15  21
ATOM     17  C   UNL     1       6.652   4.233  14.824  0.00  0.00    +0.000 C 
ATOM     18  C   UNL     1       5.693   4.659  15.894  0.00  0.00    +0.000 A 
ATOM     19  C   UNL     1       5.896   5.838  16.611  0.00  0.00    +0.000 A 
ATOM     20  C   UNL     1       5.024   6.197  17.640  0.00  0.00    +0.000 A 
ATOM     21  C   UNL     1       3.932   5.388  17.997  0.00  0.00    +0.000 A 
ATOM     22  C   UNL     1       3.668   4.256  17.198  0.00  0.00    +0.000 A 
ATOM     23  C   UNL     1       4.580   3.866  16.199  0.00  0.00    +0.000 A 
BRANCH  22  24
ATOM     24  C   UNL     1       2.460   3.433  17.438  0.00  0.00    +0.000 C 
ATOM     25  O   UNL     1       2.512   2.243  17.712  0.00  0.00    +0.000 OA
BRANCH  24  26
ATOM     26  O   UNL     1       1.295   4.117  17.386  0.00  0.00    +0.000 OA
ATOM     27  H   UNL     1       0.950   4.420  18.247  0.00  0.00    +0.000 HD
ENDBRANCH  24  26
ENDBRANCH  22  24
ENDBRANCH  15  21
ENDBRANCH   1  15
TORSDOF 5
ENDMDL
MODEL 2
REMARK VINA RESULT:      -7.9      0.935      1.323
REMARK  Name = 
REMARK  7 active torsions:
REMARK  status: ('A' for Active; 'I' for Inactive)
REMARK    1  A    between atoms: C_1  and  C_2
REMARK    2  A    between atoms: C_5  and  N_6
REMARK    3  A    between atoms: N_6  and  C_7
REMARK    4  A    between atoms: C_10  and  C_11
REMARK    5  A    between atoms: C_18  and  C_19
REMARK    6  A    between atoms: C_21  and  C_22
REMARK    7  A    between atoms: C_22  and  O_24
REMARK                            x       y       z     vdW  Elec       q    Type
REMARK                         _______ _______ _______ _____ _____    ______ ____
ROOT
ATOM      1  C   UNL     1       2.523   7.101  19.141  0.00  0.00    +0.000 A 
ATOM      2  C   UNL     1       2.280   7.864  18.013  0.00  0.00    +0.000 A 
ATOM      3  N   UNL     1       1.608   9.042  18.011  0.00  0.00    +0.000 NA
ATOM      4  C   UNL     1       1.047   9.496  19.166  0.00  0.00    +0.000 A 
ATOM      5  C   UNL     1       1.177   8.755  20.353  0.00  0.00    +0.000 A 
ATOM      6  C   UNL     1       0.563   9.105  21.678  0.00  0.00    +0.000 C 
ATOM      7  C   UNL     1       1.941   7.568  20.319  0.00  0.00    +0.000 A 
ENDROOT
BRANCH   4   8
ATOM      8  C   UNL     1       0.310  10.779  19.006  0.00  0.00    +0.000 A 
ATOM      9  C   UNL     1      -1.094  10.848  18.897  0.00  0.00    +0.000 A 
ATOM     10  C   UNL     1      -1.767  12.065  18.703  0.00  0.00    +0.000 A 
ATOM     11  C   UNL     1      -1.058  13.261  18.678  0.00  0.00    +0.000 A 
ATOM     12  C   UNL     1       0.321  13.235  18.837  0.00  0.00    +0.000 A 
ATOM     13  C   UNL     1       0.989  12.015  18.984  0.00  0.00    +0.000 A 
ATOM     14  F   UNL     1       2.327  12.073  19.084  0.00  0.00    +0.000 F 
ENDBRANCH   4   8
BRANCH   1  15
ATOM     15  N   UNL     1       3.196   5.856  19.059  0.00  0.00    +0.000 N 
ATOM     16  H   UNL     1       3.699   5.697  19.947  0.00  0.00    +0.000 HD
BRANCH  15  21
ATOM     17  C   UNL     1       6.652   4.276  14.729  0.00  0.00    +0.000 C 
ATOM     18  C   UNL     1       5.718   4.707  15.820  0.00  0.00    +0.000 A 
ATOM     19  C   UNL     1       5.939   5.890  16.526  0.00  0.00    +0.000 A 
ATOM     20  C   UNL     1       5.093   6.255  17.574  0.00  0.00    +0.000 A 
ATOM     21  C   UNL     1       4.009   5.447  17.961  0.00  0.00    +0.000 A 
ATOM     22  C   UNL     1       3.726   4.312  17.175  0.00  0.00    +0.000 A 
ATOM     23  C   UNL     1       4.613   3.916  16.156  0.00  0.00    +0.000 A 
BRANCH  22  24
ATOM     24  C   UNL     1       2.524   3.491  17.447  0.00  0.00    +0.000 C 
ATOM     25  O   UNL     1       2.584   2.310  17.757  0.00  0.00    +0.000 OA
BRANCH  24  26
ATOM     26  O   UNL     1       1.355   4.167  17.384  0.00  0.00    +0.000 OA
ATOM     27  H   UNL     1       1.097   4.471  16.494  0.00  0.00    +0.000 HD
ENDBRANCH  24  26
ENDBRANCH  22  24
ENDBRANCH  15  21
ENDBRANCH   1  15
TORSDOF 5
ENDMDL
MODEL 3
REMARK VINA RESULT:      -7.9      1.171      1.586
REMARK  Name = 
REMARK  7 active torsions:
REMARK  status: ('A' for Active; 'I' for Inactive)
REMARK    1  A    between atoms: C_1  and  C_2
REMARK    2  A    between atoms: C_5  and  N_6
REMARK    3  A    between atoms: N_6  and  C_7
REMARK    4  A    between atoms: C_10  and  C_11
REMARK    5  A    between atoms: C_18  and  C_19
REMARK    6  A    between atoms: C_21  and  C_22
REMARK    7  A    between atoms: C_22  and  O_24
REMARK                            x       y       z     vdW  Elec       q    Type
REMARK                         _______ _______ _______ _____ _____    ______ ____
ROOT
ATOM      1  C   UNL     1       2.410   7.101  19.798  0.00  0.00    +0.000 A 
ATOM      2  C   UNL     1       2.339   7.889  18.664  0.00  0.00    +0.000 A 
ATOM      3  N   UNL     1       1.643   9.050  18.576  0.00  0.00    +0.000 NA
ATOM      4  C   UNL     1       0.883   9.457  19.630  0.00  0.00    +0.000 A 
ATOM      5  C   UNL     1       0.832   8.686  20.804  0.00  0.00    +0.000 A 
ATOM      6  C   UNL     1      -0.007   8.984  22.014  0.00  0.00    +0.000 C 
ATOM      7  C   UNL     1       1.625   7.519  20.872  0.00  0.00    +0.000 A 
ENDROOT
BRANCH   4   8
ATOM      8  C   UNL     1       0.146  10.726  19.378  0.00  0.00    +0.000 A 
ATOM      9  C   UNL     1      -1.011  10.794  18.575  0.00  0.00    +0.000 A 
ATOM     10  C   UNL     1      -1.666  12.008  18.315  0.00  0.00    +0.000 A 
ATOM     11  C   UNL     1      -1.219  13.185  18.906  0.00  0.00    +0.000 A 
ATOM     12  C   UNL     1      -0.115  13.146  19.746  0.00  0.00    +0.000 A 
ATOM     13  C   UNL     1       0.560  11.941  19.964  0.00  0.00    +0.000 A 
ATOM     14  F   UNL     1       1.646  11.995  20.751  0.00  0.00    +0.000 F 
ENDBRANCH   4   8
BRANCH   1  15
ATOM     15  N   UNL     1       3.124   5.876  19.802  0.00  0.00    +0.000 N 
ATOM     16  H   UNL     1       3.736   5.856  20.633  0.00  0.00    +0.000 HD
BRANCH  15  21
ATOM     17  C   UNL     1       6.105   3.724  15.367  0.00  0.00    +0.000 C 
ATOM     18  C   UNL     1       5.303   4.316  16.487  0.00  0.00    +0.000 A 
ATOM     19  C   UNL     1       5.831   5.328  17.289  0.00  0.00    +0.000 A 
ATOM     20  C   UNL     1       5.094   5.835  18.361  0.00  0.00    +0.000 A 
ATOM     21  C   UNL     1       3.817   5.340  18.676  0.00  0.00    +0.000 A 
ATOM     22  C   UNL     1       3.245   4.397  17.798  0.00  0.00    +0.000 A 
ATOM     23  C   UNL     1       4.011   3.847  16.753  0.00  0.00    +0.000 A 
BRANCH  22  24
ATOM     24  C   UNL     1       1.853   3.933  17.998  0.00  0.00    +0.000 C 
ATOM     25  O   UNL     1       0.957   4.158  17.197  0.00  0.00    +0.000 OA
BRANCH  24  26
ATOM     26  O   UNL     1       1.663   3.188  19.110  0.00  0.00    +0.000 OA
ATOM     27  H   UNL     1       1.292   2.299  18.959  0.00  0.00    +0.000 HD
ENDBRANCH  24  26
ENDBRANCH  22  24
ENDBRANCH  15  21
ENDBRANCH   1  15
TORSDOF 5
ENDMDL
MODEL 4
REMARK VINA RESULT:      -7.9      3.029      4.308
REMARK  Name = 
REMARK  7 active torsions:
REMARK  status: ('A' for Active; 'I' for Inactive)
REMARK    1  A    between atoms: C_1  and  C_2
REMARK    2  A    between atoms: C_5  and  N_6
REMARK    3  A    between atoms: N_6  and  C_7
REMARK    4  A    between atoms: C_10  and  C_11
REMARK    5  A    between atoms: C_18  and  C_19
REMARK    6  A    between atoms: C_21  and  C_22
REMARK    7  A    between atoms: C_22  and  O_24
REMARK                            x       y       z     vdW  Elec       q    Type
REMARK                         _______ _______ _______ _____ _____    ______ ____
ROOT
ATOM      1  C   UNL     1       1.533   8.518  20.867  0.00  0.00    +0.000 A 
ATOM      2  C   UNL     1       1.476   8.944  22.182  0.00  0.00    +0.000 A 
ATOM      3  N   UNL     1       0.647   9.915  22.640  0.00  0.00    +0.000 NA
ATOM      4  C   UNL     1      -0.139  10.596  21.761  0.00  0.00    +0.000 A 
ATOM      5  C   UNL     1      -0.099  10.285  20.391  0.00  0.00    +0.000 A 
ATOM      6  C   UNL     1      -0.863  10.992  19.309  0.00  0.00    +0.000 C 
ATOM      7  C   UNL     1       0.731   9.223  19.970  0.00  0.00    +0.000 A 
ENDROOT
BRANCH   4   8
ATOM      8  C   UNL     1      -0.967  11.655  22.399  0.00  0.00    +0.000 A 
ATOM      9  C   UNL     1      -2.154  11.378  23.108  0.00  0.00    +0.000 A 
ATOM     10  C   UNL     1      -2.943  12.397  23.665  0.00  0.00    +0.000 A 
ATOM     11  C   UNL     1      -2.533  13.723  23.585  0.00  0.00    +0.000 A 
ATOM     12  C   UNL     1      -1.341  14.027  22.942  0.00  0.00    +0.000 A 
ATOM     13  C   UNL     1      -0.583  13.012  22.350  0.00  0.00    +0.000 A 
ATOM     14  F   UNL     1       0.531  13.394  21.706  0.00  0.00    +0.000 F 
ENDBRANCH   4   8
BRANCH   1  15
ATOM     15  N   UNL     1       2.458   7.526  20.452  0.00  0.00    +0.000 N 
ATOM     16  H   UNL     1       3.136   7.961  19.806  0.00  0.00    +0.000 HD
BRANCH  15  21
ATOM     17  C   UNL     1       0.810   2.316  18.630  0.00  0.00    +0.000 C 
ATOM     18  C   UNL     1       1.288   3.651  19.115  0.00  0.00    +0.000 A 
ATOM     19  C   UNL     1       0.993   4.092  20.406  0.00  0.00    +0.000 A 
ATOM     20  C   UNL     1       1.399   5.359  20.828  0.00  0.00    +0.000 A 
ATOM     21  C   UNL     1       2.096   6.232  19.975  0.00  0.00    +0.000 A 
ATOM     22  C   UNL     1       2.486   5.740  18.712  0.00  0.00    +0.000 A 
ATOM     23  C   UNL     1       2.027   4.485  18.268  0.00  0.00    +0.000 A 
BRANCH  22  24
ATOM     24  C   UNL     1       3.333   6.560  17.817  0.00  0.00    +0.000 C 
ATOM     25  O   UNL     1       4.347   6.130  17.286  0.00  0.00    +0.000 OA
BRANCH  24  26
ATOM     26  O   UNL     1       2.865   7.807  17.585  0.00  0.00    +0.000 OA
ATOM     27  H   UNL     1       1.927   7.949  17.812  0.00  0.00    +0.000 HD
ENDBRANCH  24  26
ENDBRANCH  22  24
ENDBRANCH  15  21
ENDBRANCH   1  15
TORSDOF 5
ENDMDL
MODEL 5
REMARK VINA RESULT:      -7.8      1.238      1.664
REMARK  Name = 
REMARK  7 active torsions:
REMARK  status: ('A' for Active; 'I' for Inactive)
REMARK    1  A    between atoms: C_1  and  C_2
REMARK    2  A    between atoms: C_5  and  N_6
REMARK    3  A    between atoms: N_6  and  C_7
REMARK    4  A    between atoms: C_10  and  C_11
REMARK    5  A    between atoms: C_18  and  C_19
REMARK    6  A    between atoms: C_21  and  C_22
REMARK    7  A    between atoms: C_22  and  O_24
REMARK                            x       y       z     vdW  Elec       q    Type
REMARK                         _______ _______ _______ _____ _____    ______ ____
ROOT
ATOM      1  C   UNL     1       2.470   6.681  19.511  0.00  0.00    +0.000 A 
ATOM      2  C   UNL     1       1.770   6.942  20.675  0.00  0.00    +0.000 A 
ATOM      3  N   UNL     1       1.027   8.057  20.891  0.00  0.00    +0.000 NA
ATOM      4  C   UNL     1       1.013   9.045  19.955  0.00  0.00    +0.000 A 
ATOM      5  C   UNL     1       1.752   8.905  18.768  0.00  0.00    +0.000 A 
ATOM      6  C   UNL     1       1.874   9.936  17.683  0.00  0.00    +0.000 C 
ATOM      7  C   UNL     1       2.457   7.699  18.558  0.00  0.00    +0.000 A 
ENDROOT
BRANCH   4   8
ATOM      8  C   UNL     1       0.188  10.222  20.343  0.00  0.00    +0.000 A 
ATOM      9  C   UNL     1       0.493  11.040  21.451  0.00  0.00    +0.000 A 
ATOM     10  C   UNL     1      -0.323  12.119  21.826  0.00  0.00    +0.000 A 
ATOM     11  C   UNL     1      -1.436  12.454  21.063  0.00  0.00    +0.000 A 
ATOM     12  C   UNL     1      -1.735  11.703  19.934  0.00  0.00    +0.000 A 
ATOM     13  C   UNL     1      -0.944  10.601  19.593  0.00  0.00    +0.000 A 
ATOM     14  F   UNL     1      -1.327   9.899  18.514  0.00  0.00    +0.000 F 
ENDBRANCH   4   8
BRANCH   1  15
ATOM     15  N   UNL     1       3.262   5.512  19.373  0.00  0.00    +0.000 N 
ATOM     16  H   UNL     1       3.834   5.403  20.225  0.00  0.00    +0.000 HD
BRANCH  15  21
ATOM     17  C   UNL     1       6.584   4.277  14.831  0.00  0.00    +0.000 C 
ATOM     18  C   UNL     1       5.686   4.625  15.980  0.00  0.00    +0.000 A 
ATOM     19  C   UNL     1       5.981   5.698  16.821  0.00  0.00    +0.000 A 
ATOM     20  C   UNL     1       5.166   5.981  17.918  0.00  0.00    +0.000 A 
ATOM     21  C   UNL     1       4.041   5.195  18.221  0.00  0.00    +0.000 A 
ATOM     22  C   UNL     1       3.685   4.181  17.307  0.00  0.00    +0.000 A 
ATOM     23  C   UNL     1       4.540   3.863  16.235  0.00  0.00    +0.000 A 
BRANCH  22  24
ATOM     24  C   UNL     1       2.440   3.403  17.497  0.00  0.00    +0.000 C 
ATOM     25  O   UNL     1       2.438   2.208  17.757  0.00  0.00    +0.000 OA
BRANCH  24  26
ATOM     26  O   UNL     1       1.304   4.131  17.417  0.00  0.00    +0.000 OA
ATOM     27  H   UNL     1       1.232   4.709  16.635  0.00  0.00    +0.000 HD
ENDBRANCH  24  26
ENDBRANCH  22  24
ENDBRANCH  15  21
ENDBRANCH   1  15
TORSDOF 5
ENDMDL
MODEL 6
REMARK VINA RESULT:      -7.7      2.505      3.834
REMARK  Name = 
REMARK  7 active torsions:
REMARK  status: ('A' for Active; 'I' for Inactive)
REMARK    1  A    between atoms: C_1  and  C_2
REMARK    2  A    between atoms: C_5  and  N_6
REMARK    3  A    between atoms: N_6  and  C_7
REMARK    4  A    between atoms: C_10  and  C_11
REMARK    5  A    between atoms: C_18  and  C_19
REMARK    6  A    between atoms: C_21  and  C_22
REMARK    7  A    between atoms: C_22  and  O_24
REMARK                            x       y       z     vdW  Elec       q    Type
REMARK                         _______ _______ _______ _____ _____    ______ ____
ROOT
ATOM      1  C   UNL     1       4.136   4.814  18.031  0.00  0.00    +0.000 A 
ATOM      2  C   UNL     1       4.176   6.158  17.707  0.00  0.00    +0.000 A 
ATOM      3  N   UNL     1       3.433   7.118  18.314  0.00  0.00    +0.000 NA
ATOM      4  C   UNL     1       2.515   6.760  19.253  0.00  0.00    +0.000 A 
ATOM      5  C   UNL     1       2.348   5.408  19.599  0.00  0.00    +0.000 A 
ATOM      6  C   UNL     1       1.336   4.869  20.569  0.00  0.00    +0.000 C 
ATOM      7  C   UNL     1       3.189   4.453  18.988  0.00  0.00    +0.000 A 
ENDROOT
BRANCH   4   8
ATOM      8  C   UNL     1       1.748   7.910  19.805  0.00  0.00    +0.000 A 
ATOM      9  C   UNL     1       1.514   8.084  21.184  0.00  0.00    +0.000 A 
ATOM     10  C   UNL     1       0.751   9.153  21.681  0.00  0.00    +0.000 A 
ATOM     11  C   UNL     1       0.252  10.119  20.815  0.00  0.00    +0.000 A 
ATOM     12  C   UNL     1       0.509  10.009  19.455  0.00  0.00    +0.000 A 
ATOM     13  C   UNL     1       1.231   8.917  18.963  0.00  0.00    +0.000 A 
ATOM     14  F   UNL     1       1.396   8.858  17.631  0.00  0.00    +0.000 F 
ENDBRANCH   4   8
BRANCH   1  15
ATOM     15  N   UNL     1       4.911   3.861  17.321  0.00  0.00    +0.000 N 
ATOM     16  H   UNL     1       5.516   3.365  17.995  0.00  0.00    +0.000 HD
BRANCH  15  21
ATOM     17  C   UNL     1       7.672   5.019  12.400  0.00  0.00    +0.000 C 
ATOM     18  C   UNL     1       6.987   4.676  13.688  0.00  0.00    +0.000 A 
ATOM     19  C   UNL     1       5.792   3.955  13.694  0.00  0.00    +0.000 A 
ATOM     20  C   UNL     1       5.136   3.686  14.896  0.00  0.00    +0.000 A 
ATOM     21  C   UNL     1       5.640   4.140  16.128  0.00  0.00    +0.000 A 
ATOM     22  C   UNL     1       6.901   4.771  16.126  0.00  0.00    +0.000 A 
ATOM     23  C   UNL     1       7.532   5.091  14.909  0.00  0.00    +0.000 A 
BRANCH  22  24
ATOM     24  C   UNL     1       7.549   5.157  17.401  0.00  0.00    +0.000 C 
ATOM     25  O   UNL     1       7.873   4.343  18.253  0.00  0.00    +0.000 OA
BRANCH  24  26
ATOM     26  O   UNL     1       7.808   6.478  17.522  0.00  0.00    +0.000 OA
ATOM     27  H   UNL     1       8.070   6.772  18.415  0.00  0.00    +0.000 HD
ENDBRANCH  24  26
ENDBRANCH  22  24
ENDBRANCH  15  21
ENDBRANCH   1  15
TORSDOF 5
ENDMDL
MODEL 7
REMARK VINA RESULT:      -7.7      2.192      2.816
REMARK  Name = 
REMARK  7 active torsions:
REMARK  status: ('A' for Active; 'I' for Inactive)
REMARK    1  A    between atoms: C_1  and  C_2
REMARK    2  A    between atoms: C_5  and  N_6
REMARK    3  A    between atoms: N_6  and  C_7
REMARK    4  A    between atoms: C_10  and  C_11
REMARK    5  A    between atoms: C_18  and  C_19
REMARK    6  A    between atoms: C_21  and  C_22
REMARK    7  A    between atoms: C_22  and  O_24
REMARK                            x       y       z     vdW  Elec       q    Type
REMARK                         _______ _______ _______ _____ _____    ______ ____
ROOT
ATOM      1  C   UNL     1       2.601   8.020  18.375  0.00  0.00    +0.000 A 
ATOM      2  C   UNL     1       2.077   9.046  17.609  0.00  0.00    +0.000 A 
ATOM      3  N   UNL     1       1.175   9.956  18.055  0.00  0.00    +0.000 NA
ATOM      4  C   UNL     1       0.667   9.834  19.312  0.00  0.00    +0.000 A 
ATOM      5  C   UNL     1       1.084   8.781  20.145  0.00  0.00    +0.000 A 
ATOM      6  C   UNL     1       0.564   8.493  21.524  0.00  0.00    +0.000 C 
ATOM      7  C   UNL     1       2.072   7.897  19.659  0.00  0.00    +0.000 A 
ENDROOT
BRANCH   4   8
ATOM      8  C   UNL     1      -0.338  10.879  19.652  0.00  0.00    +0.000 A 
ATOM      9  C   UNL     1      -0.090  11.905  20.587  0.00  0.00    +0.000 A 
ATOM     10  C   UNL     1      -1.067  12.855  20.925  0.00  0.00    +0.000 A 
ATOM     11  C   UNL     1      -2.303  12.845  20.289  0.00  0.00    +0.000 A 
ATOM     12  C   UNL     1      -2.562  11.881  19.325  0.00  0.00    +0.000 A 
ATOM     13  C   UNL     1      -1.601  10.910  19.026  0.00  0.00    +0.000 A 
ATOM     14  F   UNL     1      -1.946   9.985  18.116  0.00  0.00    +0.000 F 
ENDBRANCH   4   8
BRANCH   1  15
ATOM     15  N   UNL     1       3.508   7.079  17.826  0.00  0.00    +0.000 N 
ATOM     16  H   UNL     1       3.607   7.270  16.816  0.00  0.00    +0.000 HD
BRANCH  15  21
ATOM     17  C   UNL     1       3.106   1.381  18.575  0.00  0.00    +0.000 C 
ATOM     18  C   UNL     1       3.212   2.869  18.433  0.00  0.00    +0.000 A 
ATOM     19  C   UNL     1       2.079   3.649  18.195  0.00  0.00    +0.000 A 
ATOM     20  C   UNL     1       2.197   5.028  18.013  0.00  0.00    +0.000 A 
ATOM     21  C   UNL     1       3.446   5.671  18.048  0.00  0.00    +0.000 A 
ATOM     22  C   UNL     1       4.572   4.897  18.398  0.00  0.00    +0.000 A 
ATOM     23  C   UNL     1       4.459   3.500  18.525  0.00  0.00    +0.000 A 
BRANCH  22  24
ATOM     24  C   UNL     1       5.895   5.536  18.581  0.00  0.00    +0.000 C 
ATOM     25  O   UNL     1       6.337   6.377  17.811  0.00  0.00    +0.000 OA
BRANCH  24  26
ATOM     26  O   UNL     1       6.553   5.158  19.700  0.00  0.00    +0.000 OA
ATOM     27  H   UNL     1       7.117   5.843  20.104  0.00  0.00    +0.000 HD
ENDBRANCH  24  26
ENDBRANCH  22  24
ENDBRANCH  15  21
ENDBRANCH   1  15
TORSDOF 5
ENDMDL
MODEL 8
REMARK VINA RESULT:      -7.6      1.656      2.242
REMARK  Name = 
REMARK  7 active torsions:
REMARK  status: ('A' for Active; 'I' for Inactive)
REMARK    1  A    between atoms: C_1  and  C_2
REMARK    2  A    between atoms: C_5  and  N_6
REMARK    3  A    between atoms: N_6  and  C_7
REMARK    4  A    between atoms: C_10  and  C_11
REMARK    5  A    between atoms: C_18  and  C_19
REMARK    6  A    between atoms: C_21  and  C_22
REMARK    7  A    between atoms: C_22  and  O_24
REMARK                            x       y       z     vdW  Elec       q    Type
REMARK                         _______ _______ _______ _____ _____    ______ ____
ROOT
ATOM      1  C   UNL     1       2.563   6.476  19.561  0.00  0.00    +0.000 A 
ATOM      2  C   UNL     1       1.860   6.644  20.740  0.00  0.00    +0.000 A 
ATOM      3  N   UNL     1       1.075   7.714  21.022  0.00  0.00    +0.000 NA
ATOM      4  C   UNL     1       1.018   8.752  20.144  0.00  0.00    +0.000 A 
ATOM      5  C   UNL     1       1.756   8.708  18.948  0.00  0.00    +0.000 A 
ATOM      6  C   UNL     1       1.831   9.803  17.923  0.00  0.00    +0.000 C 
ATOM      7  C   UNL     1       2.506   7.545  18.668  0.00  0.00    +0.000 A 
ENDROOT
BRANCH   4   8
ATOM      8  C   UNL     1       0.150   9.872  20.601  0.00  0.00    +0.000 A 
ATOM      9  C   UNL     1      -0.707  10.580  19.734  0.00  0.00    +0.000 A 
ATOM     10  C   UNL     1      -1.486  11.662  20.176  0.00  0.00    +0.000 A 
ATOM     11  C   UNL     1      -1.479  12.027  21.518  0.00  0.00    +0.000 A 
ATOM     12  C   UNL     1      -0.687  11.316  22.410  0.00  0.00    +0.000 A 
ATOM     13  C   UNL     1       0.120  10.269  21.954  0.00  0.00    +0.000 A 
ATOM     14  F   UNL     1       0.892   9.664  22.871  0.00  0.00    +0.000 F 
ENDBRANCH   4   8
BRANCH   1  15
ATOM     15  N   UNL     1       3.399   5.349  19.355  0.00  0.00    +0.000 N 
ATOM     16  H   UNL     1       3.999   5.230  20.187  0.00  0.00    +0.000 HD
BRANCH  15  21
ATOM     17  C   UNL     1       6.647   4.438  14.685  0.00  0.00    +0.000 C 
ATOM     18  C   UNL     1       5.767   4.702  15.869  0.00  0.00    +0.000 A 
ATOM     19  C   UNL     1       6.058   5.734  16.761  0.00  0.00    +0.000 A 
ATOM     20  C   UNL     1       5.261   5.938  17.889  0.00  0.00    +0.000 A 
ATOM     21  C   UNL     1       4.159   5.112  18.171  0.00  0.00    +0.000 A 
ATOM     22  C   UNL     1       3.805   4.142  17.211  0.00  0.00    +0.000 A 
ATOM     23  C   UNL     1       4.643   3.902  16.105  0.00  0.00    +0.000 A 
BRANCH  22  24
ATOM     24  C   UNL     1       2.581   3.327  17.383  0.00  0.00    +0.000 C 
ATOM     25  O   UNL     1       2.610   2.126  17.608  0.00  0.00    +0.000 OA
BRANCH  24  26
ATOM     26  O   UNL     1       1.426   4.029  17.330  0.00  0.00    +0.000 OA
ATOM     27  H   UNL     1       1.528   4.990  17.196  0.00  0.00    +0.000 HD
ENDBRANCH  24  26
ENDBRANCH  22  24
ENDBRANCH  15  21
ENDBRANCH   1  15
TORSDOF 5
ENDMDL
MODEL 9
REMARK VINA RESULT:      -7.6      2.521      3.416
REMARK  Name = 
REMARK  7 active torsions:
REMARK  status: ('A' for Active; 'I' for Inactive)
REMARK    1  A    between atoms: C_1  and  C_2
REMARK    2  A    between atoms: C_5  and  N_6
REMARK    3  A    between atoms: N_6  and  C_7
REMARK    4  A    between atoms: C_10  and  C_11
REMARK    5  A    between atoms: C_18  and  C_19
REMARK    6  A    between atoms: C_21  and  C_22
REMARK    7  A    between atoms: C_22  and  O_24
REMARK                            x       y       z     vdW  Elec       q    Type
REMARK                         _______ _______ _______ _____ _____    ______ ____
ROOT
ATOM      1  C   UNL     1       3.231   5.974  18.952  0.00  0.00    +0.000 A 
ATOM      2  C   UNL     1       2.577   6.016  20.170  0.00  0.00    +0.000 A 
ATOM      3  N   UNL     1       1.771   7.029  20.576  0.00  0.00    +0.000 NA
ATOM      4  C   UNL     1       1.638   8.134  19.793  0.00  0.00    +0.000 A 
ATOM      5  C   UNL     1       2.321   8.219  18.568  0.00  0.00    +0.000 A 
ATOM      6  C   UNL     1       2.313   9.398  17.638  0.00  0.00    +0.000 C 
ATOM      7  C   UNL     1       3.096   7.112  18.158  0.00  0.00    +0.000 A 
ENDROOT
BRANCH   4   8
ATOM      8  C   UNL     1       0.755   9.178  20.381  0.00  0.00    +0.000 A 
ATOM      9  C   UNL     1      -0.223   9.866  19.633  0.00  0.00    +0.000 A 
ATOM     10  C   UNL     1      -1.016  10.878  20.196  0.00  0.00    +0.000 A 
ATOM     11  C   UNL     1      -0.900  11.189  21.546  0.00  0.00    +0.000 A 
ATOM     12  C   UNL     1       0.015  10.494  22.326  0.00  0.00    +0.000 A 
ATOM     13  C   UNL     1       0.834   9.519  21.748  0.00  0.00    +0.000 A 
ATOM     14  F   UNL     1       1.725   8.926  22.559  0.00  0.00    +0.000 F 
ENDBRANCH   4   8
BRANCH   1  15
ATOM     15  N   UNL     1       4.094   4.901  18.615  0.00  0.00    +0.000 N 
ATOM     16  H   UNL     1       4.636   4.640  19.454  0.00  0.00    +0.000 HD
BRANCH  15  21
ATOM     17  C   UNL     1       7.332   4.837  13.850  0.00  0.00    +0.000 C 
ATOM     18  C   UNL     1       6.513   4.808  15.106  0.00  0.00    +0.000 A 
ATOM     19  C   UNL     1       5.210   4.312  15.100  0.00  0.00    +0.000 A 
ATOM     20  C   UNL     1       4.439   4.338  16.264  0.00  0.00    +0.000 A 
ATOM     21  C   UNL     1       4.937   4.873  17.465  0.00  0.00    +0.000 A 
ATOM     22  C   UNL     1       6.290   5.271  17.493  0.00  0.00    +0.000 A 
ATOM     23  C   UNL     1       7.045   5.296  16.305  0.00  0.00    +0.000 A 
BRANCH  22  24
ATOM     24  C   UNL     1       6.914   5.721  18.758  0.00  0.00    +0.000 C 
ATOM     25  O   UNL     1       6.645   5.225  19.843  0.00  0.00    +0.000 OA
BRANCH  24  26
ATOM     26  O   UNL     1       7.849   6.685  18.612  0.00  0.00    +0.000 OA
ATOM     27  H   UNL     1       8.578   6.662  19.260  0.00  0.00    +0.000 HD
ENDBRANCH  24  26
ENDBRANCH  22  24
ENDBRANCH  15  21
ENDBRANCH   1  15
TORSDOF 5
ENDMDL
