MODEL 1
REMARK VINA RESULT:      -8.3      0.000      0.000
REMARK  Name = 
REMARK  9 active torsions:
REMARK  status: ('A' for Active; 'I' for Inactive)
REMARK    1  A    between atoms: C_2  and  O_27
REMARK    2  A    between atoms: N_3  and  C_4
REMARK    3  A    between atoms: C_4  and  C_5
REMARK    4  A    between atoms: C_5  and  O_6
REMARK    5  A    between atoms: O_6  and  C_7
REMARK    6  A    between atoms: C_11  and  C_12
REMARK    7  A    between atoms: C_18  and  C_19
REMARK    8  A    between atoms: O_27  and  C_28
REMARK    9  A    between atoms: C_28  and  C_29
REMARK                            x       y       z     vdW  Elec       q    Type
REMARK                         _______ _______ _______ _____ _____    ______ ____
ROOT
ATOM      1  C   UNL     1       2.584   7.100  18.542  0.00  0.00    +0.000 A 
ATOM      2  C   UNL     1       2.509   6.361  19.710  0.00  0.00    +0.000 A 
ATOM      3  C   UNL     1       1.871   6.904  20.839  0.00  0.00    +0.000 A 
ATOM      4  C   UNL     1       1.314   8.204  20.825  0.00  0.00    +0.000 A 
ATOM      5  C   UNL     1       1.362   8.967  19.661  0.00  0.00    +0.000 A 
ATOM      6  C   UNL     1       1.973   8.354  18.524  0.00  0.00    +0.000 A 
ENDROOT
BRANCH   5   7
ATOM      7  C   UNL     1       0.835  10.356  19.479  0.00  0.00    +0.000 A 
ATOM      8  N   UNL     1       1.445  11.025  18.472  0.00  0.00    +0.000 NA
ATOM      9  N   UNL     1       0.908  12.221  18.450  0.00  0.00    +0.000 N 
ATOM     10  C   UNL     1      -0.079  12.409  19.354  0.00  0.00    +0.000 A 
ATOM     11  C   UNL     1      -0.853  13.549  19.525  0.00  0.00    +0.000 A 
ATOM     12  C   UNL     1      -1.793  13.522  20.535  0.00  0.00    +0.000 A 
ATOM     13  C   UNL     1      -1.963  12.405  21.368  0.00  0.00    +0.000 A 
ATOM     14  C   UNL     1      -1.133  11.251  21.175  0.00  0.00    +0.000 A 
ATOM     15  C   UNL     1      -0.165  11.231  20.106  0.00  0.00    +0.000 A 
ATOM     16  H   UNL     1       1.264  12.887  17.776  0.00  0.00    +0.000 HD
BRANCH  13  17
ATOM     17  C   UNL     1      -3.059  12.572  22.347  0.00  0.00    +0.000 A 
ATOM     18  N   UNL     1      -4.130  13.324  22.158  0.00  0.00    +0.000 NA
ATOM     19  C   UNL     1      -4.915  13.082  23.244  0.00  0.00    +0.000 A 
ATOM     20  N   UNL     1      -4.386  12.244  24.137  0.00  0.00    +0.000 NA
ATOM     21  N   UNL     1      -3.209  11.940  23.553  0.00  0.00    +0.000 N 
ATOM     22  H   UNL     1      -2.596  11.280  24.013  0.00  0.00    +0.000 HD
ENDBRANCH  13  17
ENDBRANCH   5   7
BRANCH   1  23
ATOM     23  O   UNL     1       3.245   6.541  17.473  0.00  0.00    +0.000 OA
BRANCH  23  24
ATOM     24  C   UNL     1       4.519   7.144  17.168  0.00  0.00    +0.000 C 
BRANCH  24  25
ATOM     25  C   UNL     1       5.680   6.204  17.527  0.00  0.00    +0.000 C 
BRANCH  25  28
ATOM     26  O   UNL     1       5.067   4.189  15.612  0.00  0.00    +0.000 OA
ATOM     27  C   UNL     1       4.918   3.973  16.805  0.00  0.00    +0.000 C 
ATOM     28  N   UNL     1       5.252   4.844  17.799  0.00  0.00    +0.000 N 
ATOM     29  H   UNL     1       4.933   4.600  18.727  0.00  0.00    +0.000 HD
BRANCH  27  30
ATOM     30  O   UNL     1       4.350   2.872  17.348  0.00  0.00    +0.000 OA
BRANCH  30  31
ATOM     31  C   UNL     1       2.916   2.868  17.388  0.00  0.00    +0.000 C 
BRANCH  31  32
ATOM     32  C   UNL     1       2.421   2.884  18.812  0.00  0.00    +0.000 A 
ATOM     33  C   UNL     1       1.067   3.115  19.096  0.00  0.00    +0.000 A 
ATOM     34  C   UNL     1       0.611   3.129  20.416  0.00  0.00    +0.000 A 
ATOM     35  C   UNL     1       1.505   2.919  21.465  0.00  0.00    +0.000 A 
ATOM     36  C   UNL     1       2.852   2.690  21.196  0.00  0.00    +0.000 A 
ATOM     37  C   UNL     1       3.310   2.676  19.876  0.00  0.00    +0.000 A 
ENDBRANCH  31  32
ENDBRANCH  30  31
ENDBRANCH  27  30
ENDBRANCH  25  28
ENDBRANCH  24  25
ENDBRANCH  23  24
ENDBRANCH   1  23
TORSDOF 9
ENDMDL
MODEL 2
REMARK VINA RESULT:      -8.1      6.421      7.477
REMARK  Name = 
REMARK  9 active torsions:
REMARK  status: ('A' for Active; 'I' for Inactive)
REMARK    1  A    between atoms: C_2  and  O_27
REMARK    2  A    between atoms: N_3  and  C_4
REMARK    3  A    between atoms: C_4  and  C_5
REMARK    4  A    between atoms: C_5  and  O_6
REMARK    5  A    between atoms: O_6  and  C_7
REMARK    6  A    between atoms: C_11  and  C_12
REMARK    7  A    between atoms: C_18  and  C_19
REMARK    8  A    between atoms: O_27  and  C_28
REMARK    9  A    between atoms: C_28  and  C_29
REMARK                            x       y       z     vdW  Elec       q    Type
REMARK                         _______ _______ _______ _____ _____    ______ ____
ROOT
ATOM      1  C   UNL     1       9.231  10.224  19.103  0.00  0.00    +0.000 A 
ATOM      2  C   UNL     1       9.729  10.857  17.977  0.00  0.00    +0.000 A 
ATOM      3  C   UNL     1      10.057  12.223  18.032  0.00  0.00    +0.000 A 
ATOM      4  C   UNL     1       9.872  12.985  19.210  0.00  0.00    +0.000 A 
ATOM      5  C   UNL     1       9.386  12.374  20.363  0.00  0.00    +0.000 A 
ATOM      6  C   UNL     1       9.117  10.974  20.275  0.00  0.00    +0.000 A 
ENDROOT
BRANCH   5   7
ATOM      7  C   UNL     1       9.123  13.031  21.681  0.00  0.00    +0.000 A 
ATOM      8  N   UNL     1       9.822  14.178  21.850  0.00  0.00    +0.000 NA
ATOM      9  N   UNL     1       9.516  14.621  23.045  0.00  0.00    +0.000 N 
ATOM     10  C   UNL     1       8.602  13.872  23.703  0.00  0.00    +0.000 A 
ATOM     11  C   UNL     1       8.057  14.124  24.955  0.00  0.00    +0.000 A 
ATOM     12  C   UNL     1       7.153  13.202  25.441  0.00  0.00    +0.000 A 
ATOM     13  C   UNL     1       6.798  12.051  24.720  0.00  0.00    +0.000 A 
ATOM     14  C   UNL     1       7.395  11.814  23.437  0.00  0.00    +0.000 A 
ATOM     15  C   UNL     1       8.317  12.774  22.883  0.00  0.00    +0.000 A 
ATOM     16  H   UNL     1       9.974  15.463  23.370  0.00  0.00    +0.000 HD
BRANCH  13  17
ATOM     17  C   UNL     1       5.776  11.230  25.403  0.00  0.00    +0.000 A 
ATOM     18  N   UNL     1       5.497  11.294  26.694  0.00  0.00    +0.000 NA
ATOM     19  C   UNL     1       4.424  10.470  26.854  0.00  0.00    +0.000 A 
ATOM     20  N   UNL     1       4.026   9.852  25.741  0.00  0.00    +0.000 NA
ATOM     21  N   UNL     1       4.899  10.342  24.837  0.00  0.00    +0.000 N 
ATOM     22  H   UNL     1       4.808  10.056  23.871  0.00  0.00    +0.000 HD
ENDBRANCH  13  17
ENDBRANCH   5   7
BRANCH   1  23
ATOM     23  O   UNL     1       8.896   8.895  18.993  0.00  0.00    +0.000 OA
BRANCH  23  24
ATOM     24  C   UNL     1       8.042   8.579  17.874  0.00  0.00    +0.000 C 
BRANCH  24  25
ATOM     25  C   UNL     1       7.666   7.089  17.866  0.00  0.00    +0.000 C 
BRANCH  25  28
ATOM     26  O   UNL     1       5.821   5.350  19.161  0.00  0.00    +0.000 OA
ATOM     27  C   UNL     1       5.501   5.942  18.141  0.00  0.00    +0.000 C 
ATOM     28  N   UNL     1       6.285   6.849  17.492  0.00  0.00    +0.000 N 
ATOM     29  H   UNL     1       5.958   7.144  16.582  0.00  0.00    +0.000 HD
BRANCH  27  30
ATOM     30  O   UNL     1       4.352   5.766  17.449  0.00  0.00    +0.000 OA
BRANCH  30  31
ATOM     31  C   UNL     1       3.145   6.062  18.164  0.00  0.00    +0.000 C 
BRANCH  31  32
ATOM     32  C   UNL     1       2.425   4.794  18.546  0.00  0.00    +0.000 A 
ATOM     33  C   UNL     1       2.525   3.646  17.747  0.00  0.00    +0.000 A 
ATOM     34  C   UNL     1       1.856   2.473  18.103  0.00  0.00    +0.000 A 
ATOM     35  C   UNL     1       1.075   2.438  19.257  0.00  0.00    +0.000 A 
ATOM     36  C   UNL     1       0.966   3.572  20.058  0.00  0.00    +0.000 A 
ATOM     37  C   UNL     1       1.635   4.747  19.704  0.00  0.00    +0.000 A 
ENDBRANCH  31  32
ENDBRANCH  30  31
ENDBRANCH  27  30
ENDBRANCH  25  28
ENDBRANCH  24  25
ENDBRANCH  23  24
ENDBRANCH   1  23
TORSDOF 9
ENDMDL
MODEL 3
REMARK VINA RESULT:      -8.0      1.906      4.549
REMARK  Name = 
REMARK  9 active torsions:
REMARK  status: ('A' for Active; 'I' for Inactive)
REMARK    1  A    between atoms: C_2  and  O_27
REMARK    2  A    between atoms: N_3  and  C_4
REMARK    3  A    between atoms: C_4  and  C_5
REMARK    4  A    between atoms: C_5  and  O_6
REMARK    5  A    between atoms: O_6  and  C_7
REMARK    6  A    between atoms: C_11  and  C_12
REMARK    7  A    between atoms: C_18  and  C_19
REMARK    8  A    between atoms: O_27  and  C_28
REMARK    9  A    between atoms: C_28  and  C_29
REMARK                            x       y       z     vdW  Elec       q    Type
REMARK                         _______ _______ _______ _____ _____    ______ ____
ROOT
ATOM      1  C   UNL     1       3.651   3.253  20.421  0.00  0.00    +0.000 A 
ATOM      2  C   UNL     1       2.623   2.746  21.197  0.00  0.00    +0.000 A 
ATOM      3  C   UNL     1       1.449   3.497  21.378  0.00  0.00    +0.000 A 
ATOM      4  C   UNL     1       1.291   4.779  20.800  0.00  0.00    +0.000 A 
ATOM      5  C   UNL     1       2.301   5.311  20.003  0.00  0.00    +0.000 A 
ATOM      6  C   UNL     1       3.453   4.489  19.805  0.00  0.00    +0.000 A 
ENDROOT
BRANCH   5   7
ATOM      7  C   UNL     1       2.301   6.648  19.332  0.00  0.00    +0.000 A 
ATOM      8  N   UNL     1       3.019   6.664  18.183  0.00  0.00    +0.000 NA
ATOM      9  N   UNL     1       2.954   7.891  17.728  0.00  0.00    +0.000 N 
ATOM     10  C   UNL     1       2.187   8.724  18.467  0.00  0.00    +0.000 A 
ATOM     11  C   UNL     1       1.899  10.056  18.201  0.00  0.00    +0.000 A 
ATOM     12  C   UNL     1       1.108  10.719  19.117  0.00  0.00    +0.000 A 
ATOM     13  C   UNL     1       0.619  10.095  20.275  0.00  0.00    +0.000 A 
ATOM     14  C   UNL     1       0.952   8.723  20.527  0.00  0.00    +0.000 A 
ATOM     15  C   UNL     1       1.747   7.988  19.575  0.00  0.00    +0.000 A 
ATOM     16  H   UNL     1       3.466   8.110  16.883  0.00  0.00    +0.000 HD
BRANCH  13  17
ATOM     17  C   UNL     1      -0.249  10.974  21.087  0.00  0.00    +0.000 A 
ATOM     18  N   UNL     1      -1.052  11.903  20.595  0.00  0.00    +0.000 NA
ATOM     19  C   UNL     1      -1.739  12.368  21.675  0.00  0.00    +0.000 A 
ATOM     20  N   UNL     1      -1.391  11.814  22.837  0.00  0.00    +0.000 NA
ATOM     21  N   UNL     1      -0.442  10.941  22.443  0.00  0.00    +0.000 N 
ATOM     22  H   UNL     1      -0.011  10.346  23.139  0.00  0.00    +0.000 HD
ENDBRANCH  13  17
ENDBRANCH   5   7
BRANCH   1  23
ATOM     23  O   UNL     1       4.792   2.496  20.298  0.00  0.00    +0.000 OA
BRANCH  23  24
ATOM     24  C   UNL     1       4.613   1.243  19.607  0.00  0.00    +0.000 C 
BRANCH  24  25
ATOM     25  C   UNL     1       3.895   1.447  18.263  0.00  0.00    +0.000 C 
BRANCH  25  28
ATOM     26  O   UNL     1       2.472   3.403  16.762  0.00  0.00    +0.000 OA
ATOM     27  C   UNL     1       3.692   3.366  16.729  0.00  0.00    +0.000 C 
ATOM     28  N   UNL     1       4.464   2.519  17.468  0.00  0.00    +0.000 N 
ATOM     29  H   UNL     1       5.445   2.493  17.227  0.00  0.00    +0.000 HD
BRANCH  27  30
ATOM     30  O   UNL     1       4.487   4.109  15.925  0.00  0.00    +0.000 OA
BRANCH  30  31
ATOM     31  C   UNL     1       5.895   3.870  16.051  0.00  0.00    +0.000 C 
BRANCH  31  32
ATOM     32  C   UNL     1       6.550   4.950  16.874  0.00  0.00    +0.000 A 
ATOM     33  C   UNL     1       6.410   6.301  16.524  0.00  0.00    +0.000 A 
ATOM     34  C   UNL     1       7.017   7.299  17.288  0.00  0.00    +0.000 A 
ATOM     35  C   UNL     1       7.776   6.957  18.406  0.00  0.00    +0.000 A 
ATOM     36  C   UNL     1       7.924   5.619  18.763  0.00  0.00    +0.000 A 
ATOM     37  C   UNL     1       7.317   4.619  18.000  0.00  0.00    +0.000 A 
ENDBRANCH  31  32
ENDBRANCH  30  31
ENDBRANCH  27  30
ENDBRANCH  25  28
ENDBRANCH  24  25
ENDBRANCH  23  24
ENDBRANCH   1  23
TORSDOF 9
ENDMDL
MODEL 4
REMARK VINA RESULT:      -8.0      2.520      4.279
REMARK  Name = 
REMARK  9 active torsions:
REMARK  status: ('A' for Active; 'I' for Inactive)
REMARK    1  A    between atoms: C_2  and  O_27
REMARK    2  A    between atoms: N_3  and  C_4
REMARK    3  A    between atoms: C_4  and  C_5
REMARK    4  A    between atoms: C_5  and  O_6
REMARK    5  A    between atoms: O_6  and  C_7
REMARK    6  A    between atoms: C_11  and  C_12
REMARK    7  A    between atoms: C_18  and  C_19
REMARK    8  A    between atoms: O_27  and  C_28
REMARK    9  A    between atoms: C_28  and  C_29
REMARK                            x       y       z     vdW  Elec       q    Type
REMARK                         _______ _______ _______ _____ _____    ______ ____
ROOT
ATOM      1  C   UNL     1       2.925   7.300  18.184  0.00  0.00    +0.000 A 
ATOM      2  C   UNL     1       2.844   6.500  19.311  0.00  0.00    +0.000 A 
ATOM      3  C   UNL     1       2.042   6.899  20.394  0.00  0.00    +0.000 A 
ATOM      4  C   UNL     1       1.322   8.117  20.376  0.00  0.00    +0.000 A 
ATOM      5  C   UNL     1       1.372   8.937  19.252  0.00  0.00    +0.000 A 
ATOM      6  C   UNL     1       2.157   8.465  18.156  0.00  0.00    +0.000 A 
ENDROOT
BRANCH   5   7
ATOM      7  C   UNL     1       0.686  10.255  19.074  0.00  0.00    +0.000 A 
ATOM      8  N   UNL     1      -0.664  10.151  19.061  0.00  0.00    +0.000 NA
ATOM      9  N   UNL     1      -1.123  11.364  18.871  0.00  0.00    +0.000 N 
ATOM     10  C   UNL     1      -0.169  12.319  18.800  0.00  0.00    +0.000 A 
ATOM     11  C   UNL     1      -0.361  13.687  18.654  0.00  0.00    +0.000 A 
ATOM     12  C   UNL     1       0.771  14.473  18.581  0.00  0.00    +0.000 A 
ATOM     13  C   UNL     1       2.064  13.931  18.638  0.00  0.00    +0.000 A 
ATOM     14  C   UNL     1       2.225  12.511  18.771  0.00  0.00    +0.000 A 
ATOM     15  C   UNL     1       1.065  11.663  18.886  0.00  0.00    +0.000 A 
ATOM     16  H   UNL     1      -2.125  11.485  18.796  0.00  0.00    +0.000 HD
BRANCH  13  17
ATOM     17  C   UNL     1       3.127  14.957  18.595  0.00  0.00    +0.000 A 
ATOM     18  N   UNL     1       4.423  14.704  18.669  0.00  0.00    +0.000 NA
ATOM     19  C   UNL     1       5.020  15.910  18.462  0.00  0.00    +0.000 A 
ATOM     20  N   UNL     1       4.175  16.929  18.298  0.00  0.00    +0.000 NA
ATOM     21  N   UNL     1       2.983  16.305  18.392  0.00  0.00    +0.000 N 
ATOM     22  H   UNL     1       2.139  16.851  18.273  0.00  0.00    +0.000 HD
ENDBRANCH  13  17
ENDBRANCH   5   7
BRANCH   1  23
ATOM     23  O   UNL     1       3.746   6.884  17.162  0.00  0.00    +0.000 OA
BRANCH  23  24
ATOM     24  C   UNL     1       5.111   7.341  17.261  0.00  0.00    +0.000 C 
BRANCH  24  25
ATOM     25  C   UNL     1       6.100   6.182  17.060  0.00  0.00    +0.000 C 
BRANCH  25  28
ATOM     26  O   UNL     1       6.279   5.020  19.652  0.00  0.00    +0.000 OA
ATOM     27  C   UNL     1       5.768   4.401  18.731  0.00  0.00    +0.000 C 
ATOM     28  N   UNL     1       5.570   4.898  17.477  0.00  0.00    +0.000 N 
ATOM     29  H   UNL     1       5.281   4.229  16.777  0.00  0.00    +0.000 HD
BRANCH  27  30
ATOM     30  O   UNL     1       5.365   3.110  18.770  0.00  0.00    +0.000 OA
BRANCH  30  31
ATOM     31  C   UNL     1       4.743   2.691  19.992  0.00  0.00    +0.000 C 
BRANCH  31  32
ATOM     32  C   UNL     1       3.246   2.855  19.914  0.00  0.00    +0.000 A 
ATOM     33  C   UNL     1       2.496   3.143  21.064  0.00  0.00    +0.000 A 
ATOM     34  C   UNL     1       1.110   3.294  20.989  0.00  0.00    +0.000 A 
ATOM     35  C   UNL     1       0.458   3.152  19.765  0.00  0.00    +0.000 A 
ATOM     36  C   UNL     1       1.191   2.864  18.616  0.00  0.00    +0.000 A 
ATOM     37  C   UNL     1       2.578   2.713  18.689  0.00  0.00    +0.000 A 
ENDBRANCH  31  32
ENDBRANCH  30  31
ENDBRANCH  27  30
ENDBRANCH  25  28
ENDBRANCH  24  25
ENDBRANCH  23  24
ENDBRANCH   1  23
TORSDOF 9
ENDMDL
MODEL 5
REMARK VINA RESULT:      -7.9      2.376      4.502
REMARK  Name = 
REMARK  9 active torsions:
REMARK  status: ('A' for Active; 'I' for Inactive)
REMARK    1  A    between atoms: C_2  and  O_27
REMARK    2  A    between atoms: N_3  and  C_4
REMARK    3  A    between atoms: C_4  and  C_5
REMARK    4  A    between atoms: C_5  and  O_6
REMARK    5  A    between atoms: O_6  and  C_7
REMARK    6  A    between atoms: C_11  and  C_12
REMARK    7  A    between atoms: C_18  and  C_19
REMARK    8  A    between atoms: O_27  and  C_28
REMARK    9  A    between atoms: C_28  and  C_29
REMARK                            x       y       z     vdW  Elec       q    Type
REMARK                         _______ _______ _______ _____ _____    ______ ____
ROOT
ATOM      1  C   UNL     1       2.337   6.842  19.617  0.00  0.00    +0.000 A 
ATOM      2  C   UNL     1       2.674   7.079  18.296  0.00  0.00    +0.000 A 
ATOM      3  C   UNL     1       2.372   8.321  17.710  0.00  0.00    +0.000 A 
ATOM      4  C   UNL     1       1.708   9.340  18.433  0.00  0.00    +0.000 A 
ATOM      5  C   UNL     1       1.368   9.138  19.767  0.00  0.00    +0.000 A 
ATOM      6  C   UNL     1       1.743   7.881  20.334  0.00  0.00    +0.000 A 
ENDROOT
BRANCH   5   7
ATOM      7  C   UNL     1       0.658  10.100  20.666  0.00  0.00    +0.000 A 
ATOM      8  N   UNL     1      -0.071   9.486  21.628  0.00  0.00    +0.000 NA
ATOM      9  N   UNL     1      -0.653  10.442  22.312  0.00  0.00    +0.000 N 
ATOM     10  C   UNL     1      -0.331  11.693  21.913  0.00  0.00    +0.000 A 
ATOM     11  C   UNL     1      -0.754  12.888  22.479  0.00  0.00    +0.000 A 
ATOM     12  C   UNL     1      -0.313  14.052  21.884  0.00  0.00    +0.000 A 
ATOM     13  C   UNL     1       0.516  14.047  20.751  0.00  0.00    +0.000 A 
ATOM     14  C   UNL     1       0.918  12.793  20.182  0.00  0.00    +0.000 A 
ATOM     15  C   UNL     1       0.505  11.557  20.798  0.00  0.00    +0.000 A 
ATOM     16  H   UNL     1      -1.277  10.174  23.062  0.00  0.00    +0.000 HD
BRANCH  13  17
ATOM     17  C   UNL     1       0.909  15.402  20.312  0.00  0.00    +0.000 A 
ATOM     18  N   UNL     1       1.682  15.663  19.271  0.00  0.00    +0.000 NA
ATOM     19  C   UNL     1       1.672  17.020  19.168  0.00  0.00    +0.000 A 
ATOM     20  N   UNL     1       0.966  17.645  20.112  0.00  0.00    +0.000 NA
ATOM     21  N   UNL     1       0.499  16.603  20.829  0.00  0.00    +0.000 N 
ATOM     22  H   UNL     1      -0.110  16.790  21.615  0.00  0.00    +0.000 HD
ENDBRANCH  13  17
ENDBRANCH   5   7
BRANCH   1  23
ATOM     23  O   UNL     1       2.626   5.602  20.138  0.00  0.00    +0.000 OA
BRANCH  23  24
ATOM     24  C   UNL     1       1.520   4.955  20.801  0.00  0.00    +0.000 C 
BRANCH  24  25
ATOM     25  C   UNL     1       1.189   3.606  20.141  0.00  0.00    +0.000 C 
BRANCH  25  28
ATOM     26  O   UNL     1       1.063   4.161  17.352  0.00  0.00    +0.000 OA
ATOM     27  C   UNL     1       1.964   3.472  17.805  0.00  0.00    +0.000 C 
ATOM     28  N   UNL     1       2.152   3.212  19.130  0.00  0.00    +0.000 N 
ATOM     29  H   UNL     1       2.841   2.505  19.348  0.00  0.00    +0.000 HD
BRANCH  27  30
ATOM     30  O   UNL     1       2.892   2.804  17.082  0.00  0.00    +0.000 OA
BRANCH  30  31
ATOM     31  C   UNL     1       4.220   2.806  17.623  0.00  0.00    +0.000 C 
BRANCH  31  32
ATOM     32  C   UNL     1       4.910   4.117  17.342  0.00  0.00    +0.000 A 
ATOM     33  C   UNL     1       5.615   4.785  18.354  0.00  0.00    +0.000 A 
ATOM     34  C   UNL     1       6.253   5.999  18.091  0.00  0.00    +0.000 A 
ATOM     35  C   UNL     1       6.186   6.561  16.818  0.00  0.00    +0.000 A 
ATOM     36  C   UNL     1       5.486   5.908  15.805  0.00  0.00    +0.000 A 
ATOM     37  C   UNL     1       4.848   4.693  16.065  0.00  0.00    +0.000 A 
ENDBRANCH  31  32
ENDBRANCH  30  31
ENDBRANCH  27  30
ENDBRANCH  25  28
ENDBRANCH  24  25
ENDBRANCH  23  24
ENDBRANCH   1  23
TORSDOF 9
ENDMDL
MODEL 6
REMARK VINA RESULT:      -7.9      3.601     10.958
REMARK  Name = 
REMARK  9 active torsions:
REMARK  status: ('A' for Active; 'I' for Inactive)
REMARK    1  A    between atoms: C_2  and  O_27
REMARK    2  A    between atoms: N_3  and  C_4
REMARK    3  A    between atoms: C_4  and  C_5
REMARK    4  A    between atoms: C_5  and  O_6
REMARK    5  A    between atoms: O_6  and  C_7
REMARK    6  A    between atoms: C_11  and  C_12
REMARK    7  A    between atoms: C_18  and  C_19
REMARK    8  A    between atoms: O_27  and  C_28
REMARK    9  A    between atoms: C_28  and  C_29
REMARK                            x       y       z     vdW  Elec       q    Type
REMARK                         _______ _______ _______ _____ _____    ______ ____
ROOT
ATOM      1  C   UNL     1       1.091   9.883  20.674  0.00  0.00    +0.000 A 
ATOM      2  C   UNL     1       0.836  10.649  19.550  0.00  0.00    +0.000 A 
ATOM      3  C   UNL     1       1.123  10.133  18.274  0.00  0.00    +0.000 A 
ATOM      4  C   UNL     1       1.689   8.848  18.102  0.00  0.00    +0.000 A 
ATOM      5  C   UNL     1       1.945   8.048  19.212  0.00  0.00    +0.000 A 
ATOM      6  C   UNL     1       1.588   8.593  20.483  0.00  0.00    +0.000 A 
ENDROOT
BRANCH   5   7
ATOM      7  C   UNL     1       2.548   6.679  19.208  0.00  0.00    +0.000 A 
ATOM      8  N   UNL     1       2.091   5.896  20.215  0.00  0.00    +0.000 NA
ATOM      9  N   UNL     1       2.721   4.752  20.104  0.00  0.00    +0.000 N 
ATOM     10  C   UNL     1       3.556   4.673  19.043  0.00  0.00    +0.000 A 
ATOM     11  C   UNL     1       4.311   3.575  18.651  0.00  0.00    +0.000 A 
ATOM     12  C   UNL     1       5.117   3.734  17.543  0.00  0.00    +0.000 A 
ATOM     13  C   UNL     1       5.192   4.946  16.839  0.00  0.00    +0.000 A 
ATOM     14  C   UNL     1       4.412   6.065  17.284  0.00  0.00    +0.000 A 
ATOM     15  C   UNL     1       3.532   5.925  18.417  0.00  0.00    +0.000 A 
ATOM     16  H   UNL     1       2.535   4.040  20.799  0.00  0.00    +0.000 HD
BRANCH  13  17
ATOM     17  C   UNL     1       6.075   4.878  15.656  0.00  0.00    +0.000 A 
ATOM     18  N   UNL     1       5.859   4.117  14.597  0.00  0.00    +0.000 NA
ATOM     19  C   UNL     1       6.839   4.465  13.718  0.00  0.00    +0.000 A 
ATOM     20  N   UNL     1       7.696   5.380  14.174  0.00  0.00    +0.000 NA
ATOM     21  N   UNL     1       7.197   5.622  15.404  0.00  0.00    +0.000 N 
ATOM     22  H   UNL     1       7.649   6.320  15.981  0.00  0.00    +0.000 HD
ENDBRANCH  13  17
ENDBRANCH   5   7
BRANCH   1  23
ATOM     23  O   UNL     1       0.824  10.441  21.902  0.00  0.00    +0.000 OA
BRANCH  23  24
ATOM     24  C   UNL     1      -0.028   9.646  22.752  0.00  0.00    +0.000 C 
BRANCH  24  25
ATOM     25  C   UNL     1      -1.224  10.466  23.263  0.00  0.00    +0.000 C 
BRANCH  25  28
ATOM     26  O   UNL     1      -3.544  12.110  23.390  0.00  0.00    +0.000 OA
ATOM     27  C   UNL     1      -2.694  12.306  22.535  0.00  0.00    +0.000 C 
ATOM     28  N   UNL     1      -1.518  11.623  22.439  0.00  0.00    +0.000 N 
ATOM     29  H   UNL     1      -0.983  11.783  21.597  0.00  0.00    +0.000 HD
BRANCH  27  30
ATOM     30  O   UNL     1      -2.788  13.184  21.510  0.00  0.00    +0.000 OA
BRANCH  30  31
ATOM     31  C   UNL     1      -3.478  12.708  20.347  0.00  0.00    +0.000 C 
BRANCH  31  32
ATOM     32  C   UNL     1      -4.952  13.015  20.436  0.00  0.00    +0.000 A 
ATOM     33  C   UNL     1      -5.398  14.333  20.614  0.00  0.00    +0.000 A 
ATOM     34  C   UNL     1      -6.763  14.615  20.697  0.00  0.00    +0.000 A 
ATOM     35  C   UNL     1      -7.695  13.583  20.609  0.00  0.00    +0.000 A 
ATOM     36  C   UNL     1      -7.264  12.270  20.434  0.00  0.00    +0.000 A 
ATOM     37  C   UNL     1      -5.899  11.985  20.351  0.00  0.00    +0.000 A 
ENDBRANCH  31  32
ENDBRANCH  30  31
ENDBRANCH  27  30
ENDBRANCH  25  28
ENDBRANCH  24  25
ENDBRANCH  23  24
ENDBRANCH   1  23
TORSDOF 9
ENDMDL
MODEL 7
REMARK VINA RESULT:      -7.9      3.257      9.553
REMARK  Name = 
REMARK  9 active torsions:
REMARK  status: ('A' for Active; 'I' for Inactive)
REMARK    1  A    between atoms: C_2  and  O_27
REMARK    2  A    between atoms: N_3  and  C_4
REMARK    3  A    between atoms: C_4  and  C_5
REMARK    4  A    between atoms: C_5  and  O_6
REMARK    5  A    between atoms: O_6  and  C_7
REMARK    6  A    between atoms: C_11  and  C_12
REMARK    7  A    between atoms: C_18  and  C_19
REMARK    8  A    between atoms: O_27  and  C_28
REMARK    9  A    between atoms: C_28  and  C_29
REMARK                            x       y       z     vdW  Elec       q    Type
REMARK                         _______ _______ _______ _____ _____    ______ ____
ROOT
ATOM      1  C   UNL     1       1.608   4.930  20.509  0.00  0.00    +0.000 A 
ATOM      2  C   UNL     1       1.074   3.719  20.918  0.00  0.00    +0.000 A 
ATOM      3  C   UNL     1       1.580   2.520  20.388  0.00  0.00    +0.000 A 
ATOM      4  C   UNL     1       2.617   2.511  19.425  0.00  0.00    +0.000 A 
ATOM      5  C   UNL     1       3.183   3.711  19.004  0.00  0.00    +0.000 A 
ATOM      6  C   UNL     1       2.673   4.901  19.609  0.00  0.00    +0.000 A 
ENDROOT
BRANCH   5   7
ATOM      7  C   UNL     1       4.271   3.881  17.991  0.00  0.00    +0.000 A 
ATOM      8  N   UNL     1       4.264   2.917  17.040  0.00  0.00    +0.000 NA
ATOM      9  N   UNL     1       5.277   3.176  16.249  0.00  0.00    +0.000 N 
ATOM     10  C   UNL     1       5.963   4.297  16.566  0.00  0.00    +0.000 A 
ATOM     11  C   UNL     1       7.043   4.840  15.882  0.00  0.00    +0.000 A 
ATOM     12  C   UNL     1       7.604   5.986  16.407  0.00  0.00    +0.000 A 
ATOM     13  C   UNL     1       7.124   6.583  17.584  0.00  0.00    +0.000 A 
ATOM     14  C   UNL     1       6.018   5.984  18.274  0.00  0.00    +0.000 A 
ATOM     15  C   UNL     1       5.385   4.806  17.735  0.00  0.00    +0.000 A 
ATOM     16  H   UNL     1       5.459   2.535  15.487  0.00  0.00    +0.000 HD
BRANCH  13  17
ATOM     17  C   UNL     1       7.837   7.829  17.936  0.00  0.00    +0.000 A 
ATOM     18  N   UNL     1       7.679   8.987  17.318  0.00  0.00    +0.000 NA
ATOM     19  C   UNL     1       8.422   9.867  18.045  0.00  0.00    +0.000 A 
ATOM     20  N   UNL     1       9.079   9.326  19.072  0.00  0.00    +0.000 NA
ATOM     21  N   UNL     1       8.700   8.035  18.980  0.00  0.00    +0.000 N 
ATOM     22  H   UNL     1       9.036   7.380  19.674  0.00  0.00    +0.000 HD
ENDBRANCH  13  17
ENDBRANCH   5   7
BRANCH   1  23
ATOM     23  O   UNL     1       1.060   6.078  21.031  0.00  0.00    +0.000 OA
BRANCH  23  24
ATOM     24  C   UNL     1       1.685   7.300  20.588  0.00  0.00    +0.000 C 
BRANCH  24  25
ATOM     25  C   UNL     1       1.287   8.485  21.482  0.00  0.00    +0.000 C 
BRANCH  25  28
ATOM     26  O   UNL     1      -0.686  10.447  22.086  0.00  0.00    +0.000 OA
ATOM     27  C   UNL     1      -0.009  10.542  21.073  0.00  0.00    +0.000 C 
ATOM     28  N   UNL     1       1.007   9.697  20.736  0.00  0.00    +0.000 N 
ATOM     29  H   UNL     1       1.377   9.802  19.802  0.00  0.00    +0.000 HD
BRANCH  27  30
ATOM     30  O   UNL     1      -0.177  11.454  20.088  0.00  0.00    +0.000 OA
BRANCH  30  31
ATOM     31  C   UNL     1      -0.133  10.939  18.751  0.00  0.00    +0.000 C 
BRANCH  31  32
ATOM     32  C   UNL     1      -1.520  10.856  18.164  0.00  0.00    +0.000 A 
ATOM     33  C   UNL     1      -2.551  11.674  18.647  0.00  0.00    +0.000 A 
ATOM     34  C   UNL     1      -3.835  11.595  18.102  0.00  0.00    +0.000 A 
ATOM     35  C   UNL     1      -4.101  10.693  17.074  0.00  0.00    +0.000 A 
ATOM     36  C   UNL     1      -3.086   9.873  16.587  0.00  0.00    +0.000 A 
ATOM     37  C   UNL     1      -1.801   9.951  17.130  0.00  0.00    +0.000 A 
ENDBRANCH  31  32
ENDBRANCH  30  31
ENDBRANCH  27  30
ENDBRANCH  25  28
ENDBRANCH  24  25
ENDBRANCH  23  24
ENDBRANCH   1  23
TORSDOF 9
ENDMDL
MODEL 8
REMARK VINA RESULT:      -7.9      2.224      4.269
REMARK  Name = 
REMARK  9 active torsions:
REMARK  status: ('A' for Active; 'I' for Inactive)
REMARK    1  A    between atoms: C_2  and  O_27
REMARK    2  A    between atoms: N_3  and  C_4
REMARK    3  A    between atoms: C_4  and  C_5
REMARK    4  A    between atoms: C_5  and  O_6
REMARK    5  A    between atoms: O_6  and  C_7
REMARK    6  A    between atoms: C_11  and  C_12
REMARK    7  A    between atoms: C_18  and  C_19
REMARK    8  A    between atoms: O_27  and  C_28
REMARK    9  A    between atoms: C_28  and  C_29
REMARK                            x       y       z     vdW  Elec       q    Type
REMARK                         _______ _______ _______ _____ _____    ______ ____
ROOT
ATOM      1  C   UNL     1       2.115   7.364  19.711  0.00  0.00    +0.000 A 
ATOM      2  C   UNL     1       2.405   7.899  18.468  0.00  0.00    +0.000 A 
ATOM      3  C   UNL     1       1.917   9.172  18.125  0.00  0.00    +0.000 A 
ATOM      4  C   UNL     1       1.112   9.923  19.015  0.00  0.00    +0.000 A 
ATOM      5  C   UNL     1       0.815   9.418  20.277  0.00  0.00    +0.000 A 
ATOM      6  C   UNL     1       1.377   8.145  20.600  0.00  0.00    +0.000 A 
ENDROOT
BRANCH   5   7
ATOM      7  C   UNL     1      -0.025  10.072  21.328  0.00  0.00    +0.000 A 
ATOM      8  N   UNL     1      -0.148   9.324  22.450  0.00  0.00    +0.000 NA
ATOM      9  N   UNL     1      -0.925  10.002  23.260  0.00  0.00    +0.000 N 
ATOM     10  C   UNL     1      -1.312  11.208  22.785  0.00  0.00    +0.000 A 
ATOM     11  C   UNL     1      -2.089  12.155  23.439  0.00  0.00    +0.000 A 
ATOM     12  C   UNL     1      -2.380  13.312  22.745  0.00  0.00    +0.000 A 
ATOM     13  C   UNL     1      -1.930  13.532  21.434  0.00  0.00    +0.000 A 
ATOM     14  C   UNL     1      -1.144  12.523  20.783  0.00  0.00    +0.000 A 
ATOM     15  C   UNL     1      -0.791  11.317  21.490  0.00  0.00    +0.000 A 
ATOM     16  H   UNL     1      -1.164   9.582  24.148  0.00  0.00    +0.000 HD
BRANCH  13  17
ATOM     17  C   UNL     1      -2.313  14.856  20.902  0.00  0.00    +0.000 A 
ATOM     18  N   UNL     1      -3.325  15.583  21.345  0.00  0.00    +0.000 NA
ATOM     19  C   UNL     1      -3.227  16.758  20.666  0.00  0.00    +0.000 A 
ATOM     20  N   UNL     1      -2.229  16.809  19.782  0.00  0.00    +0.000 NA
ATOM     21  N   UNL     1      -1.668  15.593  19.944  0.00  0.00    +0.000 N 
ATOM     22  H   UNL     1      -0.845  15.363  19.401  0.00  0.00    +0.000 HD
ENDBRANCH  13  17
ENDBRANCH   5   7
BRANCH   1  23
ATOM     23  O   UNL     1       2.589   6.103  19.989  0.00  0.00    +0.000 OA
BRANCH  23  24
ATOM     24  C   UNL     1       1.633   5.226  20.620  0.00  0.00    +0.000 C 
BRANCH  24  25
ATOM     25  C   UNL     1       1.611   3.847  19.941  0.00  0.00    +0.000 C 
BRANCH  25  28
ATOM     26  O   UNL     1       3.829   2.388  20.970  0.00  0.00    +0.000 OA
ATOM     27  C   UNL     1       3.878   2.881  19.853  0.00  0.00    +0.000 C 
ATOM     28  N   UNL     1       2.845   3.532  19.246  0.00  0.00    +0.000 N 
ATOM     29  H   UNL     1       3.072   4.021  18.391  0.00  0.00    +0.000 HD
BRANCH  27  30
ATOM     30  O   UNL     1       4.966   2.922  19.051  0.00  0.00    +0.000 OA
BRANCH  30  31
ATOM     31  C   UNL     1       5.508   4.227  18.805  0.00  0.00    +0.000 C 
BRANCH  31  32
ATOM     32  C   UNL     1       5.846   4.400  17.346  0.00  0.00    +0.000 A 
ATOM     33  C   UNL     1       4.878   4.176  16.356  0.00  0.00    +0.000 A 
ATOM     34  C   UNL     1       5.194   4.336  15.005  0.00  0.00    +0.000 A 
ATOM     35  C   UNL     1       6.482   4.714  14.630  0.00  0.00    +0.000 A 
ATOM     36  C   UNL     1       7.453   4.937  15.604  0.00  0.00    +0.000 A 
ATOM     37  C   UNL     1       7.138   4.778  16.956  0.00  0.00    +0.000 A 
ENDBRANCH  31  32
ENDBRANCH  30  31
ENDBRANCH  27  30
ENDBRANCH  25  28
ENDBRANCH  24  25
ENDBRANCH  23  24
ENDBRANCH   1  23
TORSDOF 9
ENDMDL
MODEL 9
REMARK VINA RESULT:      -7.8      5.268      8.885
REMARK  Name = 
REMARK  9 active torsions:
REMARK  status: ('A' for Active; 'I' for Inactive)
REMARK    1  A    between atoms: C_2  and  O_27
REMARK    2  A    between atoms: N_3  and  C_4
REMARK    3  A    between atoms: C_4  and  C_5
REMARK    4  A    between atoms: C_5  and  O_6
REMARK    5  A    between atoms: O_6  and  C_7
REMARK    6  A    between atoms: C_11  and  C_12
REMARK    7  A    between atoms: C_18  and  C_19
REMARK    8  A    between atoms: O_27  and  C_28
REMARK    9  A    between atoms: C_28  and  C_29
REMARK                            x       y       z     vdW  Elec       q    Type
REMARK                         _______ _______ _______ _____ _____    ______ ____
ROOT
ATOM      1  C   UNL     1       6.923   5.979  16.367  0.00  0.00    +0.000 A 
ATOM      2  C   UNL     1       7.028   5.305  15.162  0.00  0.00    +0.000 A 
ATOM      3  C   UNL     1       6.133   4.263  14.865  0.00  0.00    +0.000 A 
ATOM      4  C   UNL     1       5.128   3.864  15.777  0.00  0.00    +0.000 A 
ATOM      5  C   UNL     1       4.988   4.530  16.991  0.00  0.00    +0.000 A 
ATOM      6  C   UNL     1       5.886   5.616  17.227  0.00  0.00    +0.000 A 
ENDROOT
BRANCH   5   7
ATOM      7  C   UNL     1       3.994   4.230  18.068  0.00  0.00    +0.000 A 
ATOM      8  N   UNL     1       3.814   2.903  18.268  0.00  0.00    +0.000 NA
ATOM      9  N   UNL     1       2.906   2.793  19.207  0.00  0.00    +0.000 N 
ATOM     10  C   UNL     1       2.476   3.972  19.711  0.00  0.00    +0.000 A 
ATOM     11  C   UNL     1       1.563   4.160  20.740  0.00  0.00    +0.000 A 
ATOM     12  C   UNL     1       1.255   5.464  21.072  0.00  0.00    +0.000 A 
ATOM     13  C   UNL     1       1.822   6.560  20.404  0.00  0.00    +0.000 A 
ATOM     14  C   UNL     1       2.748   6.327  19.334  0.00  0.00    +0.000 A 
ATOM     15  C   UNL     1       3.120   4.980  18.982  0.00  0.00    +0.000 A 
ATOM     16  H   UNL     1       2.609   1.863  19.472  0.00  0.00    +0.000 HD
BRANCH  13  17
ATOM     17  C   UNL     1       1.393   7.862  20.957  0.00  0.00    +0.000 A 
ATOM     18  N   UNL     1       0.184   8.379  20.818  0.00  0.00    +0.000 NA
ATOM     19  C   UNL     1       0.203   9.505  21.582  0.00  0.00    +0.000 A 
ATOM     20  N   UNL     1       1.372   9.758  22.173  0.00  0.00    +0.000 NA
ATOM     21  N   UNL     1       2.112   8.710  21.758  0.00  0.00    +0.000 N 
ATOM     22  H   UNL     1       3.065   8.629  22.089  0.00  0.00    +0.000 HD
ENDBRANCH  13  17
ENDBRANCH   5   7
BRANCH   1  23
ATOM     23  O   UNL     1       7.840   6.970  16.627  0.00  0.00    +0.000 OA
BRANCH  23  24
ATOM     24  C   UNL     1       7.702   7.595  17.919  0.00  0.00    +0.000 C 
BRANCH  24  25
ATOM     25  C   UNL     1       7.754   9.127  17.804  0.00  0.00    +0.000 C 
BRANCH  25  28
ATOM     26  O   UNL     1       8.506  11.873  17.804  0.00  0.00    +0.000 OA
ATOM     27  C   UNL     1       9.239  11.031  18.301  0.00  0.00    +0.000 C 
ATOM     28  N   UNL     1       8.935   9.707  18.416  0.00  0.00    +0.000 N 
ATOM     29  H   UNL     1       9.693   9.104  18.704  0.00  0.00    +0.000 HD
BRANCH  27  30
ATOM     30  O   UNL     1      10.490  11.246  18.769  0.00  0.00    +0.000 OA
BRANCH  30  31
ATOM     31  C   UNL     1      10.632  11.219  20.195  0.00  0.00    +0.000 C 
BRANCH  31  32
ATOM     32  C   UNL     1      10.306  12.565  20.791  0.00  0.00    +0.000 A 
ATOM     33  C   UNL     1      11.007  13.713  20.392  0.00  0.00    +0.000 A 
ATOM     34  C   UNL     1      10.703  14.958  20.946  0.00  0.00    +0.000 A 
ATOM     35  C   UNL     1       9.701  15.068  21.909  0.00  0.00    +0.000 A 
ATOM     36  C   UNL     1       9.000  13.935  22.315  0.00  0.00    +0.000 A 
ATOM     37  C   UNL     1       9.302  12.688  21.762  0.00  0.00    +0.000 A 
ENDBRANCH  31  32
ENDBRANCH  30  31
ENDBRANCH  27  30
ENDBRANCH  25  28
ENDBRANCH  24  25
ENDBRANCH  23  24
ENDBRANCH   1  23
TORSDOF 9
ENDMDL
