MODEL 1
REMARK VINA RESULT:      -5.6      0.000      0.000
REMARK  Name = 
REMARK  20 active torsions:
REMARK  status: ('A' for Active; 'I' for Inactive)
REMARK    1  A    between atoms: C_3  and  O_4
REMARK    2  A    between atoms: O_4  and  C_5
REMARK    3  A    between atoms: C_5  and  C_7
REMARK    4  A    between atoms: C_8  and  C_9
REMARK    5  A    between atoms: C_8  and  C_10
REMARK    6  A    between atoms: C_10  and  C_11
REMARK    7  A    between atoms: C_13  and  C_14
REMARK    8  A    between atoms: C_14  and  C_15
REMARK    9  A    between atoms: C_14  and  C_16
REMARK   10  A    between atoms: C_18  and  C_19
REMARK   11  A    between atoms: C_19  and  C_20
REMARK   12  A    between atoms: C_19  and  O_21
REMARK   13  A    between atoms: O_21  and  C_22
REMARK   14  A    between atoms: C_22  and  C_23
REMARK   15  A    between atoms: C_27  and  O_28
REMARK   16  A    between atoms: O_28  and  C_29
REMARK   17  A    between atoms: C_29  and  C_31
REMARK   18  A    between atoms: C_31  and  C_32
REMARK   19  A    between atoms: C_31  and  C_33
REMARK   20  A    between atoms: C_33  and  C_34
REMARK                            x       y       z     vdW  Elec       q    Type
REMARK                         _______ _______ _______ _____ _____    ______ ____
ROOT
ATOM      1  C   UNL     1      -0.294  13.475  18.018  0.00  0.00    +0.000 C 
ATOM      2  C   UNL     1      -0.138  14.238  19.112  0.00  0.00    +0.000 C 
ATOM      3  C   UNL     1       0.173  15.713  18.998  0.00  0.00    +0.000 C 
ATOM      4  C   UNL     1      -0.864  16.514  19.785  0.00  0.00    +0.000 C 
ATOM      5  C   UNL     1      -1.254  16.035  21.217  0.00  0.00    +0.000 C 
ATOM      6  C   UNL     1      -1.262  14.481  21.395  0.00  0.00    +0.000 C 
ATOM      7  C   UNL     1      -0.887  13.870  22.806  0.00  0.00    +0.000 C 
ATOM      8  C   UNL     1      -0.660  12.411  22.371  0.00  0.00    +0.000 C 
ATOM      9  O   UNL     1      -0.807  11.426  23.086  0.00  0.00    +0.000 OA
ATOM     10  C   UNL     1      -0.299  12.290  20.895  0.00  0.00    +0.000 C 
ATOM     11  C   UNL     1      -0.169  13.777  20.540  0.00  0.00    +0.000 C 
ENDROOT
BRANCH   5  12
ATOM     12  C   UNL     1      -2.614  16.727  21.621  0.00  0.00    +0.000 C 
ATOM     13  C   UNL     1      -3.883  16.231  20.906  0.00  0.00    +0.000 C 
ATOM     14  C   UNL     1      -2.534  18.254  21.486  0.00  0.00    +0.000 C 
ENDBRANCH   5  12
BRANCH   7  15
ATOM     15  C   UNL     1      -1.884  14.007  23.975  0.00  0.00    +0.000 C 
ATOM     16  C   UNL     1      -1.669  15.188  24.934  0.00  0.00    +0.000 C 
BRANCH  15  17
ATOM     17  O   UNL     1      -3.274  14.040  23.542  0.00  0.00    +0.000 OA
BRANCH  17  18
ATOM     18  C   UNL     1      -4.149  13.045  23.848  0.00  0.00    +0.000 C 
ATOM     19  C   UNL     1      -5.565  13.546  23.773  0.00  0.00    +0.000 C 
ATOM     20  O   UNL     1      -3.854  11.901  24.157  0.00  0.00    +0.000 OA
ENDBRANCH  17  18
ENDBRANCH  15  17
ENDBRANCH   7  15
BRANCH   3  21
ATOM     21  O   UNL     1       1.497  15.973  19.498  0.00  0.00    +0.000 OA
BRANCH  21  22
ATOM     22  C   UNL     1       2.317  16.521  18.555  0.00  0.00    +0.000 C 
ATOM     23  O   UNL     1       2.206  17.632  18.075  0.00  0.00    +0.000 OA
BRANCH  22  24
ATOM     24  C   UNL     1       3.355  15.536  18.169  0.00  0.00    +0.000 C 
ATOM     25  C   UNL     1       4.683  15.733  18.316  0.00  0.00    +0.000 C 
ATOM     26  C   UNL     1       5.310  16.919  19.011  0.00  0.00    +0.000 C 
BRANCH  25  27
ATOM     27  C   UNL     1       5.677  14.712  17.795  0.00  0.00    +0.000 C 
ATOM     28  C   UNL     1       6.960  14.656  18.616  0.00  0.00    +0.000 C 
ENDBRANCH  25  27
ENDBRANCH  22  24
ENDBRANCH  21  22
ENDBRANCH   3  21
BRANCH  10  29
ATOM     29  O   UNL     1      -1.421  11.635  20.296  0.00  0.00    +0.000 OA
BRANCH  29  30
ATOM     30  C   UNL     1      -1.079  10.601  19.465  0.00  0.00    +0.000 C 
ATOM     31  O   UNL     1      -0.011  10.010  19.483  0.00  0.00    +0.000 OA
BRANCH  30  32
ATOM     32  C   UNL     1      -2.221  10.291  18.507  0.00  0.00    +0.000 C 
ATOM     33  C   UNL     1      -3.198  11.461  18.502  0.00  0.00    +0.000 C 
BRANCH  32  34
ATOM     34  C   UNL     1      -1.645   9.964  17.121  0.00  0.00    +0.000 C 
ATOM     35  C   UNL     1      -2.673  10.002  16.004  0.00  0.00    +0.000 C 
ENDBRANCH  32  34
ENDBRANCH  30  32
ENDBRANCH  29  30
ENDBRANCH  10  29
TORSDOF 12
ENDMDL
MODEL 2
REMARK VINA RESULT:      -5.5      3.148      6.077
REMARK  Name = 
REMARK  20 active torsions:
REMARK  status: ('A' for Active; 'I' for Inactive)
REMARK    1  A    between atoms: C_3  and  O_4
REMARK    2  A    between atoms: O_4  and  C_5
REMARK    3  A    between atoms: C_5  and  C_7
REMARK    4  A    between atoms: C_8  and  C_9
REMARK    5  A    between atoms: C_8  and  C_10
REMARK    6  A    between atoms: C_10  and  C_11
REMARK    7  A    between atoms: C_13  and  C_14
REMARK    8  A    between atoms: C_14  and  C_15
REMARK    9  A    between atoms: C_14  and  C_16
REMARK   10  A    between atoms: C_18  and  C_19
REMARK   11  A    between atoms: C_19  and  C_20
REMARK   12  A    between atoms: C_19  and  O_21
REMARK   13  A    between atoms: O_21  and  C_22
REMARK   14  A    between atoms: C_22  and  C_23
REMARK   15  A    between atoms: C_27  and  O_28
REMARK   16  A    between atoms: O_28  and  C_29
REMARK   17  A    between atoms: C_29  and  C_31
REMARK   18  A    between atoms: C_31  and  C_32
REMARK   19  A    between atoms: C_31  and  C_33
REMARK   20  A    between atoms: C_33  and  C_34
REMARK                            x       y       z     vdW  Elec       q    Type
REMARK                         _______ _______ _______ _____ _____    ______ ____
ROOT
ATOM      1  C   UNL     1      -1.361  10.257  17.529  0.00  0.00    +0.000 C 
ATOM      2  C   UNL     1      -0.512  10.527  18.534  0.00  0.00    +0.000 C 
ATOM      3  C   UNL     1       0.944  10.131  18.454  0.00  0.00    +0.000 C 
ATOM      4  C   UNL     1       1.820  11.362  18.686  0.00  0.00    +0.000 C 
ATOM      5  C   UNL     1       1.466  12.323  19.863  0.00  0.00    +0.000 C 
ATOM      6  C   UNL     1      -0.068  12.472  20.131  0.00  0.00    +0.000 C 
ATOM      7  C   UNL     1      -0.565  12.733  21.612  0.00  0.00    +0.000 C 
ATOM      8  C   UNL     1      -2.057  12.414  21.412  0.00  0.00    +0.000 C 
ATOM      9  O   UNL     1      -2.977  12.883  22.072  0.00  0.00    +0.000 OA
ATOM     10  C   UNL     1      -2.304  11.487  20.227  0.00  0.00    +0.000 C 
ATOM     11  C   UNL     1      -0.853  11.158  19.852  0.00  0.00    +0.000 C 
ENDROOT
BRANCH   5  12
ATOM     12  C   UNL     1       2.205  13.697  19.623  0.00  0.00    +0.000 C 
ATOM     13  C   UNL     1       2.977  13.847  18.302  0.00  0.00    +0.000 C 
ATOM     14  C   UNL     1       3.142  14.047  20.788  0.00  0.00    +0.000 C 
ENDBRANCH   5  12
BRANCH   7  15
ATOM     15  C   UNL     1      -0.319  14.113  22.256  0.00  0.00    +0.000 C 
ATOM     16  C   UNL     1      -0.824  15.339  21.479  0.00  0.00    +0.000 C 
BRANCH  15  17
ATOM     17  O   UNL     1      -0.834  14.211  23.614  0.00  0.00    +0.000 OA
BRANCH  17  18
ATOM     18  C   UNL     1      -0.811  15.378  24.312  0.00  0.00    +0.000 C 
ATOM     19  C   UNL     1      -2.154  15.648  24.932  0.00  0.00    +0.000 C 
ATOM     20  O   UNL     1       0.147  16.127  24.425  0.00  0.00    +0.000 OA
ENDBRANCH  17  18
ENDBRANCH  15  17
ENDBRANCH   7  15
BRANCH   3  21
ATOM     21  O   UNL     1       1.229   9.116  19.433  0.00  0.00    +0.000 OA
BRANCH  21  22
ATOM     22  C   UNL     1       2.054   8.139  18.954  0.00  0.00    +0.000 C 
ATOM     23  O   UNL     1       2.573   8.122  17.855  0.00  0.00    +0.000 OA
BRANCH  22  24
ATOM     24  C   UNL     1       2.194   7.069  19.969  0.00  0.00    +0.000 C 
ATOM     25  C   UNL     1       2.164   5.747  19.690  0.00  0.00    +0.000 C 
ATOM     26  C   UNL     1       2.115   5.158  18.301  0.00  0.00    +0.000 C 
BRANCH  25  27
ATOM     27  C   UNL     1       2.210   4.722  20.807  0.00  0.00    +0.000 C 
ATOM     28  C   UNL     1       1.179   3.611  20.640  0.00  0.00    +0.000 C 
ENDBRANCH  25  27
ENDBRANCH  22  24
ENDBRANCH  21  22
ENDBRANCH   3  21
BRANCH  10  29
ATOM     29  O   UNL     1      -2.993  12.296  19.268  0.00  0.00    +0.000 OA
BRANCH  29  30
ATOM     30  C   UNL     1      -4.352  12.116  19.268  0.00  0.00    +0.000 C 
ATOM     31  O   UNL     1      -5.135  12.692  20.005  0.00  0.00    +0.000 OA
BRANCH  30  32
ATOM     32  C   UNL     1      -4.749  11.090  18.217  0.00  0.00    +0.000 C 
ATOM     33  C   UNL     1      -6.115  10.516  18.573  0.00  0.00    +0.000 C 
BRANCH  32  34
ATOM     34  C   UNL     1      -4.699  11.743  16.827  0.00  0.00    +0.000 C 
ATOM     35  C   UNL     1      -4.067  10.868  15.758  0.00  0.00    +0.000 C 
ENDBRANCH  32  34
ENDBRANCH  30  32
ENDBRANCH  29  30
ENDBRANCH  10  29
TORSDOF 12
ENDMDL
MODEL 3
REMARK VINA RESULT:      -5.5      3.244      6.138
REMARK  Name = 
REMARK  20 active torsions:
REMARK  status: ('A' for Active; 'I' for Inactive)
REMARK    1  A    between atoms: C_3  and  O_4
REMARK    2  A    between atoms: O_4  and  C_5
REMARK    3  A    between atoms: C_5  and  C_7
REMARK    4  A    between atoms: C_8  and  C_9
REMARK    5  A    between atoms: C_8  and  C_10
REMARK    6  A    between atoms: C_10  and  C_11
REMARK    7  A    between atoms: C_13  and  C_14
REMARK    8  A    between atoms: C_14  and  C_15
REMARK    9  A    between atoms: C_14  and  C_16
REMARK   10  A    between atoms: C_18  and  C_19
REMARK   11  A    between atoms: C_19  and  C_20
REMARK   12  A    between atoms: C_19  and  O_21
REMARK   13  A    between atoms: O_21  and  C_22
REMARK   14  A    between atoms: C_22  and  C_23
REMARK   15  A    between atoms: C_27  and  O_28
REMARK   16  A    between atoms: O_28  and  C_29
REMARK   17  A    between atoms: C_29  and  C_31
REMARK   18  A    between atoms: C_31  and  C_32
REMARK   19  A    between atoms: C_31  and  C_33
REMARK   20  A    between atoms: C_33  and  C_34
REMARK                            x       y       z     vdW  Elec       q    Type
REMARK                         _______ _______ _______ _____ _____    ______ ____
ROOT
ATOM      1  C   UNL     1      -1.365  10.197  17.299  0.00  0.00    +0.000 C 
ATOM      2  C   UNL     1      -0.533  10.500  18.309  0.00  0.00    +0.000 C 
ATOM      3  C   UNL     1       0.939  10.166  18.235  0.00  0.00    +0.000 C 
ATOM      4  C   UNL     1       1.763  11.431  18.474  0.00  0.00    +0.000 C 
ATOM      5  C   UNL     1       1.363  12.375  19.650  0.00  0.00    +0.000 C 
ATOM      6  C   UNL     1      -0.176  12.460  19.911  0.00  0.00    +0.000 C 
ATOM      7  C   UNL     1      -0.691  12.698  21.389  0.00  0.00    +0.000 C 
ATOM      8  C   UNL     1      -2.168  12.318  21.182  0.00  0.00    +0.000 C 
ATOM      9  O   UNL     1      -3.110  12.748  21.837  0.00  0.00    +0.000 OA
ATOM     10  C   UNL     1      -2.371  11.384  19.994  0.00  0.00    +0.000 C 
ATOM     11  C   UNL     1      -0.905  11.115  19.626  0.00  0.00    +0.000 C 
ENDROOT
BRANCH   5  12
ATOM     12  C   UNL     1       2.046  13.779  19.416  0.00  0.00    +0.000 C 
ATOM     13  C   UNL     1       1.151  14.901  18.860  0.00  0.00    +0.000 C 
ATOM     14  C   UNL     1       3.297  13.660  18.534  0.00  0.00    +0.000 C 
ENDBRANCH   5  12
BRANCH   7  15
ATOM     15  C   UNL     1      -0.506  14.086  22.036  0.00  0.00    +0.000 C 
ATOM     16  C   UNL     1      -1.300  15.249  21.421  0.00  0.00    +0.000 C 
BRANCH  15  17
ATOM     17  O   UNL     1      -0.763  14.089  23.470  0.00  0.00    +0.000 OA
BRANCH  17  18
ATOM     18  C   UNL     1      -0.871  15.243  24.181  0.00  0.00    +0.000 C 
ATOM     19  C   UNL     1      -2.256  15.386  24.747  0.00  0.00    +0.000 C 
ATOM     20  O   UNL     1       0.013  16.070  24.343  0.00  0.00    +0.000 OA
ENDBRANCH  17  18
ENDBRANCH  15  17
ENDBRANCH   7  15
BRANCH   3  21
ATOM     21  O   UNL     1       1.261   9.162  19.214  0.00  0.00    +0.000 OA
BRANCH  21  22
ATOM     22  C   UNL     1       2.119   8.214  18.735  0.00  0.00    +0.000 C 
ATOM     23  O   UNL     1       2.637   8.215  17.635  0.00  0.00    +0.000 OA
BRANCH  22  24
ATOM     24  C   UNL     1       2.297   7.150  19.750  0.00  0.00    +0.000 C 
ATOM     25  C   UNL     1       2.260   5.826  19.479  0.00  0.00    +0.000 C 
ATOM     26  C   UNL     1       2.164   5.229  18.095  0.00  0.00    +0.000 C 
BRANCH  25  27
ATOM     27  C   UNL     1       2.347   4.807  20.599  0.00  0.00    +0.000 C 
ATOM     28  C   UNL     1       1.175   3.832  20.610  0.00  0.00    +0.000 C 
ENDBRANCH  25  27
ENDBRANCH  22  24
ENDBRANCH  21  22
ENDBRANCH   3  21
BRANCH  10  29
ATOM     29  O   UNL     1      -3.088  12.164  19.033  0.00  0.00    +0.000 OA
BRANCH  29  30
ATOM     30  C   UNL     1      -4.326  11.663  18.727  0.00  0.00    +0.000 C 
ATOM     31  O   UNL     1      -4.532  10.609  18.147  0.00  0.00    +0.000 OA
BRANCH  30  32
ATOM     32  C   UNL     1      -5.415  12.611  19.209  0.00  0.00    +0.000 C 
ATOM     33  C   UNL     1      -6.344  12.935  18.046  0.00  0.00    +0.000 C 
BRANCH  32  34
ATOM     34  C   UNL     1      -6.132  11.985  20.414  0.00  0.00    +0.000 C 
ATOM     35  C   UNL     1      -7.434  11.286  20.060  0.00  0.00    +0.000 C 
ENDBRANCH  32  34
ENDBRANCH  30  32
ENDBRANCH  29  30
ENDBRANCH  10  29
TORSDOF 12
ENDMDL
MODEL 4
REMARK VINA RESULT:      -5.4      1.319      1.697
REMARK  Name = 
REMARK  20 active torsions:
REMARK  status: ('A' for Active; 'I' for Inactive)
REMARK    1  A    between atoms: C_3  and  O_4
REMARK    2  A    between atoms: O_4  and  C_5
REMARK    3  A    between atoms: C_5  and  C_7
REMARK    4  A    between atoms: C_8  and  C_9
REMARK    5  A    between atoms: C_8  and  C_10
REMARK    6  A    between atoms: C_10  and  C_11
REMARK    7  A    between atoms: C_13  and  C_14
REMARK    8  A    between atoms: C_14  and  C_15
REMARK    9  A    between atoms: C_14  and  C_16
REMARK   10  A    between atoms: C_18  and  C_19
REMARK   11  A    between atoms: C_19  and  C_20
REMARK   12  A    between atoms: C_19  and  O_21
REMARK   13  A    between atoms: O_21  and  C_22
REMARK   14  A    between atoms: C_22  and  C_23
REMARK   15  A    between atoms: C_27  and  O_28
REMARK   16  A    between atoms: O_28  and  C_29
REMARK   17  A    between atoms: C_29  and  C_31
REMARK   18  A    between atoms: C_31  and  C_32
REMARK   19  A    between atoms: C_31  and  C_33
REMARK   20  A    between atoms: C_33  and  C_34
REMARK                            x       y       z     vdW  Elec       q    Type
REMARK                         _______ _______ _______ _____ _____    ______ ____
ROOT
ATOM      1  C   UNL     1       0.225  13.848  18.653  0.00  0.00    +0.000 C 
ATOM      2  C   UNL     1      -0.131  14.554  19.739  0.00  0.00    +0.000 C 
ATOM      3  C   UNL     1      -0.242  16.061  19.687  0.00  0.00    +0.000 C 
ATOM      4  C   UNL     1      -1.632  16.486  20.161  0.00  0.00    +0.000 C 
ATOM      5  C   UNL     1      -2.219  15.829  21.448  0.00  0.00    +0.000 C 
ATOM      6  C   UNL     1      -1.822  14.329  21.641  0.00  0.00    +0.000 C 
ATOM      7  C   UNL     1      -1.661  13.762  23.111  0.00  0.00    +0.000 C 
ATOM      8  C   UNL     1      -0.919  12.456  22.773  0.00  0.00    +0.000 C 
ATOM      9  O   UNL     1      -0.953  11.429  23.439  0.00  0.00    +0.000 OA
ATOM     10  C   UNL     1      -0.173  12.534  21.446  0.00  0.00    +0.000 C 
ATOM     11  C   UNL     1      -0.392  14.017  21.115  0.00  0.00    +0.000 C 
ENDROOT
BRANCH   5  12
ATOM     12  C   UNL     1      -3.777  16.082  21.469  0.00  0.00    +0.000 C 
ATOM     13  C   UNL     1      -4.413  16.602  20.168  0.00  0.00    +0.000 C 
ATOM     14  C   UNL     1      -4.185  17.007  22.625  0.00  0.00    +0.000 C 
ENDBRANCH   5  12
BRANCH   7  15
ATOM     15  C   UNL     1      -2.920  13.539  23.974  0.00  0.00    +0.000 C 
ATOM     16  C   UNL     1      -3.217  14.595  25.051  0.00  0.00    +0.000 C 
BRANCH  15  17
ATOM     17  O   UNL     1      -4.131  13.362  23.186  0.00  0.00    +0.000 OA
BRANCH  17  18
ATOM     18  C   UNL     1      -5.315  13.004  23.753  0.00  0.00    +0.000 C 
ATOM     19  C   UNL     1      -6.406  13.952  23.339  0.00  0.00    +0.000 C 
ATOM     20  O   UNL     1      -5.492  12.058  24.505  0.00  0.00    +0.000 OA
ENDBRANCH  17  18
ENDBRANCH  15  17
ENDBRANCH   7  15
BRANCH   3  21
ATOM     21  O   UNL     1       0.776  16.653  20.514  0.00  0.00    +0.000 OA
BRANCH  21  22
ATOM     22  C   UNL     1       1.527  17.576  19.844  0.00  0.00    +0.000 C 
ATOM     23  O   UNL     1       1.120  18.622  19.378  0.00  0.00    +0.000 OA
BRANCH  22  24
ATOM     24  C   UNL     1       2.923  17.091  19.733  0.00  0.00    +0.000 C 
ATOM     25  C   UNL     1       3.490  16.662  18.584  0.00  0.00    +0.000 C 
ATOM     26  C   UNL     1       2.842  16.732  17.221  0.00  0.00    +0.000 C 
BRANCH  25  27
ATOM     27  C   UNL     1       4.892  16.084  18.584  0.00  0.00    +0.000 C 
ATOM     28  C   UNL     1       4.960  14.682  17.987  0.00  0.00    +0.000 C 
ENDBRANCH  25  27
ENDBRANCH  22  24
ENDBRANCH  21  22
ENDBRANCH   3  21
BRANCH  10  29
ATOM     29  O   UNL     1      -0.865  11.627  20.583  0.00  0.00    +0.000 OA
BRANCH  29  30
ATOM     30  C   UNL     1      -0.170  10.476  20.318  0.00  0.00    +0.000 C 
ATOM     31  O   UNL     1       0.541   9.887  21.117  0.00  0.00    +0.000 OA
BRANCH  30  32
ATOM     32  C   UNL     1      -0.407  10.033  18.882  0.00  0.00    +0.000 C 
ATOM     33  C   UNL     1      -1.594  10.802  18.313  0.00  0.00    +0.000 C 
BRANCH  32  34
ATOM     34  C   UNL     1       0.888  10.216  18.076  0.00  0.00    +0.000 C 
ATOM     35  C   UNL     1       1.656   8.925  17.846  0.00  0.00    +0.000 C 
ENDBRANCH  32  34
ENDBRANCH  30  32
ENDBRANCH  29  30
ENDBRANCH  10  29
TORSDOF 12
ENDMDL
MODEL 5
REMARK VINA RESULT:      -5.4      2.589      5.986
REMARK  Name = 
REMARK  20 active torsions:
REMARK  status: ('A' for Active; 'I' for Inactive)
REMARK    1  A    between atoms: C_3  and  O_4
REMARK    2  A    between atoms: O_4  and  C_5
REMARK    3  A    between atoms: C_5  and  C_7
REMARK    4  A    between atoms: C_8  and  C_9
REMARK    5  A    between atoms: C_8  and  C_10
REMARK    6  A    between atoms: C_10  and  C_11
REMARK    7  A    between atoms: C_13  and  C_14
REMARK    8  A    between atoms: C_14  and  C_15
REMARK    9  A    between atoms: C_14  and  C_16
REMARK   10  A    between atoms: C_18  and  C_19
REMARK   11  A    between atoms: C_19  and  C_20
REMARK   12  A    between atoms: C_19  and  O_21
REMARK   13  A    between atoms: O_21  and  C_22
REMARK   14  A    between atoms: C_22  and  C_23
REMARK   15  A    between atoms: C_27  and  O_28
REMARK   16  A    between atoms: O_28  and  C_29
REMARK   17  A    between atoms: C_29  and  C_31
REMARK   18  A    between atoms: C_31  and  C_32
REMARK   19  A    between atoms: C_31  and  C_33
REMARK   20  A    between atoms: C_33  and  C_34
REMARK                            x       y       z     vdW  Elec       q    Type
REMARK                         _______ _______ _______ _____ _____    ______ ____
ROOT
ATOM      1  C   UNL     1      -0.711  12.822  21.788  0.00  0.00    +0.000 C 
ATOM      2  C   UNL     1      -1.325  13.024  20.610  0.00  0.00    +0.000 C 
ATOM      3  C   UNL     1      -0.546  13.030  19.315  0.00  0.00    +0.000 C 
ATOM      4  C   UNL     1      -1.156  12.016  18.348  0.00  0.00    +0.000 C 
ATOM      5  C   UNL     1      -2.707  11.979  18.180  0.00  0.00    +0.000 C 
ATOM      6  C   UNL     1      -3.502  12.291  19.489  0.00  0.00    +0.000 C 
ATOM      7  C   UNL     1      -4.907  13.014  19.379  0.00  0.00    +0.000 C 
ATOM      8  C   UNL     1      -5.067  13.427  20.853  0.00  0.00    +0.000 C 
ATOM      9  O   UNL     1      -6.135  13.593  21.431  0.00  0.00    +0.000 OA
ATOM     10  C   UNL     1      -3.731  13.541  21.579  0.00  0.00    +0.000 C 
ATOM     11  C   UNL     1      -2.778  13.328  20.395  0.00  0.00    +0.000 C 
ENDROOT
BRANCH   5  12
ATOM     12  C   UNL     1      -3.102  10.607  17.508  0.00  0.00    +0.000 C 
ATOM     13  C   UNL     1      -1.979   9.569  17.339  0.00  0.00    +0.000 C 
ATOM     14  C   UNL     1      -3.791  10.817  16.153  0.00  0.00    +0.000 C 
ENDBRANCH   5  12
BRANCH   7  15
ATOM     15  C   UNL     1      -6.116  12.229  18.833  0.00  0.00    +0.000 C 
ATOM     16  C   UNL     1      -6.552  12.542  17.393  0.00  0.00    +0.000 C 
BRANCH  15  17
ATOM     17  O   UNL     1      -5.959  10.785  18.940  0.00  0.00    +0.000 OA
BRANCH  17  18
ATOM     18  C   UNL     1      -6.891  10.001  19.545  0.00  0.00    +0.000 C 
ATOM     19  C   UNL     1      -7.664  10.790  20.564  0.00  0.00    +0.000 C 
ATOM     20  O   UNL     1      -7.085   8.816  19.320  0.00  0.00    +0.000 OA
ENDBRANCH  17  18
ENDBRANCH  15  17
ENDBRANCH   7  15
BRANCH   3  21
ATOM     21  O   UNL     1      -0.564  14.350  18.741  0.00  0.00    +0.000 OA
BRANCH  21  22
ATOM     22  C   UNL     1       0.597  15.034  18.957  0.00  0.00    +0.000 C 
ATOM     23  O   UNL     1       1.704  14.691  18.589  0.00  0.00    +0.000 OA
BRANCH  22  24
ATOM     24  C   UNL     1       0.313  16.252  19.752  0.00  0.00    +0.000 C 
ATOM     25  C   UNL     1       0.701  16.432  21.034  0.00  0.00    +0.000 C 
ATOM     26  C   UNL     1       1.587  15.487  21.810  0.00  0.00    +0.000 C 
BRANCH  25  27
ATOM     27  C   UNL     1       0.274  17.668  21.802  0.00  0.00    +0.000 C 
ATOM     28  C   UNL     1       1.116  17.914  23.049  0.00  0.00    +0.000 C 
ENDBRANCH  25  27
ENDBRANCH  22  24
ENDBRANCH  21  22
ENDBRANCH   3  21
BRANCH  10  29
ATOM     29  O   UNL     1      -3.740  12.473  22.530  0.00  0.00    +0.000 OA
BRANCH  29  30
ATOM     30  C   UNL     1      -3.910  12.887  23.825  0.00  0.00    +0.000 C 
ATOM     31  O   UNL     1      -4.346  12.193  24.731  0.00  0.00    +0.000 OA
BRANCH  30  32
ATOM     32  C   UNL     1      -3.483  14.339  23.977  0.00  0.00    +0.000 C 
ATOM     33  C   UNL     1      -4.688  15.172  24.397  0.00  0.00    +0.000 C 
BRANCH  32  34
ATOM     34  C   UNL     1      -2.306  14.420  24.962  0.00  0.00    +0.000 C 
ATOM     35  C   UNL     1      -1.213  15.386  24.536  0.00  0.00    +0.000 C 
ENDBRANCH  32  34
ENDBRANCH  30  32
ENDBRANCH  29  30
ENDBRANCH  10  29
TORSDOF 12
ENDMDL
MODEL 6
REMARK VINA RESULT:      -5.4      0.900      1.095
REMARK  Name = 
REMARK  20 active torsions:
REMARK  status: ('A' for Active; 'I' for Inactive)
REMARK    1  A    between atoms: C_3  and  O_4
REMARK    2  A    between atoms: O_4  and  C_5
REMARK    3  A    between atoms: C_5  and  C_7
REMARK    4  A    between atoms: C_8  and  C_9
REMARK    5  A    between atoms: C_8  and  C_10
REMARK    6  A    between atoms: C_10  and  C_11
REMARK    7  A    between atoms: C_13  and  C_14
REMARK    8  A    between atoms: C_14  and  C_15
REMARK    9  A    between atoms: C_14  and  C_16
REMARK   10  A    between atoms: C_18  and  C_19
REMARK   11  A    between atoms: C_19  and  C_20
REMARK   12  A    between atoms: C_19  and  O_21
REMARK   13  A    between atoms: O_21  and  C_22
REMARK   14  A    between atoms: C_22  and  C_23
REMARK   15  A    between atoms: C_27  and  O_28
REMARK   16  A    between atoms: O_28  and  C_29
REMARK   17  A    between atoms: C_29  and  C_31
REMARK   18  A    between atoms: C_31  and  C_32
REMARK   19  A    between atoms: C_31  and  C_33
REMARK   20  A    between atoms: C_33  and  C_34
REMARK                            x       y       z     vdW  Elec       q    Type
REMARK                         _______ _______ _______ _____ _____    ______ ____
ROOT
ATOM      1  C   UNL     1       0.455  13.804  18.527  0.00  0.00    +0.000 C 
ATOM      2  C   UNL     1       0.470  14.463  19.697  0.00  0.00    +0.000 C 
ATOM      3  C   UNL     1       0.960  15.890  19.784  0.00  0.00    +0.000 C 
ATOM      4  C   UNL     1      -0.120  16.762  20.427  0.00  0.00    +0.000 C 
ATOM      5  C   UNL     1      -0.843  16.238  21.706  0.00  0.00    +0.000 C 
ATOM      6  C   UNL     1      -1.060  14.690  21.732  0.00  0.00    +0.000 C 
ATOM      7  C   UNL     1      -1.050  13.938  23.126  0.00  0.00    +0.000 C 
ATOM      8  C   UNL     1      -0.904  12.496  22.608  0.00  0.00    +0.000 C 
ATOM      9  O   UNL     1      -1.302  11.491  23.186  0.00  0.00    +0.000 OA
ATOM     10  C   UNL     1      -0.266  12.433  21.225  0.00  0.00    +0.000 C 
ATOM     11  C   UNL     1       0.098  13.912  21.043  0.00  0.00    +0.000 C 
ENDROOT
BRANCH   5  12
ATOM     12  C   UNL     1      -2.170  17.069  21.902  0.00  0.00    +0.000 C 
ATOM     13  C   UNL     1      -3.344  16.733  20.965  0.00  0.00    +0.000 C 
ATOM     14  C   UNL     1      -1.907  18.580  21.844  0.00  0.00    +0.000 C 
ENDBRANCH   5  12
BRANCH   7  15
ATOM     15  C   UNL     1      -2.242  14.121  24.088  0.00  0.00    +0.000 C 
ATOM     16  C   UNL     1      -2.150  15.279  25.093  0.00  0.00    +0.000 C 
BRANCH  15  17
ATOM     17  O   UNL     1      -3.521  14.236  23.401  0.00  0.00    +0.000 OA
BRANCH  17  18
ATOM     18  C   UNL     1      -4.675  13.758  23.939  0.00  0.00    +0.000 C 
ATOM     19  C   UNL     1      -4.435  12.436  24.613  0.00  0.00    +0.000 C 
ATOM     20  O   UNL     1      -5.768  14.300  23.886  0.00  0.00    +0.000 OA
ENDBRANCH  17  18
ENDBRANCH  15  17
ENDBRANCH   7  15
BRANCH   3  21
ATOM     21  O   UNL     1       2.175  15.943  20.552  0.00  0.00    +0.000 OA
BRANCH  21  22
ATOM     22  C   UNL     1       3.096  16.801  20.023  0.00  0.00    +0.000 C 
ATOM     23  O   UNL     1       2.977  18.007  19.936  0.00  0.00    +0.000 OA
BRANCH  22  24
ATOM     24  C   UNL     1       4.260  16.031  19.526  0.00  0.00    +0.000 C 
ATOM     25  C   UNL     1       4.378  15.557  18.266  0.00  0.00    +0.000 C 
ATOM     26  C   UNL     1       3.413  15.846  17.140  0.00  0.00    +0.000 C 
BRANCH  25  27
ATOM     27  C   UNL     1       5.558  14.689  17.876  0.00  0.00    +0.000 C 
ATOM     28  C   UNL     1       6.777  14.904  18.766  0.00  0.00    +0.000 C 
ENDBRANCH  25  27
ENDBRANCH  22  24
ENDBRANCH  21  22
ENDBRANCH   3  21
BRANCH  10  29
ATOM     29  O   UNL     1      -1.309  11.970  20.362  0.00  0.00    +0.000 OA
BRANCH  29  30
ATOM     30  C   UNL     1      -0.975  10.855  19.638  0.00  0.00    +0.000 C 
ATOM     31  O   UNL     1       0.069  10.232  19.753  0.00  0.00    +0.000 OA
BRANCH  30  32
ATOM     32  C   UNL     1      -2.090  10.503  18.665  0.00  0.00    +0.000 C 
ATOM     33  C   UNL     1      -3.019  11.701  18.516  0.00  0.00    +0.000 C 
BRANCH  32  34
ATOM     34  C   UNL     1      -1.474  10.033  17.338  0.00  0.00    +0.000 C 
ATOM     35  C   UNL     1      -2.460   9.992  16.183  0.00  0.00    +0.000 C 
ENDBRANCH  32  34
ENDBRANCH  30  32
ENDBRANCH  29  30
ENDBRANCH  10  29
TORSDOF 12
ENDMDL
MODEL 7
REMARK VINA RESULT:      -5.3      1.299      1.619
REMARK  Name = 
REMARK  20 active torsions:
REMARK  status: ('A' for Active; 'I' for Inactive)
REMARK    1  A    between atoms: C_3  and  O_4
REMARK    2  A    between atoms: O_4  and  C_5
REMARK    3  A    between atoms: C_5  and  C_7
REMARK    4  A    between atoms: C_8  and  C_9
REMARK    5  A    between atoms: C_8  and  C_10
REMARK    6  A    between atoms: C_10  and  C_11
REMARK    7  A    between atoms: C_13  and  C_14
REMARK    8  A    between atoms: C_14  and  C_15
REMARK    9  A    between atoms: C_14  and  C_16
REMARK   10  A    between atoms: C_18  and  C_19
REMARK   11  A    between atoms: C_19  and  C_20
REMARK   12  A    between atoms: C_19  and  O_21
REMARK   13  A    between atoms: O_21  and  C_22
REMARK   14  A    between atoms: C_22  and  C_23
REMARK   15  A    between atoms: C_27  and  O_28
REMARK   16  A    between atoms: O_28  and  C_29
REMARK   17  A    between atoms: C_29  and  C_31
REMARK   18  A    between atoms: C_31  and  C_32
REMARK   19  A    between atoms: C_31  and  C_33
REMARK   20  A    between atoms: C_33  and  C_34
REMARK                            x       y       z     vdW  Elec       q    Type
REMARK                         _______ _______ _______ _____ _____    ______ ____
ROOT
ATOM      1  C   UNL     1       0.920  13.579  18.675  0.00  0.00    +0.000 C 
ATOM      2  C   UNL     1       0.660  14.332  19.757  0.00  0.00    +0.000 C 
ATOM      3  C   UNL     1       0.882  15.827  19.739  0.00  0.00    +0.000 C 
ATOM      4  C   UNL     1      -0.408  16.539  20.145  0.00  0.00    +0.000 C 
ATOM      5  C   UNL     1      -1.201  16.009  21.379  0.00  0.00    +0.000 C 
ATOM      6  C   UNL     1      -1.152  14.456  21.555  0.00  0.00    +0.000 C 
ATOM      7  C   UNL     1      -1.207  13.848  23.016  0.00  0.00    +0.000 C 
ATOM      8  C   UNL     1      -0.747  12.416  22.686  0.00  0.00    +0.000 C 
ATOM      9  O   UNL     1      -1.043  11.412  23.322  0.00  0.00    +0.000 OA
ATOM     10  C   UNL     1       0.077  12.347  21.405  0.00  0.00    +0.000 C 
ATOM     11  C   UNL     1       0.205  13.846  21.102  0.00  0.00    +0.000 C 
ENDROOT
BRANCH   5  12
ATOM     12  C   UNL     1      -2.665  16.595  21.319  0.00  0.00    +0.000 C 
ATOM     13  C   UNL     1      -3.091  17.262  20.000  0.00  0.00    +0.000 C 
ATOM     14  C   UNL     1      -2.933  17.569  22.475  0.00  0.00    +0.000 C 
ENDBRANCH   5  12
BRANCH   7  15
ATOM     15  C   UNL     1      -2.534  13.894  23.801  0.00  0.00    +0.000 C 
ATOM     16  C   UNL     1      -2.636  14.932  24.929  0.00  0.00    +0.000 C 
BRANCH  15  17
ATOM     17  O   UNL     1      -3.701  14.059  22.945  0.00  0.00    +0.000 OA
BRANCH  17  18
ATOM     18  C   UNL     1      -4.961  14.135  23.450  0.00  0.00    +0.000 C 
ATOM     19  C   UNL     1      -5.378  12.811  24.028  0.00  0.00    +0.000 C 
ATOM     20  O   UNL     1      -5.680  15.122  23.438  0.00  0.00    +0.000 OA
ENDBRANCH  17  18
ENDBRANCH  15  17
ENDBRANCH   7  15
BRANCH   3  21
ATOM     21  O   UNL     1       1.953  16.172  20.637  0.00  0.00    +0.000 OA
BRANCH  21  22
ATOM     22  C   UNL     1       2.925  16.917  20.035  0.00  0.00    +0.000 C 
ATOM     23  O   UNL     1       2.900  18.121  19.871  0.00  0.00    +0.000 OA
BRANCH  22  24
ATOM     24  C   UNL     1       4.014  16.026  19.569  0.00  0.00    +0.000 C 
ATOM     25  C   UNL     1       4.170  15.622  18.289  0.00  0.00    +0.000 C 
ATOM     26  C   UNL     1       3.349  16.112  17.120  0.00  0.00    +0.000 C 
BRANCH  25  27
ATOM     27  C   UNL     1       5.253  14.624  17.922  0.00  0.00    +0.000 C 
ATOM     28  C   UNL     1       6.662  15.173  18.123  0.00  0.00    +0.000 C 
ENDBRANCH  25  27
ENDBRANCH  22  24
ENDBRANCH  21  22
ENDBRANCH   3  21
BRANCH  10  29
ATOM     29  O   UNL     1      -0.742  11.624  20.482  0.00  0.00    +0.000 OA
BRANCH  29  30
ATOM     30  C   UNL     1      -0.298  10.354  20.225  0.00  0.00    +0.000 C 
ATOM     31  O   UNL     1       0.130   9.578  21.065  0.00  0.00    +0.000 OA
BRANCH  30  32
ATOM     32  C   UNL     1      -0.411  10.043  18.740  0.00  0.00    +0.000 C 
ATOM     33  C   UNL     1      -1.444  10.971  18.114  0.00  0.00    +0.000 C 
BRANCH  32  34
ATOM     34  C   UNL     1       0.980  10.147  18.095  0.00  0.00    +0.000 C 
ATOM     35  C   UNL     1       1.665   8.806  17.893  0.00  0.00    +0.000 C 
ENDBRANCH  32  34
ENDBRANCH  30  32
ENDBRANCH  29  30
ENDBRANCH  10  29
TORSDOF 12
ENDMDL
MODEL 8
REMARK VINA RESULT:      -5.3      6.456     11.312
REMARK  Name = 
REMARK  20 active torsions:
REMARK  status: ('A' for Active; 'I' for Inactive)
REMARK    1  A    between atoms: C_3  and  O_4
REMARK    2  A    between atoms: O_4  and  C_5
REMARK    3  A    between atoms: C_5  and  C_7
REMARK    4  A    between atoms: C_8  and  C_9
REMARK    5  A    between atoms: C_8  and  C_10
REMARK    6  A    between atoms: C_10  and  C_11
REMARK    7  A    between atoms: C_13  and  C_14
REMARK    8  A    between atoms: C_14  and  C_15
REMARK    9  A    between atoms: C_14  and  C_16
REMARK   10  A    between atoms: C_18  and  C_19
REMARK   11  A    between atoms: C_19  and  C_20
REMARK   12  A    between atoms: C_19  and  O_21
REMARK   13  A    between atoms: O_21  and  C_22
REMARK   14  A    between atoms: C_22  and  C_23
REMARK   15  A    between atoms: C_27  and  O_28
REMARK   16  A    between atoms: O_28  and  C_29
REMARK   17  A    between atoms: C_29  and  C_31
REMARK   18  A    between atoms: C_31  and  C_32
REMARK   19  A    between atoms: C_31  and  C_33
REMARK   20  A    between atoms: C_33  and  C_34
REMARK                            x       y       z     vdW  Elec       q    Type
REMARK                         _______ _______ _______ _____ _____    ______ ____
ROOT
ATOM      1  C   UNL     1       5.460  14.084  22.163  0.00  0.00    +0.000 C 
ATOM      2  C   UNL     1       6.797  14.021  22.273  0.00  0.00    +0.000 C 
ATOM      3  C   UNL     1       7.466  12.907  23.045  0.00  0.00    +0.000 C 
ATOM      4  C   UNL     1       8.487  12.207  22.148  0.00  0.00    +0.000 C 
ATOM      5  C   UNL     1       9.452  13.079  21.287  0.00  0.00    +0.000 C 
ATOM      6  C   UNL     1       8.816  14.404  20.753  0.00  0.00    +0.000 C 
ATOM      7  C   UNL     1       9.741  15.674  20.557  0.00  0.00    +0.000 C 
ATOM      8  C   UNL     1       8.640  16.740  20.419  0.00  0.00    +0.000 C 
ATOM      9  O   UNL     1       8.747  17.793  19.801  0.00  0.00    +0.000 OA
ATOM     10  C   UNL     1       7.332  16.320  21.078  0.00  0.00    +0.000 C 
ATOM     11  C   UNL     1       7.789  15.017  21.748  0.00  0.00    +0.000 C 
ENDROOT
BRANCH   5  12
ATOM     12  C   UNL     1      10.069  12.169  20.155  0.00  0.00    +0.000 C 
ATOM     13  C   UNL     1       9.419  10.790  19.943  0.00  0.00    +0.000 C 
ATOM     14  C   UNL     1      11.581  11.982  20.340  0.00  0.00    +0.000 C 
ENDBRANCH   5  12
BRANCH   7  15
ATOM     15  C   UNL     1      10.756  15.694  19.396  0.00  0.00    +0.000 C 
ATOM     16  C   UNL     1      12.216  15.366  19.746  0.00  0.00    +0.000 C 
BRANCH  15  17
ATOM     17  O   UNL     1      10.369  14.839  18.282  0.00  0.00    +0.000 OA
BRANCH  17  18
ATOM     18  C   UNL     1      10.997  14.896  17.077  0.00  0.00    +0.000 C 
ATOM     19  C   UNL     1      11.416  13.521  16.636  0.00  0.00    +0.000 C 
ATOM     20  O   UNL     1      11.215  15.908  16.429  0.00  0.00    +0.000 OA
ENDBRANCH  17  18
ENDBRANCH  15  17
ENDBRANCH   7  15
BRANCH   3  21
ATOM     21  O   UNL     1       8.107  13.442  24.217  0.00  0.00    +0.000 OA
BRANCH  21  22
ATOM     22  C   UNL     1       7.219  13.762  25.203  0.00  0.00    +0.000 C 
ATOM     23  O   UNL     1       7.067  14.863  25.695  0.00  0.00    +0.000 OA
BRANCH  22  24
ATOM     24  C   UNL     1       6.484  12.545  25.621  0.00  0.00    +0.000 C 
ATOM     25  C   UNL     1       6.558  11.997  26.854  0.00  0.00    +0.000 C 
ATOM     26  C   UNL     1       7.289  12.605  28.028  0.00  0.00    +0.000 C 
BRANCH  25  27
ATOM     27  C   UNL     1       5.853  10.690  27.161  0.00  0.00    +0.000 C 
ATOM     28  C   UNL     1       4.334  10.825  27.194  0.00  0.00    +0.000 C 
ENDBRANCH  25  27
ENDBRANCH  22  24
ENDBRANCH  21  22
ENDBRANCH   3  21
BRANCH  10  29
ATOM     29  O   UNL     1       6.417  16.137  19.993  0.00  0.00    +0.000 OA
BRANCH  29  30
ATOM     30  C   UNL     1       5.413  17.069  19.953  0.00  0.00    +0.000 C 
ATOM     31  O   UNL     1       5.578  18.279  19.960  0.00  0.00    +0.000 OA
BRANCH  30  32
ATOM     32  C   UNL     1       4.056  16.382  19.902  0.00  0.00    +0.000 C 
ATOM     33  C   UNL     1       3.204  16.876  21.065  0.00  0.00    +0.000 C 
BRANCH  32  34
ATOM     34  C   UNL     1       3.418  16.625  18.526  0.00  0.00    +0.000 C 
ATOM     35  C   UNL     1       3.695  15.523  17.517  0.00  0.00    +0.000 C 
ENDBRANCH  32  34
ENDBRANCH  30  32
ENDBRANCH  29  30
ENDBRANCH  10  29
TORSDOF 12
ENDMDL
MODEL 9
REMARK VINA RESULT:      -5.2      0.969      1.252
REMARK  Name = 
REMARK  20 active torsions:
REMARK  status: ('A' for Active; 'I' for Inactive)
REMARK    1  A    between atoms: C_3  and  O_4
REMARK    2  A    between atoms: O_4  and  C_5
REMARK    3  A    between atoms: C_5  and  C_7
REMARK    4  A    between atoms: C_8  and  C_9
REMARK    5  A    between atoms: C_8  and  C_10
REMARK    6  A    between atoms: C_10  and  C_11
REMARK    7  A    between atoms: C_13  and  C_14
REMARK    8  A    between atoms: C_14  and  C_15
REMARK    9  A    between atoms: C_14  and  C_16
REMARK   10  A    between atoms: C_18  and  C_19
REMARK   11  A    between atoms: C_19  and  C_20
REMARK   12  A    between atoms: C_19  and  O_21
REMARK   13  A    between atoms: O_21  and  C_22
REMARK   14  A    between atoms: C_22  and  C_23
REMARK   15  A    between atoms: C_27  and  O_28
REMARK   16  A    between atoms: O_28  and  C_29
REMARK   17  A    between atoms: C_29  and  C_31
REMARK   18  A    between atoms: C_31  and  C_32
REMARK   19  A    between atoms: C_31  and  C_33
REMARK   20  A    between atoms: C_33  and  C_34
REMARK                            x       y       z     vdW  Elec       q    Type
REMARK                         _______ _______ _______ _____ _____    ______ ____
ROOT
ATOM      1  C   UNL     1      -0.159  13.999  18.167  0.00  0.00    +0.000 C 
ATOM      2  C   UNL     1      -0.200  14.757  19.275  0.00  0.00    +0.000 C 
ATOM      3  C   UNL     1      -0.107  16.264  19.194  0.00  0.00    +0.000 C 
ATOM      4  C   UNL     1      -1.308  16.888  19.905  0.00  0.00    +0.000 C 
ATOM      5  C   UNL     1      -1.727  16.330  21.300  0.00  0.00    +0.000 C 
ATOM      6  C   UNL     1      -1.515  14.790  21.467  0.00  0.00    +0.000 C 
ATOM      7  C   UNL     1      -1.158  14.216  22.899  0.00  0.00    +0.000 C 
ATOM      8  C   UNL     1      -0.684  12.815  22.473  0.00  0.00    +0.000 C 
ATOM      9  O   UNL     1      -0.734  11.808  23.168  0.00  0.00    +0.000 OA
ATOM     10  C   UNL     1      -0.199  12.776  21.028  0.00  0.00    +0.000 C 
ATOM     11  C   UNL     1      -0.268  14.272  20.693  0.00  0.00    +0.000 C 
ENDROOT
BRANCH   5  12
ATOM     12  C   UNL     1      -3.201  16.804  21.603  0.00  0.00    +0.000 C 
ATOM     13  C   UNL     1      -4.081  17.152  20.390  0.00  0.00    +0.000 C 
ATOM     14  C   UNL     1      -3.226  17.982  22.588  0.00  0.00    +0.000 C 
ENDBRANCH   5  12
BRANCH   7  15
ATOM     15  C   UNL     1      -2.249  14.183  23.989  0.00  0.00    +0.000 C 
ATOM     16  C   UNL     1      -2.239  15.327  25.014  0.00  0.00    +0.000 C 
BRANCH  15  17
ATOM     17  O   UNL     1      -3.598  14.089  23.448  0.00  0.00    +0.000 OA
BRANCH  17  18
ATOM     18  C   UNL     1      -4.274  12.910  23.397  0.00  0.00    +0.000 C 
ATOM     19  C   UNL     1      -4.446  12.340  24.777  0.00  0.00    +0.000 C 
ATOM     20  O   UNL     1      -4.684  12.363  22.385  0.00  0.00    +0.000 OA
ENDBRANCH  17  18
ENDBRANCH  15  17
ENDBRANCH   7  15
BRANCH   3  21
ATOM     21  O   UNL     1       1.122  16.709  19.795  0.00  0.00    +0.000 OA
BRANCH  21  22
ATOM     22  C   UNL     1       2.038  17.127  18.873  0.00  0.00    +0.000 C 
ATOM     23  O   UNL     1       1.947  18.121  18.180  0.00  0.00    +0.000 OA
BRANCH  22  24
ATOM     24  C   UNL     1       3.156  16.157  18.812  0.00  0.00    +0.000 C 
ATOM     25  C   UNL     1       4.301  16.270  19.521  0.00  0.00    +0.000 C 
ATOM     26  C   UNL     1       4.566  17.320  20.574  0.00  0.00    +0.000 C 
BRANCH  25  27
ATOM     27  C   UNL     1       5.436  15.285  19.316  0.00  0.00    +0.000 C 
ATOM     28  C   UNL     1       5.539  14.785  17.879  0.00  0.00    +0.000 C 
ENDBRANCH  25  27
ENDBRANCH  22  24
ENDBRANCH  21  22
ENDBRANCH   3  21
BRANCH  10  29
ATOM     29  O   UNL     1      -1.163  11.972  20.341  0.00  0.00    +0.000 OA
BRANCH  29  30
ATOM     30  C   UNL     1      -0.674  10.763  19.918  0.00  0.00    +0.000 C 
ATOM     31  O   UNL     1      -0.475   9.797  20.638  0.00  0.00    +0.000 OA
BRANCH  30  32
ATOM     32  C   UNL     1      -0.410  10.794  18.420  0.00  0.00    +0.000 C 
ATOM     33  C   UNL     1       0.404   9.565  18.033  0.00  0.00    +0.000 C 
BRANCH  32  34
ATOM     34  C   UNL     1      -1.747  10.906  17.673  0.00  0.00    +0.000 C 
ATOM     35  C   UNL     1      -2.659   9.705  17.859  0.00  0.00    +0.000 C 
ENDBRANCH  32  34
ENDBRANCH  30  32
ENDBRANCH  29  30
ENDBRANCH  10  29
TORSDOF 12
ENDMDL
