MODEL 1
REMARK VINA RESULT:      -8.6      0.000      0.000
REMARK  Name = 
REMARK  4 active torsions:
REMARK  status: ('A' for Active; 'I' for Inactive)
REMARK    1  A    between atoms: C_1  and  N_2
REMARK    2  A    between atoms: N_2  and  C_24
REMARK    3  A    between atoms: C_3  and  C_5
REMARK    4  A    between atoms: C_9  and  C_10
REMARK                            x       y       z     vdW  Elec       q    Type
REMARK                         _______ _______ _______ _____ _____    ______ ____
ROOT
ATOM      1  C   UNL     1       1.652   7.626  20.219  0.00  0.00    +0.000 A 
ATOM      2  C   UNL     1       1.627   8.560  19.188  0.00  0.00    +0.000 A 
ATOM      3  N   UNL     1       1.092   9.823  19.286  0.00  0.00    +0.000 NA
ATOM      4  C   UNL     1       0.497  10.199  20.453  0.00  0.00    +0.000 A 
ATOM      5  C   UNL     1       0.432   9.305  21.511  0.00  0.00    +0.000 A 
ATOM      6  C   UNL     1       1.039   8.044  21.390  0.00  0.00    +0.000 A 
ATOM      7  C   UNL     1      -0.261   9.556  22.802  0.00  0.00    +0.000 C 
ATOM      8  C   UNL     1      -0.946  10.886  22.940  0.00  0.00    +0.000 C 
ATOM      9  C   UNL     1      -0.765  11.879  21.812  0.00  0.00    +0.000 C 
ATOM     10  N   UNL     1      -0.054  11.506  20.599  0.00  0.00    +0.000 N 
ATOM     11  C   UNL     1       0.037  12.552  19.681  0.00  0.00    +0.000 C 
ATOM     12  N   UNL     1       0.744  12.325  18.546  0.00  0.00    +0.000 N 
ATOM     13  O   UNL     1      -0.466  13.660  19.871  0.00  0.00    +0.000 OA
ATOM     14  H   UNL     1       0.413  11.472  18.106  0.00  0.00    +0.000 HD
ATOM     15  H   UNL     1       1.693  12.057  18.780  0.00  0.00    +0.000 HD
ENDROOT
BRANCH   1  20
ATOM     16  C   UNL     1       3.930   4.691  19.352  0.00  0.00    +0.000 A 
ATOM     17  C   UNL     1       3.342   3.745  20.163  0.00  0.00    +0.000 A 
ATOM     18  N   UNL     1       2.322   3.999  21.028  0.00  0.00    +0.000 NA
ATOM     19  C   UNL     1       1.805   5.252  21.020  0.00  0.00    +0.000 A 
ATOM     20  C   UNL     1       2.216   6.265  20.161  0.00  0.00    +0.000 A 
ATOM     21  C   UNL     1       3.312   5.954  19.319  0.00  0.00    +0.000 A 
BRANCH  16  24
ATOM     22  C   UNL     1       3.743   3.846  16.395  0.00  0.00    +0.000 C 
ATOM     23  N   UNL     1       4.996   4.092  17.107  0.00  0.00    +0.000 N 
ATOM     24  C   UNL     1       5.114   4.419  18.474  0.00  0.00    +0.000 C 
ATOM     25  O   UNL     1       6.218   4.487  19.020  0.00  0.00    +0.000 OA
BRANCH  23  26
ATOM     26  C   UNL     1       6.260   4.071  16.271  0.00  0.00    +0.000 C 
ATOM     27  C   UNL     1       6.071   3.827  14.750  0.00  0.00    +0.000 C 
ATOM     28  C   UNL     1       7.220   4.827  14.502  0.00  0.00    +0.000 C 
ATOM     29  C   UNL     1       6.898   5.438  15.874  0.00  0.00    +0.000 C 
ENDBRANCH  23  26
ENDBRANCH  16  24
ENDBRANCH   1  20
TORSDOF 3
ENDMDL
MODEL 2
REMARK VINA RESULT:      -8.2      0.942      1.015
REMARK  Name = 
REMARK  4 active torsions:
REMARK  status: ('A' for Active; 'I' for Inactive)
REMARK    1  A    between atoms: C_1  and  N_2
REMARK    2  A    between atoms: N_2  and  C_24
REMARK    3  A    between atoms: C_3  and  C_5
REMARK    4  A    between atoms: C_9  and  C_10
REMARK                            x       y       z     vdW  Elec       q    Type
REMARK                         _______ _______ _______ _____ _____    ______ ____
ROOT
ATOM      1  C   UNL     1       1.709   7.425  20.049  0.00  0.00    +0.000 A 
ATOM      2  C   UNL     1       1.744   8.385  19.041  0.00  0.00    +0.000 A 
ATOM      3  N   UNL     1       1.285   9.674  19.170  0.00  0.00    +0.000 NA
ATOM      4  C   UNL     1       0.708  10.056  20.344  0.00  0.00    +0.000 A 
ATOM      5  C   UNL     1       0.585   9.141  21.379  0.00  0.00    +0.000 A 
ATOM      6  C   UNL     1       1.116   7.850  21.228  0.00  0.00    +0.000 A 
ATOM      7  C   UNL     1      -0.099   9.400  22.673  0.00  0.00    +0.000 C 
ATOM      8  C   UNL     1      -0.704  10.764  22.843  0.00  0.00    +0.000 C 
ATOM      9  C   UNL     1      -0.459  11.773  21.741  0.00  0.00    +0.000 C 
ATOM     10  N   UNL     1       0.235  11.388  20.522  0.00  0.00    +0.000 N 
ATOM     11  C   UNL     1       0.391  12.450  19.631  0.00  0.00    +0.000 C 
ATOM     12  N   UNL     1       1.090  12.210  18.492  0.00  0.00    +0.000 N 
ATOM     13  O   UNL     1      -0.045  13.581  19.847  0.00  0.00    +0.000 OA
ATOM     14  H   UNL     1       0.710  11.390  18.030  0.00  0.00    +0.000 HD
ATOM     15  H   UNL     1       2.020  11.881  18.723  0.00  0.00    +0.000 HD
ENDROOT
BRANCH   1  20
ATOM     16  C   UNL     1       3.436   4.275  18.764  0.00  0.00    +0.000 A 
ATOM     17  C   UNL     1       3.204   3.469  19.857  0.00  0.00    +0.000 A 
ATOM     18  N   UNL     1       2.608   3.886  21.008  0.00  0.00    +0.000 NA
ATOM     19  C   UNL     1       2.142   5.158  21.035  0.00  0.00    +0.000 A 
ATOM     20  C   UNL     1       2.191   6.035  19.958  0.00  0.00    +0.000 A 
ATOM     21  C   UNL     1       2.866   5.560  18.806  0.00  0.00    +0.000 A 
BRANCH  16  24
ATOM     22  C   UNL     1       5.227   6.109  17.056  0.00  0.00    +0.000 C 
ATOM     23  N   UNL     1       5.037   4.680  16.814  0.00  0.00    +0.000 N 
ATOM     24  C   UNL     1       4.177   3.829  17.540  0.00  0.00    +0.000 C 
ATOM     25  O   UNL     1       3.985   2.664  17.187  0.00  0.00    +0.000 OA
BRANCH  23  26
ATOM     26  C   UNL     1       5.908   4.058  15.740  0.00  0.00    +0.000 C 
ATOM     27  C   UNL     1       5.404   4.203  14.280  0.00  0.00    +0.000 C 
ATOM     28  C   UNL     1       6.876   4.377  13.847  0.00  0.00    +0.000 C 
ATOM     29  C   UNL     1       7.175   4.843  15.280  0.00  0.00    +0.000 C 
ENDBRANCH  23  26
ENDBRANCH  16  24
ENDBRANCH   1  20
TORSDOF 3
ENDMDL
MODEL 3
REMARK VINA RESULT:      -7.9      1.376      1.595
REMARK  Name = 
REMARK  4 active torsions:
REMARK  status: ('A' for Active; 'I' for Inactive)
REMARK    1  A    between atoms: C_1  and  N_2
REMARK    2  A    between atoms: N_2  and  C_24
REMARK    3  A    between atoms: C_3  and  C_5
REMARK    4  A    between atoms: C_9  and  C_10
REMARK                            x       y       z     vdW  Elec       q    Type
REMARK                         _______ _______ _______ _____ _____    ______ ____
ROOT
ATOM      1  C   UNL     1       1.112   8.763  19.964  0.00  0.00    +0.000 A 
ATOM      2  C   UNL     1       0.770   9.716  19.009  0.00  0.00    +0.000 A 
ATOM      3  N   UNL     1       0.044  10.855  19.261  0.00  0.00    +0.000 NA
ATOM      4  C   UNL     1      -0.428  11.072  20.521  0.00  0.00    +0.000 A 
ATOM      5  C   UNL     1      -0.178  10.141  21.518  0.00  0.00    +0.000 A 
ATOM      6  C   UNL     1       0.615   9.017  21.233  0.00  0.00    +0.000 A 
ATOM      7  C   UNL     1      -0.706  10.212  22.906  0.00  0.00    +0.000 C 
ATOM      8  C   UNL     1      -1.584  11.388  23.223  0.00  0.00    +0.000 C 
ATOM      9  C   UNL     1      -1.748  12.440  22.148  0.00  0.00    +0.000 C 
ATOM     10  N   UNL     1      -1.171  12.249  20.826  0.00  0.00    +0.000 N 
ATOM     11  C   UNL     1      -1.402  13.329  19.973  0.00  0.00    +0.000 C 
ATOM     12  N   UNL     1      -0.841  13.278  18.739  0.00  0.00    +0.000 N 
ATOM     13  O   UNL     1      -2.056  14.319  20.302  0.00  0.00    +0.000 OA
ATOM     14  H   UNL     1      -1.081  12.397  18.295  0.00  0.00    +0.000 HD
ATOM     15  H   UNL     1       0.163  13.179  18.821  0.00  0.00    +0.000 HD
ENDROOT
BRANCH   1  20
ATOM     16  C   UNL     1       3.638   6.294  18.522  0.00  0.00    +0.000 A 
ATOM     17  C   UNL     1       3.433   5.266  19.415  0.00  0.00    +0.000 A 
ATOM     18  N   UNL     1       2.607   5.337  20.495  0.00  0.00    +0.000 NA
ATOM     19  C   UNL     1       1.879   6.471  20.640  0.00  0.00    +0.000 A 
ATOM     20  C   UNL     1       1.889   7.531  19.741  0.00  0.00    +0.000 A 
ATOM     21  C   UNL     1       2.805   7.419  18.665  0.00  0.00    +0.000 A 
BRANCH  16  24
ATOM     22  C   UNL     1       4.038   3.851  16.688  0.00  0.00    +0.000 C 
ATOM     23  N   UNL     1       4.738   5.124  16.534  0.00  0.00    +0.000 N 
ATOM     24  C   UNL     1       4.622   6.237  17.392  0.00  0.00    +0.000 C 
ATOM     25  O   UNL     1       5.345   7.227  17.257  0.00  0.00    +0.000 OA
BRANCH  23  26
ATOM     26  C   UNL     1       5.597   5.274  15.293  0.00  0.00    +0.000 C 
ATOM     27  C   UNL     1       7.052   4.747  15.399  0.00  0.00    +0.000 C 
ATOM     28  C   UNL     1       6.930   4.270  13.936  0.00  0.00    +0.000 C 
ATOM     29  C   UNL     1       5.408   4.237  14.143  0.00  0.00    +0.000 C 
ENDBRANCH  23  26
ENDBRANCH  16  24
ENDBRANCH   1  20
TORSDOF 3
ENDMDL
MODEL 4
REMARK VINA RESULT:      -7.9      1.021      2.035
REMARK  Name = 
REMARK  4 active torsions:
REMARK  status: ('A' for Active; 'I' for Inactive)
REMARK    1  A    between atoms: C_1  and  N_2
REMARK    2  A    between atoms: N_2  and  C_24
REMARK    3  A    between atoms: C_3  and  C_5
REMARK    4  A    between atoms: C_9  and  C_10
REMARK                            x       y       z     vdW  Elec       q    Type
REMARK                         _______ _______ _______ _____ _____    ______ ____
ROOT
ATOM      1  C   UNL     1       1.635   7.373  20.489  0.00  0.00    +0.000 A 
ATOM      2  C   UNL     1       1.033   7.871  21.641  0.00  0.00    +0.000 A 
ATOM      3  N   UNL     1       0.533   9.145  21.776  0.00  0.00    +0.000 NA
ATOM      4  C   UNL     1       0.661  10.018  20.738  0.00  0.00    +0.000 A 
ATOM      5  C   UNL     1       1.300   9.615  19.575  0.00  0.00    +0.000 A 
ATOM      6  C   UNL     1       1.748   8.290  19.456  0.00  0.00    +0.000 A 
ATOM      7  C   UNL     1       1.583  10.491  18.408  0.00  0.00    +0.000 C 
ATOM      8  C   UNL     1       1.142  11.921  18.528  0.00  0.00    +0.000 C 
ATOM      9  C   UNL     1       0.354  12.302  19.762  0.00  0.00    +0.000 C 
ATOM     10  N   UNL     1       0.141  11.342  20.834  0.00  0.00    +0.000 N 
ATOM     11  C   UNL     1      -0.626  11.858  21.879  0.00  0.00    +0.000 C 
ATOM     12  N   UNL     1      -0.940  11.016  22.896  0.00  0.00    +0.000 N 
ATOM     13  O   UNL     1      -1.044  13.016  21.899  0.00  0.00    +0.000 OA
ATOM     14  H   UNL     1      -0.095  10.572  23.240  0.00  0.00    +0.000 HD
ATOM     15  H   UNL     1      -1.440  10.213  22.534  0.00  0.00    +0.000 HD
ENDROOT
BRANCH   1  20
ATOM     16  C   UNL     1       3.889   4.510  19.358  0.00  0.00    +0.000 A 
ATOM     17  C   UNL     1       3.274   3.494  20.056  0.00  0.00    +0.000 A 
ATOM     18  N   UNL     1       2.242   3.672  20.926  0.00  0.00    +0.000 NA
ATOM     19  C   UNL     1       1.743   4.927  21.040  0.00  0.00    +0.000 A 
ATOM     20  C   UNL     1       2.182   6.017  20.298  0.00  0.00    +0.000 A 
ATOM     21  C   UNL     1       3.289   5.778  19.447  0.00  0.00    +0.000 A 
BRANCH  16  24
ATOM     22  C   UNL     1       3.741   3.814  16.360  0.00  0.00    +0.000 C 
ATOM     23  N   UNL     1       4.983   4.054  17.093  0.00  0.00    +0.000 N 
ATOM     24  C   UNL     1       5.085   4.313  18.476  0.00  0.00    +0.000 C 
ATOM     25  O   UNL     1       6.183   4.380  19.033  0.00  0.00    +0.000 OA
BRANCH  23  26
ATOM     26  C   UNL     1       6.253   4.107  16.266  0.00  0.00    +0.000 C 
ATOM     27  C   UNL     1       6.089   3.860  14.743  0.00  0.00    +0.000 C 
ATOM     28  C   UNL     1       7.182   4.924  14.508  0.00  0.00    +0.000 C 
ATOM     29  C   UNL     1       6.816   5.510  15.880  0.00  0.00    +0.000 C 
ENDBRANCH  23  26
ENDBRANCH  16  24
ENDBRANCH   1  20
TORSDOF 3
ENDMDL
MODEL 5
REMARK VINA RESULT:      -7.8      1.632      2.106
REMARK  Name = 
REMARK  4 active torsions:
REMARK  status: ('A' for Active; 'I' for Inactive)
REMARK    1  A    between atoms: C_1  and  N_2
REMARK    2  A    between atoms: N_2  and  C_24
REMARK    3  A    between atoms: C_3  and  C_5
REMARK    4  A    between atoms: C_9  and  C_10
REMARK                            x       y       z     vdW  Elec       q    Type
REMARK                         _______ _______ _______ _____ _____    ______ ____
ROOT
ATOM      1  C   UNL     1       2.047   8.031  19.074  0.00  0.00    +0.000 A 
ATOM      2  C   UNL     1       1.492   8.974  18.213  0.00  0.00    +0.000 A 
ATOM      3  N   UNL     1       0.659   9.996  18.602  0.00  0.00    +0.000 NA
ATOM      4  C   UNL     1       0.299  10.093  19.913  0.00  0.00    +0.000 A 
ATOM      5  C   UNL     1       0.767   9.158  20.824  0.00  0.00    +0.000 A 
ATOM      6  C   UNL     1       1.659   8.161  20.398  0.00  0.00    +0.000 A 
ATOM      7  C   UNL     1       0.382   9.097  22.259  0.00  0.00    +0.000 C 
ATOM      8  C   UNL     1      -0.597  10.134  22.729  0.00  0.00    +0.000 C 
ATOM      9  C   UNL     1      -1.003  11.203  21.738  0.00  0.00    +0.000 C 
ATOM     10  N   UNL     1      -0.548  11.149  20.358  0.00  0.00    +0.000 N 
ATOM     11  C   UNL     1      -1.000  12.227  19.596  0.00  0.00    +0.000 C 
ATOM     12  N   UNL     1      -0.571  12.305  18.311  0.00  0.00    +0.000 N 
ATOM     13  O   UNL     1      -1.735  13.107  20.044  0.00  0.00    +0.000 OA
ATOM     14  H   UNL     1      -0.744  11.422  17.843  0.00  0.00    +0.000 HD
ATOM     15  H   UNL     1       0.442  12.334  18.289  0.00  0.00    +0.000 HD
ENDROOT
BRANCH   1  20
ATOM     16  C   UNL     1       4.501   5.868  17.109  0.00  0.00    +0.000 A 
ATOM     17  C   UNL     1       4.726   4.910  18.073  0.00  0.00    +0.000 A 
ATOM     18  N   UNL     1       4.214   4.950  19.334  0.00  0.00    +0.000 NA
ATOM     19  C   UNL     1       3.361   5.964  19.620  0.00  0.00    +0.000 A 
ATOM     20  C   UNL     1       2.945   6.922  18.703  0.00  0.00    +0.000 A 
ATOM     21  C   UNL     1       3.549   6.855  17.424  0.00  0.00    +0.000 A 
BRANCH  16  24
ATOM     22  C   UNL     1       5.569   3.341  15.708  0.00  0.00    +0.000 C 
ATOM     23  N   UNL     1       5.571   4.677  15.117  0.00  0.00    +0.000 N 
ATOM     24  C   UNL     1       5.146   5.861  15.757  0.00  0.00    +0.000 C 
ATOM     25  O   UNL     1       5.299   6.963  15.226  0.00  0.00    +0.000 OA
BRANCH  23  26
ATOM     26  C   UNL     1       5.991   4.770  13.663  0.00  0.00    +0.000 C 
ATOM     27  C   UNL     1       7.518   4.828  13.394  0.00  0.00    +0.000 C 
ATOM     28  C   UNL     1       7.275   3.959  12.141  0.00  0.00    +0.000 C 
ATOM     29  C   UNL     1       5.988   3.460  12.816  0.00  0.00    +0.000 C 
ENDBRANCH  23  26
ENDBRANCH  16  24
ENDBRANCH   1  20
TORSDOF 3
ENDMDL
MODEL 6
REMARK VINA RESULT:      -7.8      2.797      8.755
REMARK  Name = 
REMARK  4 active torsions:
REMARK  status: ('A' for Active; 'I' for Inactive)
REMARK    1  A    between atoms: C_1  and  N_2
REMARK    2  A    between atoms: N_2  and  C_24
REMARK    3  A    between atoms: C_3  and  C_5
REMARK    4  A    between atoms: C_9  and  C_10
REMARK                            x       y       z     vdW  Elec       q    Type
REMARK                         _______ _______ _______ _____ _____    ______ ____
ROOT
ATOM      1  C   UNL     1       2.155   7.976  19.080  0.00  0.00    +0.000 A 
ATOM      2  C   UNL     1       2.908   8.341  17.968  0.00  0.00    +0.000 A 
ATOM      3  N   UNL     1       3.744   7.497  17.276  0.00  0.00    +0.000 NA
ATOM      4  C   UNL     1       3.901   6.217  17.714  0.00  0.00    +0.000 A 
ATOM      5  C   UNL     1       3.228   5.792  18.850  0.00  0.00    +0.000 A 
ATOM      6  C   UNL     1       2.341   6.667  19.497  0.00  0.00    +0.000 A 
ATOM      7  C   UNL     1       3.377   4.455  19.482  0.00  0.00    +0.000 C 
ATOM      8  C   UNL     1       4.347   3.514  18.826  0.00  0.00    +0.000 C 
ATOM      9  C   UNL     1       4.983   3.968  17.530  0.00  0.00    +0.000 C 
ATOM     10  N   UNL     1       4.747   5.307  17.014  0.00  0.00    +0.000 N 
ATOM     11  C   UNL     1       5.392   5.542  15.800  0.00  0.00    +0.000 C 
ATOM     12  N   UNL     1       5.176   6.740  15.201  0.00  0.00    +0.000 N 
ATOM     13  O   UNL     1       6.112   4.709  15.248  0.00  0.00    +0.000 OA
ATOM     14  H   UNL     1       5.353   7.487  15.865  0.00  0.00    +0.000 HD
ATOM     15  H   UNL     1       4.185   6.868  15.036  0.00  0.00    +0.000 HD
ENDROOT
BRANCH   1  20
ATOM     16  C   UNL     1      -0.596  10.479  19.931  0.00  0.00    +0.000 A 
ATOM     17  C   UNL     1      -0.543  10.363  21.303  0.00  0.00    +0.000 A 
ATOM     18  N   UNL     1       0.252   9.483  21.972  0.00  0.00    +0.000 NA
ATOM     19  C   UNL     1       1.103   8.734  21.229  0.00  0.00    +0.000 A 
ATOM     20  C   UNL     1       1.246   8.844  19.850  0.00  0.00    +0.000 A 
ATOM     21  C   UNL     1       0.358   9.741  19.207  0.00  0.00    +0.000 A 
BRANCH  16  24
ATOM     22  C   UNL     1      -2.668   9.524  17.860  0.00  0.00    +0.000 C 
ATOM     23  N   UNL     1      -2.521  10.909  18.306  0.00  0.00    +0.000 N 
ATOM     24  C   UNL     1      -1.543  11.385  19.205  0.00  0.00    +0.000 C 
ATOM     25  O   UNL     1      -1.415  12.590  19.428  0.00  0.00    +0.000 OA
BRANCH  23  26
ATOM     26  C   UNL     1      -3.569  11.888  17.814  0.00  0.00    +0.000 C 
ATOM     27  C   UNL     1      -4.520  11.373  16.703  0.00  0.00    +0.000 C 
ATOM     28  C   UNL     1      -5.655  12.171  17.378  0.00  0.00    +0.000 C 
ATOM     29  C   UNL     1      -4.848  12.088  18.683  0.00  0.00    +0.000 C 
ENDBRANCH  23  26
ENDBRANCH  16  24
ENDBRANCH   1  20
TORSDOF 3
ENDMDL
MODEL 7
REMARK VINA RESULT:      -7.8      1.883      2.826
REMARK  Name = 
REMARK  4 active torsions:
REMARK  status: ('A' for Active; 'I' for Inactive)
REMARK    1  A    between atoms: C_1  and  N_2
REMARK    2  A    between atoms: N_2  and  C_24
REMARK    3  A    between atoms: C_3  and  C_5
REMARK    4  A    between atoms: C_9  and  C_10
REMARK                            x       y       z     vdW  Elec       q    Type
REMARK                         _______ _______ _______ _____ _____    ______ ____
ROOT
ATOM      1  C   UNL     1       2.180   7.387  19.731  0.00  0.00    +0.000 A 
ATOM      2  C   UNL     1       1.732   7.476  21.046  0.00  0.00    +0.000 A 
ATOM      3  N   UNL     1       0.959   8.497  21.545  0.00  0.00    +0.000 NA
ATOM      4  C   UNL     1       0.627   9.534  20.726  0.00  0.00    +0.000 A 
ATOM      5  C   UNL     1       1.081   9.548  19.416  0.00  0.00    +0.000 A 
ATOM      6  C   UNL     1       1.823   8.460  18.929  0.00  0.00    +0.000 A 
ATOM      7  C   UNL     1       0.866  10.656  18.448  0.00  0.00    +0.000 C 
ATOM      8  C   UNL     1       0.104  11.845  18.959  0.00  0.00    +0.000 C 
ATOM      9  C   UNL     1      -0.469  11.753  20.356  0.00  0.00    +0.000 C 
ATOM     10  N   UNL     1      -0.187  10.603  21.202  0.00  0.00    +0.000 N 
ATOM     11  C   UNL     1      -0.817  10.677  22.444  0.00  0.00    +0.000 C 
ATOM     12  N   UNL     1      -0.673   9.618  23.279  0.00  0.00    +0.000 N 
ATOM     13  O   UNL     1      -1.508  11.635  22.793  0.00  0.00    +0.000 OA
ATOM     14  H   UNL     1       0.312   9.395  23.376  0.00  0.00    +0.000 HD
ATOM     15  H   UNL     1      -1.012   8.776  22.828  0.00  0.00    +0.000 HD
ENDROOT
BRANCH   1  20
ATOM     16  C   UNL     1       4.464   5.463  17.357  0.00  0.00    +0.000 A 
ATOM     17  C   UNL     1       4.659   4.348  18.141  0.00  0.00    +0.000 A 
ATOM     18  N   UNL     1       4.180   4.202  19.407  0.00  0.00    +0.000 NA
ATOM     19  C   UNL     1       3.391   5.195  19.884  0.00  0.00    +0.000 A 
ATOM     20  C   UNL     1       3.006   6.313  19.153  0.00  0.00    +0.000 A 
ATOM     21  C   UNL     1       3.576   6.430  17.861  0.00  0.00    +0.000 A 
BRANCH  16  24
ATOM     22  C   UNL     1       5.767   3.207  15.713  0.00  0.00    +0.000 C 
ATOM     23  N   UNL     1       5.611   4.584  15.249  0.00  0.00    +0.000 N 
ATOM     24  C   UNL     1       5.076   5.650  16.001  0.00  0.00    +0.000 C 
ATOM     25  O   UNL     1       5.097   6.807  15.574  0.00  0.00    +0.000 OA
BRANCH  23  26
ATOM     26  C   UNL     1       5.986   4.854  13.805  0.00  0.00    +0.000 C 
ATOM     27  C   UNL     1       7.503   4.971  13.502  0.00  0.00    +0.000 C 
ATOM     28  C   UNL     1       7.236   4.251  12.163  0.00  0.00    +0.000 C 
ATOM     29  C   UNL     1       5.978   3.653  12.810  0.00  0.00    +0.000 C 
ENDBRANCH  23  26
ENDBRANCH  16  24
ENDBRANCH   1  20
TORSDOF 3
ENDMDL
MODEL 8
REMARK VINA RESULT:      -7.7      2.480      8.682
REMARK  Name = 
REMARK  4 active torsions:
REMARK  status: ('A' for Active; 'I' for Inactive)
REMARK    1  A    between atoms: C_1  and  N_2
REMARK    2  A    between atoms: N_2  and  C_24
REMARK    3  A    between atoms: C_3  and  C_5
REMARK    4  A    between atoms: C_9  and  C_10
REMARK                            x       y       z     vdW  Elec       q    Type
REMARK                         _______ _______ _______ _____ _____    ______ ____
ROOT
ATOM      1  C   UNL     1       1.702   7.362  20.381  0.00  0.00    +0.000 A 
ATOM      2  C   UNL     1       1.449   6.078  20.855  0.00  0.00    +0.000 A 
ATOM      3  N   UNL     1       2.021   4.932  20.355  0.00  0.00    +0.000 NA
ATOM      4  C   UNL     1       2.866   5.024  19.291  0.00  0.00    +0.000 A 
ATOM      5  C   UNL     1       3.126   6.264  18.726  0.00  0.00    +0.000 A 
ATOM      6  C   UNL     1       2.566   7.417  19.299  0.00  0.00    +0.000 A 
ATOM      7  C   UNL     1       3.955   6.494  17.514  0.00  0.00    +0.000 C 
ATOM      8  C   UNL     1       4.536   5.271  16.864  0.00  0.00    +0.000 C 
ATOM      9  C   UNL     1       4.324   3.947  17.566  0.00  0.00    +0.000 C 
ATOM     10  N   UNL     1       3.491   3.861  18.755  0.00  0.00    +0.000 N 
ATOM     11  C   UNL     1       3.428   2.569  19.280  0.00  0.00    +0.000 C 
ATOM     12  N   UNL     1       2.732   2.399  20.433  0.00  0.00    +0.000 N 
ATOM     13  O   UNL     1       3.994   1.605  18.765  0.00  0.00    +0.000 OA
ATOM     14  H   UNL     1       1.807   2.803  20.332  0.00  0.00    +0.000 HD
ATOM     15  H   UNL     1       3.118   2.992  21.158  0.00  0.00    +0.000 HD
ENDROOT
BRANCH   1  20
ATOM     16  C   UNL     1      -0.405  10.535  20.606  0.00  0.00    +0.000 A 
ATOM     17  C   UNL     1      -0.075  10.894  21.894  0.00  0.00    +0.000 A 
ATOM     18  N   UNL     1       0.707  10.151  22.724  0.00  0.00    +0.000 NA
ATOM     19  C   UNL     1       1.259   9.026  22.207  0.00  0.00    +0.000 A 
ATOM     20  C   UNL     1       1.116   8.617  20.886  0.00  0.00    +0.000 A 
ATOM     21  C   UNL     1       0.252   9.406  20.087  0.00  0.00    +0.000 A 
BRANCH  16  24
ATOM     22  C   UNL     1      -1.064   9.817  17.683  0.00  0.00    +0.000 C 
ATOM     23  N   UNL     1      -1.669  10.925  18.419  0.00  0.00    +0.000 N 
ATOM     24  C   UNL     1      -1.343  11.315  19.735  0.00  0.00    +0.000 C 
ATOM     25  O   UNL     1      -1.815  12.339  20.233  0.00  0.00    +0.000 OA
BRANCH  23  26
ATOM     26  C   UNL     1      -2.802  11.656  17.724  0.00  0.00    +0.000 C 
ATOM     27  C   UNL     1      -3.160  11.163  16.297  0.00  0.00    +0.000 C 
ATOM     28  C   UNL     1      -4.642  11.432  16.634  0.00  0.00    +0.000 C 
ATOM     29  C   UNL     1      -4.264  11.281  18.116  0.00  0.00    +0.000 C 
ENDBRANCH  23  26
ENDBRANCH  16  24
ENDBRANCH   1  20
TORSDOF 3
ENDMDL
MODEL 9
REMARK VINA RESULT:      -7.7      2.526      8.626
REMARK  Name = 
REMARK  4 active torsions:
REMARK  status: ('A' for Active; 'I' for Inactive)
REMARK    1  A    between atoms: C_1  and  N_2
REMARK    2  A    between atoms: N_2  and  C_24
REMARK    3  A    between atoms: C_3  and  C_5
REMARK    4  A    between atoms: C_9  and  C_10
REMARK                            x       y       z     vdW  Elec       q    Type
REMARK                         _______ _______ _______ _____ _____    ______ ____
ROOT
ATOM      1  C   UNL     1       1.642   7.716  20.282  0.00  0.00    +0.000 A 
ATOM      2  C   UNL     1       2.459   7.716  19.155  0.00  0.00    +0.000 A 
ATOM      3  N   UNL     1       3.071   6.602  18.630  0.00  0.00    +0.000 NA
ATOM      4  C   UNL     1       2.920   5.405  19.263  0.00  0.00    +0.000 A 
ATOM      5  C   UNL     1       2.166   5.332  20.425  0.00  0.00    +0.000 A 
ATOM      6  C   UNL     1       1.512   6.481  20.899  0.00  0.00    +0.000 A 
ATOM      7  C   UNL     1       1.994   4.113  21.258  0.00  0.00    +0.000 C 
ATOM      8  C   UNL     1       2.713   2.881  20.788  0.00  0.00    +0.000 C 
ATOM      9  C   UNL     1       3.437   2.965  19.461  0.00  0.00    +0.000 C 
ATOM     10  N   UNL     1       3.525   4.225  18.740  0.00  0.00    +0.000 N 
ATOM     11  C   UNL     1       4.207   4.110  17.529  0.00  0.00    +0.000 C 
ATOM     12  N   UNL     1       4.280   5.216  16.747  0.00  0.00    +0.000 N 
ATOM     13  O   UNL     1       4.709   3.056  17.136  0.00  0.00    +0.000 OA
ATOM     14  H   UNL     1       4.629   5.995  17.297  0.00  0.00    +0.000 HD
ATOM     15  H   UNL     1       3.347   5.545  16.529  0.00  0.00    +0.000 HD
ENDROOT
BRANCH   1  20
ATOM     16  C   UNL     1      -0.638  10.746  20.705  0.00  0.00    +0.000 A 
ATOM     17  C   UNL     1      -0.399  10.980  22.042  0.00  0.00    +0.000 A 
ATOM     18  N   UNL     1       0.374  10.190  22.836  0.00  0.00    +0.000 NA
ATOM     19  C   UNL     1       1.012   9.153  22.240  0.00  0.00    +0.000 A 
ATOM     20  C   UNL     1       0.964   8.881  20.877  0.00  0.00    +0.000 A 
ATOM     21  C   UNL     1       0.106   9.709  20.113  0.00  0.00    +0.000 A 
BRANCH  16  24
ATOM     22  C   UNL     1      -1.933   9.773  18.085  0.00  0.00    +0.000 C 
ATOM     23  N   UNL     1      -2.189  11.073  18.701  0.00  0.00    +0.000 N 
ATOM     24  C   UNL     1      -1.566  11.570  19.865  0.00  0.00    +0.000 C 
ATOM     25  O   UNL     1      -1.751  12.728  20.243  0.00  0.00    +0.000 OA
BRANCH  23  26
ATOM     26  C   UNL     1      -3.282  11.913  18.069  0.00  0.00    +0.000 C 
ATOM     27  C   UNL     1      -3.904  11.356  16.762  0.00  0.00    +0.000 C 
ATOM     28  C   UNL     1      -5.267  11.897  17.244  0.00  0.00    +0.000 C 
ATOM     29  C   UNL     1      -4.716  11.825  18.676  0.00  0.00    +0.000 C 
ENDBRANCH  23  26
ENDBRANCH  16  24
ENDBRANCH   1  20
TORSDOF 3
ENDMDL
