MODEL 1
REMARK VINA RESULT:      -7.2      0.000      0.000
REMARK  Name = 
REMARK  9 active torsions:
REMARK  status: ('A' for Active; 'I' for Inactive)
REMARK    1  A    between atoms: C_1  and  C_2
REMARK    2  A    between atoms: C_2  and  C_3
REMARK    3  A    between atoms: C_2  and  C_4
REMARK    4  A    between atoms: C_4  and  N_5
REMARK    5  A    between atoms: N_5  and  C_6
REMARK    6  A    between atoms: C_6  and  C_7
REMARK    7  A    between atoms: C_19  and  C_21
REMARK    8  A    between atoms: N_24  and  C_25
REMARK    9  A    between atoms: C_25  and  C_26
REMARK                            x       y       z     vdW  Elec       q    Type
REMARK                         _______ _______ _______ _____ _____    ______ ____
ROOT
ATOM      1  N   UNL     1       2.258   5.192  20.027  0.00  0.00    +0.000 N 
ATOM      2  C   UNL     1       3.406   5.227  19.216  0.00  0.00    +0.000 C 
ATOM      3  O   UNL     1       4.439   5.778  19.608  0.00  0.00    +0.000 OA
ENDROOT
BRANCH   2   4
ATOM      4  C   UNL     1       3.344   4.607  17.803  0.00  0.00    +0.000 C 
ATOM      5  C   UNL     1       3.832   3.162  17.772  0.00  0.00    +0.000 C 
ATOM      6  C   UNL     1       5.320   3.325  17.533  0.00  0.00    +0.000 C 
ATOM      7  N   UNL     1       5.423   4.388  16.517  0.00  0.00    +0.000 NA
ATOM      8  C   UNL     1       4.314   5.312  16.832  0.00  0.00    +0.000 C 
BRANCH   7   9
ATOM      9  C   UNL     1       5.345   3.803  15.165  0.00  0.00    +0.000 C 
BRANCH   9  10
ATOM     10  C   UNL     1       6.392   4.357  14.253  0.00  0.00    +0.000 A 
ATOM     11  C   UNL     1       6.571   4.123  12.859  0.00  0.00    +0.000 A 
ATOM     12  C   UNL     1       7.640   4.898  12.466  0.00  0.00    +0.000 A 
ATOM     13  O   UNL     1       8.130   5.598  13.519  0.00  0.00    +0.000 OA
ATOM     14  C   UNL     1       7.369   5.273  14.593  0.00  0.00    +0.000 A 
ENDBRANCH   9  10
ENDBRANCH   7   9
ENDBRANCH   2   4
BRANCH   1  15
ATOM     15  C   UNL     1       1.008   4.552  19.589  0.00  0.00    +0.000 C 
BRANCH  15  17
ATOM     16  C   UNL     1       0.697   2.089  18.885  0.00  0.00    +0.000 C 
ATOM     17  C   UNL     1       0.732   3.106  20.026  0.00  0.00    +0.000 C 
ATOM     18  C   UNL     1       1.644   2.650  21.158  0.00  0.00    +0.000 C 
ENDBRANCH  15  17
ENDBRANCH   1  15
BRANCH   1  19
ATOM     19  C   UNL     1       2.161   6.259  21.056  0.00  0.00    +0.000 C 
BRANCH  19  20
ATOM     20  C   UNL     1       1.588   7.616  20.688  0.00  0.00    +0.000 A 
ATOM     21  C   UNL     1       1.876   8.273  19.486  0.00  0.00    +0.000 A 
ATOM     22  C   UNL     1       1.312   9.527  19.204  0.00  0.00    +0.000 A 
ATOM     23 CL   UNL     1       1.734  10.303  17.719  0.00  0.00    +0.000 Cl
ATOM     24  C   UNL     1       0.444  10.143  20.114  0.00  0.00    +0.000 A 
ATOM     25  C   UNL     1       0.052   9.451  21.259  0.00  0.00    +0.000 A 
ATOM     26  C   UNL     1       0.615   8.203  21.535  0.00  0.00    +0.000 A 
ATOM     27  O   UNL     1      -0.980   9.883  22.054  0.00  0.00    +0.000 OA
ATOM     28  C   UNL     1      -0.680  11.063  22.799  0.00  0.00    +0.000 C 
ATOM     29  C   UNL     1      -0.684  12.346  21.974  0.00  0.00    +0.000 C 
ATOM     30  C   UNL     1       0.356  12.309  20.872  0.00  0.00    +0.000 C 
ATOM     31  O   UNL     1      -0.036  11.397  19.842  0.00  0.00    +0.000 OA
ENDBRANCH  19  20
ENDBRANCH   1  19
TORSDOF 7
ENDMDL
MODEL 2
REMARK VINA RESULT:      -7.1      1.898      2.596
REMARK  Name = 
REMARK  9 active torsions:
REMARK  status: ('A' for Active; 'I' for Inactive)
REMARK    1  A    between atoms: C_1  and  C_2
REMARK    2  A    between atoms: C_2  and  C_3
REMARK    3  A    between atoms: C_2  and  C_4
REMARK    4  A    between atoms: C_4  and  N_5
REMARK    5  A    between atoms: N_5  and  C_6
REMARK    6  A    between atoms: C_6  and  C_7
REMARK    7  A    between atoms: C_19  and  C_21
REMARK    8  A    between atoms: N_24  and  C_25
REMARK    9  A    between atoms: C_25  and  C_26
REMARK                            x       y       z     vdW  Elec       q    Type
REMARK                         _______ _______ _______ _____ _____    ______ ____
ROOT
ATOM      1  N   UNL     1       2.691   6.671  19.008  0.00  0.00    +0.000 N 
ATOM      2  C   UNL     1       3.607   6.895  17.965  0.00  0.00    +0.000 C 
ATOM      3  O   UNL     1       3.548   7.922  17.283  0.00  0.00    +0.000 OA
ENDROOT
BRANCH   2   4
ATOM      4  C   UNL     1       4.662   5.812  17.649  0.00  0.00    +0.000 C 
ATOM      5  C   UNL     1       6.055   6.184  18.148  0.00  0.00    +0.000 C 
ATOM      6  C   UNL     1       6.628   6.952  16.972  0.00  0.00    +0.000 C 
ATOM      7  N   UNL     1       6.214   6.183  15.785  0.00  0.00    +0.000 NA
ATOM      8  C   UNL     1       4.877   5.657  16.130  0.00  0.00    +0.000 C 
BRANCH   7   9
ATOM      9  C   UNL     1       7.209   5.135  15.490  0.00  0.00    +0.000 C 
BRANCH   9  10
ATOM     10  C   UNL     1       7.077   4.613  14.096  0.00  0.00    +0.000 A 
ATOM     11  C   UNL     1       6.188   3.617  13.598  0.00  0.00    +0.000 A 
ATOM     12  C   UNL     1       6.417   3.528  12.243  0.00  0.00    +0.000 A 
ATOM     13  O   UNL     1       7.382   4.403  11.867  0.00  0.00    +0.000 OA
ATOM     14  C   UNL     1       7.772   5.060  12.987  0.00  0.00    +0.000 A 
ENDBRANCH   9  10
ENDBRANCH   7   9
ENDBRANCH   2   4
BRANCH   1  15
ATOM     15  C   UNL     1       2.726   5.455  19.835  0.00  0.00    +0.000 C 
BRANCH  15  17
ATOM     16  C   UNL     1       2.624   3.082  18.826  0.00  0.00    +0.000 C 
ATOM     17  C   UNL     1       1.853   4.261  19.420  0.00  0.00    +0.000 C 
ATOM     18  C   UNL     1       0.905   3.814  20.526  0.00  0.00    +0.000 C 
ENDBRANCH  15  17
ENDBRANCH   1  15
BRANCH   1  19
ATOM     19  C   UNL     1       1.396   7.390  18.896  0.00  0.00    +0.000 C 
BRANCH  19  20
ATOM     20  C   UNL     1       1.122   8.597  19.777  0.00  0.00    +0.000 A 
ATOM     21  C   UNL     1       0.839   8.504  21.144  0.00  0.00    +0.000 A 
ATOM     22  C   UNL     1       0.597   9.659  21.903  0.00  0.00    +0.000 A 
ATOM     23 CL   UNL     1       0.218   9.477  23.580  0.00  0.00    +0.000 Cl
ATOM     24  C   UNL     1       0.641  10.927  21.312  0.00  0.00    +0.000 A 
ATOM     25  C   UNL     1       1.039  11.047  19.982  0.00  0.00    +0.000 A 
ATOM     26  C   UNL     1       1.280   9.895  19.230  0.00  0.00    +0.000 A 
ATOM     27  O   UNL     1       1.348  12.261  19.420  0.00  0.00    +0.000 OA
ATOM     28  C   UNL     1       0.217  13.108  19.219  0.00  0.00    +0.000 C 
ATOM     29  C   UNL     1      -0.318  13.754  20.492  0.00  0.00    +0.000 C 
ATOM     30  C   UNL     1      -0.786  12.718  21.495  0.00  0.00    +0.000 C 
ATOM     31  O   UNL     1       0.332  12.031  22.064  0.00  0.00    +0.000 OA
ENDBRANCH  19  20
ENDBRANCH   1  19
TORSDOF 7
ENDMDL
MODEL 3
REMARK VINA RESULT:      -6.9      3.444     10.327
REMARK  Name = 
REMARK  9 active torsions:
REMARK  status: ('A' for Active; 'I' for Inactive)
REMARK    1  A    between atoms: C_1  and  C_2
REMARK    2  A    between atoms: C_2  and  C_3
REMARK    3  A    between atoms: C_2  and  C_4
REMARK    4  A    between atoms: C_4  and  N_5
REMARK    5  A    between atoms: N_5  and  C_6
REMARK    6  A    between atoms: C_6  and  C_7
REMARK    7  A    between atoms: C_19  and  C_21
REMARK    8  A    between atoms: N_24  and  C_25
REMARK    9  A    between atoms: C_25  and  C_26
REMARK                            x       y       z     vdW  Elec       q    Type
REMARK                         _______ _______ _______ _____ _____    ______ ____
ROOT
ATOM      1  N   UNL     1       0.401   9.168  21.018  0.00  0.00    +0.000 N 
ATOM      2  C   UNL     1       0.081  10.127  21.995  0.00  0.00    +0.000 C 
ATOM      3  O   UNL     1       0.697  10.170  23.064  0.00  0.00    +0.000 OA
ENDROOT
BRANCH   2   4
ATOM      4  C   UNL     1      -1.088  11.102  21.733  0.00  0.00    +0.000 C 
ATOM      5  C   UNL     1      -0.629  12.422  21.120  0.00  0.00    +0.000 C 
ATOM      6  C   UNL     1      -0.327  13.262  22.346  0.00  0.00    +0.000 C 
ATOM      7  N   UNL     1      -1.432  12.978  23.278  0.00  0.00    +0.000 NA
ATOM      8  C   UNL     1      -1.754  11.554  23.048  0.00  0.00    +0.000 C 
BRANCH   7   9
ATOM      9  C   UNL     1      -2.559  13.893  23.019  0.00  0.00    +0.000 C 
BRANCH   9  10
ATOM     10  C   UNL     1      -3.876  13.266  23.345  0.00  0.00    +0.000 A 
ATOM     11  C   UNL     1      -4.372  12.846  24.613  0.00  0.00    +0.000 A 
ATOM     12  C   UNL     1      -5.650  12.380  24.400  0.00  0.00    +0.000 A 
ATOM     13  O   UNL     1      -5.981  12.487  23.089  0.00  0.00    +0.000 OA
ATOM     14  C   UNL     1      -4.910  13.029  22.458  0.00  0.00    +0.000 A 
ENDBRANCH   9  10
ENDBRANCH   7   9
ENDBRANCH   2   4
BRANCH   1  15
ATOM     15  C   UNL     1      -0.318   9.083  19.737  0.00  0.00    +0.000 C 
BRANCH  15  17
ATOM     16  C   UNL     1       1.193   9.709  17.741  0.00  0.00    +0.000 C 
ATOM     17  C   UNL     1       0.019  10.102  18.639  0.00  0.00    +0.000 C 
ATOM     18  C   UNL     1      -1.201  10.513  17.823  0.00  0.00    +0.000 C 
ENDBRANCH  15  17
ENDBRANCH   1  15
BRANCH   1  19
ATOM     19  C   UNL     1       1.068   7.938  21.515  0.00  0.00    +0.000 C 
BRANCH  19  20
ATOM     20  C   UNL     1       1.739   6.992  20.535  0.00  0.00    +0.000 A 
ATOM     21  C   UNL     1       2.542   7.425  19.473  0.00  0.00    +0.000 A 
ATOM     22  C   UNL     1       3.137   6.499  18.603  0.00  0.00    +0.000 A 
ATOM     23 CL   UNL     1       4.088   7.097  17.290  0.00  0.00    +0.000 Cl
ATOM     24  C   UNL     1       2.948   5.123  18.783  0.00  0.00    +0.000 A 
ATOM     25  C   UNL     1       2.252   4.670  19.902  0.00  0.00    +0.000 A 
ATOM     26  C   UNL     1       1.662   5.595  20.767  0.00  0.00    +0.000 A 
ATOM     27  O   UNL     1       2.249   3.349  20.274  0.00  0.00    +0.000 OA
ATOM     28  C   UNL     1       1.503   2.505  19.396  0.00  0.00    +0.000 C 
ATOM     29  C   UNL     1       2.195   2.205  18.072  0.00  0.00    +0.000 C 
ATOM     30  C   UNL     1       2.448   3.468  17.270  0.00  0.00    +0.000 C 
ATOM     31  O   UNL     1       3.484   4.246  17.877  0.00  0.00    +0.000 OA
ENDBRANCH  19  20
ENDBRANCH   1  19
TORSDOF 7
ENDMDL
MODEL 4
REMARK VINA RESULT:      -6.7      4.168      9.809
REMARK  Name = 
REMARK  9 active torsions:
REMARK  status: ('A' for Active; 'I' for Inactive)
REMARK    1  A    between atoms: C_1  and  C_2
REMARK    2  A    between atoms: C_2  and  C_3
REMARK    3  A    between atoms: C_2  and  C_4
REMARK    4  A    between atoms: C_4  and  N_5
REMARK    5  A    between atoms: N_5  and  C_6
REMARK    6  A    between atoms: C_6  and  C_7
REMARK    7  A    between atoms: C_19  and  C_21
REMARK    8  A    between atoms: N_24  and  C_25
REMARK    9  A    between atoms: C_25  and  C_26
REMARK                            x       y       z     vdW  Elec       q    Type
REMARK                         _______ _______ _______ _____ _____    ______ ____
ROOT
ATOM      1  N   UNL     1       0.844  10.193  19.578  0.00  0.00    +0.000 N 
ATOM      2  C   UNL     1      -0.544  10.016  19.435  0.00  0.00    +0.000 C 
ATOM      3  O   UNL     1      -1.188   9.371  20.267  0.00  0.00    +0.000 OA
ENDROOT
BRANCH   2   4
ATOM      4  C   UNL     1      -1.249  10.601  18.191  0.00  0.00    +0.000 C 
ATOM      5  C   UNL     1      -1.698  12.045  18.393  0.00  0.00    +0.000 C 
ATOM      6  C   UNL     1      -3.085  11.876  18.983  0.00  0.00    +0.000 C 
ATOM      7  N   UNL     1      -3.696  10.789  18.199  0.00  0.00    +0.000 NA
ATOM      8  C   UNL     1      -2.576   9.873  17.897  0.00  0.00    +0.000 C 
BRANCH   7   9
ATOM      9  C   UNL     1      -4.354  11.340  16.999  0.00  0.00    +0.000 C 
BRANCH   9  10
ATOM     10  C   UNL     1      -5.650  12.007  17.328  0.00  0.00    +0.000 A 
ATOM     11  C   UNL     1      -6.650  11.599  18.258  0.00  0.00    +0.000 A 
ATOM     12  C   UNL     1      -7.627  12.570  18.236  0.00  0.00    +0.000 A 
ATOM     13  O   UNL     1      -7.298  13.552  17.359  0.00  0.00    +0.000 OA
ATOM     14  C   UNL     1      -6.102  13.211  16.820  0.00  0.00    +0.000 A 
ENDBRANCH   9  10
ENDBRANCH   7   9
ENDBRANCH   2   4
BRANCH   1  15
ATOM     15  C   UNL     1       1.643  10.949  18.602  0.00  0.00    +0.000 C 
BRANCH  15  17
ATOM     16  C   UNL     1       2.048  13.406  17.926  0.00  0.00    +0.000 C 
ATOM     17  C   UNL     1       2.179  12.331  19.005  0.00  0.00    +0.000 C 
ATOM     18  C   UNL     1       1.628  12.807  20.343  0.00  0.00    +0.000 C 
ENDBRANCH  15  17
ENDBRANCH   1  15
BRANCH   1  19
ATOM     19  C   UNL     1       1.544   9.171  20.396  0.00  0.00    +0.000 C 
BRANCH  19  20
ATOM     20  C   UNL     1       1.982   7.863  19.762  0.00  0.00    +0.000 A 
ATOM     21  C   UNL     1       2.818   7.793  18.641  0.00  0.00    +0.000 A 
ATOM     22  C   UNL     1       3.189   6.552  18.103  0.00  0.00    +0.000 A 
ATOM     23 CL   UNL     1       4.194   6.531  16.697  0.00  0.00    +0.000 Cl
ATOM     24  C   UNL     1       2.739   5.357  18.680  0.00  0.00    +0.000 A 
ATOM     25  C   UNL     1       2.007   5.405  19.865  0.00  0.00    +0.000 A 
ATOM     26  C   UNL     1       1.640   6.643  20.398  0.00  0.00    +0.000 A 
ATOM     27  O   UNL     1       1.757   4.282  20.613  0.00  0.00    +0.000 OA
ATOM     28  C   UNL     1       0.830   3.380  20.008  0.00  0.00    +0.000 C 
ATOM     29  C   UNL     1       1.404   2.569  18.852  0.00  0.00    +0.000 C 
ATOM     30  C   UNL     1       1.873   3.460  17.718  0.00  0.00    +0.000 C 
ATOM     31  O   UNL     1       3.062   4.162  18.091  0.00  0.00    +0.000 OA
ENDBRANCH  19  20
ENDBRANCH   1  19
TORSDOF 7
ENDMDL
MODEL 5
REMARK VINA RESULT:      -6.6      3.265     10.362
REMARK  Name = 
REMARK  9 active torsions:
REMARK  status: ('A' for Active; 'I' for Inactive)
REMARK    1  A    between atoms: C_1  and  C_2
REMARK    2  A    between atoms: C_2  and  C_3
REMARK    3  A    between atoms: C_2  and  C_4
REMARK    4  A    between atoms: C_4  and  N_5
REMARK    5  A    between atoms: N_5  and  C_6
REMARK    6  A    between atoms: C_6  and  C_7
REMARK    7  A    between atoms: C_19  and  C_21
REMARK    8  A    between atoms: N_24  and  C_25
REMARK    9  A    between atoms: C_25  and  C_26
REMARK                            x       y       z     vdW  Elec       q    Type
REMARK                         _______ _______ _______ _____ _____    ______ ____
ROOT
ATOM      1  N   UNL     1       0.509   9.139  21.023  0.00  0.00    +0.000 N 
ATOM      2  C   UNL     1       0.163  10.104  21.985  0.00  0.00    +0.000 C 
ATOM      3  O   UNL     1       0.761  10.163  23.063  0.00  0.00    +0.000 OA
ENDROOT
BRANCH   2   4
ATOM      4  C   UNL     1      -1.013  11.062  21.696  0.00  0.00    +0.000 C 
ATOM      5  C   UNL     1      -0.556  12.398  21.116  0.00  0.00    +0.000 C 
ATOM      6  C   UNL     1      -0.310  13.227  22.362  0.00  0.00    +0.000 C 
ATOM      7  N   UNL     1      -1.442  12.911  23.252  0.00  0.00    +0.000 NA
ATOM      8  C   UNL     1      -1.732  11.485  22.993  0.00  0.00    +0.000 C 
BRANCH   7   9
ATOM      9  C   UNL     1      -2.575  13.811  22.966  0.00  0.00    +0.000 C 
BRANCH   9  10
ATOM     10  C   UNL     1      -3.880  13.222  23.396  0.00  0.00    +0.000 A 
ATOM     11  C   UNL     1      -5.075  13.060  22.636  0.00  0.00    +0.000 A 
ATOM     12  C   UNL     1      -5.978  12.423  23.458  0.00  0.00    +0.000 A 
ATOM     13  O   UNL     1      -5.423  12.175  24.671  0.00  0.00    +0.000 OA
ATOM     14  C   UNL     1      -4.155  12.653  24.625  0.00  0.00    +0.000 A 
ENDBRANCH   9  10
ENDBRANCH   7   9
ENDBRANCH   2   4
BRANCH   1  15
ATOM     15  C   UNL     1      -0.188   9.034  19.732  0.00  0.00    +0.000 C 
BRANCH  15  17
ATOM     16  C   UNL     1       1.428   9.794  17.869  0.00  0.00    +0.000 C 
ATOM     17  C   UNL     1       0.134  10.063  18.639  0.00  0.00    +0.000 C 
ATOM     18  C   UNL     1      -1.038  10.309  17.698  0.00  0.00    +0.000 C 
ENDBRANCH  15  17
ENDBRANCH   1  15
BRANCH   1  19
ATOM     19  C   UNL     1       1.182   7.922  21.542  0.00  0.00    +0.000 C 
BRANCH  19  20
ATOM     20  C   UNL     1       1.642   6.842  20.579  0.00  0.00    +0.000 A 
ATOM     21  C   UNL     1       1.161   5.528  20.607  0.00  0.00    +0.000 A 
ATOM     22  C   UNL     1       1.625   4.577  19.687  0.00  0.00    +0.000 A 
ATOM     23 CL   UNL     1       1.019   2.962  19.796  0.00  0.00    +0.000 Cl
ATOM     24  C   UNL     1       2.572   4.922  18.715  0.00  0.00    +0.000 A 
ATOM     25  C   UNL     1       2.972   6.252  18.594  0.00  0.00    +0.000 A 
ATOM     26  C   UNL     1       2.507   7.196  19.512  0.00  0.00    +0.000 A 
ATOM     27  O   UNL     1       3.692   6.702  17.515  0.00  0.00    +0.000 OA
ATOM     28  C   UNL     1       5.040   6.233  17.485  0.00  0.00    +0.000 C 
ATOM     29  C   UNL     1       5.189   4.775  17.066  0.00  0.00    +0.000 C 
ATOM     30  C   UNL     1       4.476   3.839  18.023  0.00  0.00    +0.000 C 
ATOM     31  O   UNL     1       3.058   3.955  17.874  0.00  0.00    +0.000 OA
ENDBRANCH  19  20
ENDBRANCH   1  19
TORSDOF 7
ENDMDL
MODEL 6
REMARK VINA RESULT:      -6.6      2.985      5.417
REMARK  Name = 
REMARK  9 active torsions:
REMARK  status: ('A' for Active; 'I' for Inactive)
REMARK    1  A    between atoms: C_1  and  C_2
REMARK    2  A    between atoms: C_2  and  C_3
REMARK    3  A    between atoms: C_2  and  C_4
REMARK    4  A    between atoms: C_4  and  N_5
REMARK    5  A    between atoms: N_5  and  C_6
REMARK    6  A    between atoms: C_6  and  C_7
REMARK    7  A    between atoms: C_19  and  C_21
REMARK    8  A    between atoms: N_24  and  C_25
REMARK    9  A    between atoms: C_25  and  C_26
REMARK                            x       y       z     vdW  Elec       q    Type
REMARK                         _______ _______ _______ _____ _____    ______ ____
ROOT
ATOM      1  N   UNL     1       1.798   8.334  19.008  0.00  0.00    +0.000 N 
ATOM      2  C   UNL     1       2.798   7.544  18.414  0.00  0.00    +0.000 C 
ATOM      3  O   UNL     1       3.360   7.909  17.378  0.00  0.00    +0.000 OA
ENDROOT
BRANCH   2   4
ATOM      4  C   UNL     1       3.153   6.182  19.051  0.00  0.00    +0.000 C 
ATOM      5  C   UNL     1       4.493   5.637  18.569  0.00  0.00    +0.000 C 
ATOM      6  C   UNL     1       4.100   4.850  17.333  0.00  0.00    +0.000 C 
ATOM      7  N   UNL     1       2.866   4.142  17.717  0.00  0.00    +0.000 NA
ATOM      8  C   UNL     1       2.165   5.080  18.619  0.00  0.00    +0.000 C 
BRANCH   7   9
ATOM      9  C   UNL     1       3.199   2.850  18.344  0.00  0.00    +0.000 C 
BRANCH   9  10
ATOM     10  C   UNL     1       2.704   2.765  19.752  0.00  0.00    +0.000 A 
ATOM     11  C   UNL     1       1.360   2.681  20.218  0.00  0.00    +0.000 A 
ATOM     12  C   UNL     1       1.427   2.572  21.590  0.00  0.00    +0.000 A 
ATOM     13  O   UNL     1       2.719   2.578  22.003  0.00  0.00    +0.000 OA
ATOM     14  C   UNL     1       3.485   2.688  20.890  0.00  0.00    +0.000 A 
ENDBRANCH   9  10
ENDBRANCH   7   9
ENDBRANCH   2   4
BRANCH   1  15
ATOM     15  C   UNL     1       1.102   7.926  20.238  0.00  0.00    +0.000 C 
BRANCH  15  17
ATOM     16  C   UNL     1      -0.560   8.856  21.979  0.00  0.00    +0.000 C 
ATOM     17  C   UNL     1       0.804   8.993  21.301  0.00  0.00    +0.000 C 
ATOM     18  C   UNL     1       1.927   9.138  22.319  0.00  0.00    +0.000 C 
ENDBRANCH  15  17
ENDBRANCH   1  15
BRANCH   1  19
ATOM     19  C   UNL     1       1.094   9.275  18.099  0.00  0.00    +0.000 C 
BRANCH  19  20
ATOM     20  C   UNL     1       0.672  10.643  18.605  0.00  0.00    +0.000 A 
ATOM     21  C   UNL     1      -0.641  10.957  18.973  0.00  0.00    +0.000 A 
ATOM     22  C   UNL     1      -0.967  12.241  19.435  0.00  0.00    +0.000 A 
ATOM     23 CL   UNL     1      -2.613  12.577  19.839  0.00  0.00    +0.000 Cl
ATOM     24  C   UNL     1       0.016  13.232  19.548  0.00  0.00    +0.000 A 
ATOM     25  C   UNL     1       1.348  12.904  19.302  0.00  0.00    +0.000 A 
ATOM     26  C   UNL     1       1.668  11.624  18.843  0.00  0.00    +0.000 A 
ATOM     27  O   UNL     1       2.380  13.745  19.637  0.00  0.00    +0.000 OA
ATOM     28  C   UNL     1       2.457  14.915  18.823  0.00  0.00    +0.000 C 
ATOM     29  C   UNL     1       1.402  15.970  19.136  0.00  0.00    +0.000 C 
ATOM     30  C   UNL     1      -0.003  15.441  18.920  0.00  0.00    +0.000 C 
ATOM     31  O   UNL     1      -0.344  14.496  19.937  0.00  0.00    +0.000 OA
ENDBRANCH  19  20
ENDBRANCH   1  19
TORSDOF 7
ENDMDL
MODEL 7
REMARK VINA RESULT:      -6.6      2.905      5.307
REMARK  Name = 
REMARK  9 active torsions:
REMARK  status: ('A' for Active; 'I' for Inactive)
REMARK    1  A    between atoms: C_1  and  C_2
REMARK    2  A    between atoms: C_2  and  C_3
REMARK    3  A    between atoms: C_2  and  C_4
REMARK    4  A    between atoms: C_4  and  N_5
REMARK    5  A    between atoms: N_5  and  C_6
REMARK    6  A    between atoms: C_6  and  C_7
REMARK    7  A    between atoms: C_19  and  C_21
REMARK    8  A    between atoms: N_24  and  C_25
REMARK    9  A    between atoms: C_25  and  C_26
REMARK                            x       y       z     vdW  Elec       q    Type
REMARK                         _______ _______ _______ _____ _____    ______ ____
ROOT
ATOM      1  N   UNL     1       1.967   8.593  19.059  0.00  0.00    +0.000 N 
ATOM      2  C   UNL     1       2.713   7.696  18.274  0.00  0.00    +0.000 C 
ATOM      3  O   UNL     1       2.958   7.946  17.090  0.00  0.00    +0.000 OA
ENDROOT
BRANCH   2   4
ATOM      4  C   UNL     1       3.183   6.365  18.900  0.00  0.00    +0.000 C 
ATOM      5  C   UNL     1       4.461   5.832  18.260  0.00  0.00    +0.000 C 
ATOM      6  C   UNL     1       3.928   4.995  17.113  0.00  0.00    +0.000 C 
ATOM      7  N   UNL     1       2.774   4.275  17.679  0.00  0.00    +0.000 NA
ATOM      8  C   UNL     1       2.174   5.228  18.637  0.00  0.00    +0.000 C 
BRANCH   7   9
ATOM      9  C   UNL     1       3.220   3.012  18.296  0.00  0.00    +0.000 C 
BRANCH   9  10
ATOM     10  C   UNL     1       2.708   2.859  19.692  0.00  0.00    +0.000 A 
ATOM     11  C   UNL     1       1.361   2.727  20.137  0.00  0.00    +0.000 A 
ATOM     12  C   UNL     1       1.412   2.563  21.503  0.00  0.00    +0.000 A 
ATOM     13  O   UNL     1       2.698   2.579  21.934  0.00  0.00    +0.000 OA
ATOM     14  C   UNL     1       3.476   2.750  20.837  0.00  0.00    +0.000 A 
ENDBRANCH   9  10
ENDBRANCH   7   9
ENDBRANCH   2   4
BRANCH   1  15
ATOM     15  C   UNL     1       1.649   8.323  20.470  0.00  0.00    +0.000 C 
BRANCH  15  17
ATOM     16  C   UNL     1      -0.706   8.175  21.513  0.00  0.00    +0.000 C 
ATOM     17  C   UNL     1       0.468   9.068  21.110  0.00  0.00    +0.000 C 
ATOM     18  C   UNL     1       0.897   9.982  22.250  0.00  0.00    +0.000 C 
ENDBRANCH  15  17
ENDBRANCH   1  15
BRANCH   1  19
ATOM     19  C   UNL     1       1.066   9.509  18.314  0.00  0.00    +0.000 C 
BRANCH  19  20
ATOM     20  C   UNL     1       1.185  11.010  18.506  0.00  0.00    +0.000 A 
ATOM     21  C   UNL     1       2.343  11.736  18.206  0.00  0.00    +0.000 A 
ATOM     22  C   UNL     1       2.389  13.124  18.404  0.00  0.00    +0.000 A 
ATOM     23 CL   UNL     1       3.860  13.958  18.049  0.00  0.00    +0.000 Cl
ATOM     24  C   UNL     1       1.275  13.814  18.896  0.00  0.00    +0.000 A 
ATOM     25  C   UNL     1       0.076  13.128  19.086  0.00  0.00    +0.000 A 
ATOM     26  C   UNL     1       0.035  11.747  18.887  0.00  0.00    +0.000 A 
ATOM     27  O   UNL     1      -1.109  13.782  19.317  0.00  0.00    +0.000 OA
ATOM     28  C   UNL     1      -1.188  14.393  20.605  0.00  0.00    +0.000 C 
ATOM     29  C   UNL     1      -0.373  15.674  20.744  0.00  0.00    +0.000 C 
ATOM     30  C   UNL     1       1.107  15.426  20.525  0.00  0.00    +0.000 C 
ATOM     31  O   UNL     1       1.371  15.158  19.145  0.00  0.00    +0.000 OA
ENDBRANCH  19  20
ENDBRANCH   1  19
TORSDOF 7
ENDMDL
MODEL 8
REMARK VINA RESULT:      -6.6      3.434     10.514
REMARK  Name = 
REMARK  9 active torsions:
REMARK  status: ('A' for Active; 'I' for Inactive)
REMARK    1  A    between atoms: C_1  and  C_2
REMARK    2  A    between atoms: C_2  and  C_3
REMARK    3  A    between atoms: C_2  and  C_4
REMARK    4  A    between atoms: C_4  and  N_5
REMARK    5  A    between atoms: N_5  and  C_6
REMARK    6  A    between atoms: C_6  and  C_7
REMARK    7  A    between atoms: C_19  and  C_21
REMARK    8  A    between atoms: N_24  and  C_25
REMARK    9  A    between atoms: C_25  and  C_26
REMARK                            x       y       z     vdW  Elec       q    Type
REMARK                         _______ _______ _______ _____ _____    ______ ____
ROOT
ATOM      1  N   UNL     1       0.305  10.395  18.607  0.00  0.00    +0.000 N 
ATOM      2  C   UNL     1       0.211  11.149  19.790  0.00  0.00    +0.000 C 
ATOM      3  O   UNL     1       1.146  11.867  20.157  0.00  0.00    +0.000 OA
ENDROOT
BRANCH   2   4
ATOM      4  C   UNL     1      -1.063  11.030  20.655  0.00  0.00    +0.000 C 
ATOM      5  C   UNL     1      -2.037  12.183  20.431  0.00  0.00    +0.000 C 
ATOM      6  C   UNL     1      -1.562  13.211  21.439  0.00  0.00    +0.000 C 
ATOM      7  N   UNL     1      -1.268  12.436  22.656  0.00  0.00    +0.000 NA
ATOM      8  C   UNL     1      -0.740  11.149  22.158  0.00  0.00    +0.000 C 
BRANCH   7   9
ATOM      9  C   UNL     1      -2.486  12.302  23.477  0.00  0.00    +0.000 C 
BRANCH   9  10
ATOM     10  C   UNL     1      -3.008  13.629  23.925  0.00  0.00    +0.000 A 
ATOM     11  C   UNL     1      -2.332  14.651  24.652  0.00  0.00    +0.000 A 
ATOM     12  C   UNL     1      -3.220  15.697  24.776  0.00  0.00    +0.000 A 
ATOM     13  O   UNL     1      -4.396  15.395  24.170  0.00  0.00    +0.000 OA
ATOM     14  C   UNL     1      -4.260  14.149  23.652  0.00  0.00    +0.000 A 
ENDBRANCH   9  10
ENDBRANCH   7   9
ENDBRANCH   2   4
BRANCH   1  15
ATOM     15  C   UNL     1      -0.785   9.522  18.144  0.00  0.00    +0.000 C 
BRANCH  15  17
ATOM     16  C   UNL     1      -3.294   9.750  17.585  0.00  0.00    +0.000 C 
ATOM     17  C   UNL     1      -1.855  10.115  17.216  0.00  0.00    +0.000 C 
ATOM     18  C   UNL     1      -1.690  11.616  17.012  0.00  0.00    +0.000 C 
ENDBRANCH  15  17
ENDBRANCH   1  15
BRANCH   1  19
ATOM     19  C   UNL     1       1.682  10.075  18.153  0.00  0.00    +0.000 C 
BRANCH  19  20
ATOM     20  C   UNL     1       2.258   8.691  18.397  0.00  0.00    +0.000 A 
ATOM     21  C   UNL     1       1.823   7.846  19.424  0.00  0.00    +0.000 A 
ATOM     22  C   UNL     1       2.394   6.577  19.596  0.00  0.00    +0.000 A 
ATOM     23 CL   UNL     1       1.839   5.595  20.905  0.00  0.00    +0.000 Cl
ATOM     24  C   UNL     1       3.404   6.124  18.739  0.00  0.00    +0.000 A 
ATOM     25  C   UNL     1       3.765   6.900  17.639  0.00  0.00    +0.000 A 
ATOM     26  C   UNL     1       3.193   8.163  17.471  0.00  0.00    +0.000 A 
ATOM     27  O   UNL     1       4.554   6.410  16.628  0.00  0.00    +0.000 OA
ATOM     28  C   UNL     1       5.916   6.207  17.006  0.00  0.00    +0.000 C 
ATOM     29  C   UNL     1       6.150   4.980  17.879  0.00  0.00    +0.000 C 
ATOM     30  C   UNL     1       5.395   5.071  19.191  0.00  0.00    +0.000 C 
ATOM     31  O   UNL     1       3.991   4.908  18.974  0.00  0.00    +0.000 OA
ENDBRANCH  19  20
ENDBRANCH   1  19
TORSDOF 7
ENDMDL
MODEL 9
REMARK VINA RESULT:      -6.5      3.663      9.435
REMARK  Name = 
REMARK  9 active torsions:
REMARK  status: ('A' for Active; 'I' for Inactive)
REMARK    1  A    between atoms: C_1  and  C_2
REMARK    2  A    between atoms: C_2  and  C_3
REMARK    3  A    between atoms: C_2  and  C_4
REMARK    4  A    between atoms: C_4  and  N_5
REMARK    5  A    between atoms: N_5  and  C_6
REMARK    6  A    between atoms: C_6  and  C_7
REMARK    7  A    between atoms: C_19  and  C_21
REMARK    8  A    between atoms: N_24  and  C_25
REMARK    9  A    between atoms: C_25  and  C_26
REMARK                            x       y       z     vdW  Elec       q    Type
REMARK                         _______ _______ _______ _____ _____    ______ ____
ROOT
ATOM      1  N   UNL     1       0.922   9.157  19.108  0.00  0.00    +0.000 N 
ATOM      2  C   UNL     1       0.159  10.278  18.734  0.00  0.00    +0.000 C 
ATOM      3  O   UNL     1      -0.468  10.289  17.671  0.00  0.00    +0.000 OA
ENDROOT
BRANCH   2   4
ATOM      4  C   UNL     1       0.155  11.520  19.652  0.00  0.00    +0.000 C 
ATOM      5  C   UNL     1      -1.246  11.902  20.120  0.00  0.00    +0.000 C 
ATOM      6  C   UNL     1      -1.716  12.831  19.017  0.00  0.00    +0.000 C 
ATOM      7  N   UNL     1      -0.549  13.678  18.716  0.00  0.00    +0.000 NA
ATOM      8  C   UNL     1       0.614  12.784  18.896  0.00  0.00    +0.000 C 
BRANCH   7   9
ATOM      9  C   UNL     1      -0.537  14.856  19.603  0.00  0.00    +0.000 C 
BRANCH   9  10
ATOM     10  C   UNL     1      -0.117  16.096  18.882  0.00  0.00    +0.000 A 
ATOM     11  C   UNL     1      -0.927  17.173  18.419  0.00  0.00    +0.000 A 
ATOM     12  C   UNL     1      -0.070  18.099  17.865  0.00  0.00    +0.000 A 
ATOM     13  O   UNL     1       1.214  17.670  17.959  0.00  0.00    +0.000 OA
ATOM     14  C   UNL     1       1.180  16.465  18.579  0.00  0.00    +0.000 A 
ENDBRANCH   9  10
ENDBRANCH   7   9
ENDBRANCH   2   4
BRANCH   1  15
ATOM     15  C   UNL     1       1.688   9.113  20.363  0.00  0.00    +0.000 C 
BRANCH  15  17
ATOM     16  C   UNL     1       1.023   9.508  22.825  0.00  0.00    +0.000 C 
ATOM     17  C   UNL     1       1.001   8.564  21.622  0.00  0.00    +0.000 C 
ATOM     18  C   UNL     1      -0.402   8.038  21.345  0.00  0.00    +0.000 C 
ENDBRANCH  15  17
ENDBRANCH   1  15
BRANCH   1  19
ATOM     19  C   UNL     1       1.372   8.282  17.996  0.00  0.00    +0.000 C 
BRANCH  19  20
ATOM     20  C   UNL     1       2.492   7.282  18.225  0.00  0.00    +0.000 A 
ATOM     21  C   UNL     1       2.351   6.136  19.015  0.00  0.00    +0.000 A 
ATOM     22  C   UNL     1       3.425   5.249  19.186  0.00  0.00    +0.000 A 
ATOM     23 CL   UNL     1       3.199   3.870  20.202  0.00  0.00    +0.000 Cl
ATOM     24  C   UNL     1       4.656   5.486  18.562  0.00  0.00    +0.000 A 
ATOM     25  C   UNL     1       4.778   6.556  17.677  0.00  0.00    +0.000 A 
ATOM     26  C   UNL     1       3.707   7.436  17.510  0.00  0.00    +0.000 A 
ATOM     27  O   UNL     1       5.862   6.695  16.847  0.00  0.00    +0.000 OA
ATOM     28  C   UNL     1       7.068   7.044  17.527  0.00  0.00    +0.000 C 
ATOM     29  C   UNL     1       7.713   5.895  18.293  0.00  0.00    +0.000 C 
ATOM     30  C   UNL     1       6.799   5.360  19.379  0.00  0.00    +0.000 C 
ATOM     31  O   UNL     1       5.706   4.640  18.803  0.00  0.00    +0.000 OA
ENDBRANCH  19  20
ENDBRANCH   1  19
TORSDOF 7
ENDMDL
