MODEL 1
REMARK VINA RESULT:      -6.7      0.000      0.000
REMARK  Name = 
REMARK  17 active torsions:
REMARK  status: ('A' for Active; 'I' for Inactive)
REMARK    1  A    between atoms: C_1  and  C_2
REMARK    2  A    between atoms: C_2  and  C_3
REMARK    3  A    between atoms: C_3  and  C_4
REMARK    4  A    between atoms: C_4  and  C_5
REMARK    5  A    between atoms: C_5  and  C_6
REMARK    6  A    between atoms: C_6  and  C_7
REMARK    7  A    between atoms: C_7  and  C_8
REMARK    8  A    between atoms: C_8  and  C_9
REMARK    9  A    between atoms: C_9  and  C_10
REMARK   10  A    between atoms: C_10  and  C_11
REMARK   11  A    between atoms: C_11  and  C_12
REMARK   12  A    between atoms: C_11  and  N_13
REMARK   13  A    between atoms: N_13  and  C_14
REMARK   14  A    between atoms: C_17  and  C_18
REMARK   15  A    between atoms: C_18  and  O_20
REMARK   16  A    between atoms: O_20  and  C_21
REMARK   17  A    between atoms: C_21  and  C_22
REMARK                            x       y       z     vdW  Elec       q    Type
REMARK                         _______ _______ _______ _____ _____    ______ ____
ROOT
ATOM      1  N   UNL     1       7.529   5.584  16.410  0.00  0.00    +0.000 N 
ATOM      2  H   UNL     1       8.127   4.940  16.924  0.00  0.00    +0.000 HD
ENDROOT
BRANCH   1   3
ATOM      3  C   UNL     1       6.959   5.005  15.278  0.00  0.00    +0.000 A 
ATOM      4  C   UNL     1       7.588   4.990  14.026  0.00  0.00    +0.000 A 
ATOM      5  C   UNL     1       7.009   4.336  12.930  0.00  0.00    +0.000 A 
ATOM      6  C   UNL     1       5.798   3.655  13.073  0.00  0.00    +0.000 A 
ATOM      7  C   UNL     1       5.174   3.631  14.325  0.00  0.00    +0.000 A 
ATOM      8  C   UNL     1       5.759   4.290  15.412  0.00  0.00    +0.000 A 
BRANCH   6   9
ATOM      9  C   UNL     1       5.204   3.031  11.864  0.00  0.00    +0.000 C 
ATOM     10  O   UNL     1       5.550   1.946  11.428  0.00  0.00    +0.000 OA
BRANCH   9  11
ATOM     11  O   UNL     1       4.322   3.884  11.283  0.00  0.00    +0.000 OA
BRANCH  11  12
ATOM     12  C   UNL     1       3.298   3.258  10.499  0.00  0.00    +0.000 C 
ATOM     13  C   UNL     1       2.792   4.279   9.496  0.00  0.00    +0.000 C 
ENDBRANCH  11  12
ENDBRANCH   9  11
ENDBRANCH   6   9
ENDBRANCH   1   3
BRANCH   1  14
ATOM     14  C   UNL     1       6.756   6.458  17.296  0.00  0.00    +0.000 C 
ATOM     15  C   UNL     1       7.534   7.767  17.448  0.00  0.00    +0.000 C 
BRANCH  14  16
ATOM     16  C   UNL     1       6.531   5.749  18.646  0.00  0.00    +0.000 C 
BRANCH  16  17
ATOM     17  C   UNL     1       5.125   5.163  18.752  0.00  0.00    +0.000 C 
BRANCH  17  18
ATOM     18  C   UNL     1       4.076   6.048  18.092  0.00  0.00    +0.000 C 
BRANCH  18  19
ATOM     19  C   UNL     1       2.945   6.317  19.084  0.00  0.00    +0.000 C 
BRANCH  19  20
ATOM     20  C   UNL     1       2.843   5.199  20.111  0.00  0.00    +0.000 C 
BRANCH  20  21
ATOM     21  C   UNL     1       1.403   5.047  20.595  0.00  0.00    +0.000 C 
BRANCH  21  22
ATOM     22  C   UNL     1       0.956   3.595  20.490  0.00  0.00    +0.000 C 
BRANCH  22  23
ATOM     23  C   UNL     1       1.155   3.063  19.075  0.00  0.00    +0.000 C 
BRANCH  23  25
ATOM     24  C   UNL     1       3.063   2.035  17.810  0.00  0.00    +0.000 C 
ATOM     25  C   UNL     1       2.199   1.953  19.057  0.00  0.00    +0.000 C 
ENDBRANCH  23  25
ENDBRANCH  22  23
ENDBRANCH  21  22
ENDBRANCH  20  21
ENDBRANCH  19  20
ENDBRANCH  18  19
ENDBRANCH  17  18
ENDBRANCH  16  17
ENDBRANCH  14  16
ENDBRANCH   1  14
TORSDOF 14
ENDMDL
MODEL 2
REMARK VINA RESULT:      -6.3      3.133      5.770
REMARK  Name = 
REMARK  17 active torsions:
REMARK  status: ('A' for Active; 'I' for Inactive)
REMARK    1  A    between atoms: C_1  and  C_2
REMARK    2  A    between atoms: C_2  and  C_3
REMARK    3  A    between atoms: C_3  and  C_4
REMARK    4  A    between atoms: C_4  and  C_5
REMARK    5  A    between atoms: C_5  and  C_6
REMARK    6  A    between atoms: C_6  and  C_7
REMARK    7  A    between atoms: C_7  and  C_8
REMARK    8  A    between atoms: C_8  and  C_9
REMARK    9  A    between atoms: C_9  and  C_10
REMARK   10  A    between atoms: C_10  and  C_11
REMARK   11  A    between atoms: C_11  and  C_12
REMARK   12  A    between atoms: C_11  and  N_13
REMARK   13  A    between atoms: N_13  and  C_14
REMARK   14  A    between atoms: C_17  and  C_18
REMARK   15  A    between atoms: C_18  and  O_20
REMARK   16  A    between atoms: O_20  and  C_21
REMARK   17  A    between atoms: C_21  and  C_22
REMARK                            x       y       z     vdW  Elec       q    Type
REMARK                         _______ _______ _______ _____ _____    ______ ____
ROOT
ATOM      1  N   UNL     1       3.396   2.230  19.588  0.00  0.00    +0.000 N 
ATOM      2  H   UNL     1       3.398   1.298  19.180  0.00  0.00    +0.000 HD
ENDROOT
BRANCH   1   3
ATOM      3  C   UNL     1       4.026   3.175  18.781  0.00  0.00    +0.000 A 
ATOM      4  C   UNL     1       5.096   3.967  19.220  0.00  0.00    +0.000 A 
ATOM      5  C   UNL     1       5.745   4.856  18.353  0.00  0.00    +0.000 A 
ATOM      6  C   UNL     1       5.356   4.950  17.015  0.00  0.00    +0.000 A 
ATOM      7  C   UNL     1       4.312   4.141  16.551  0.00  0.00    +0.000 A 
ATOM      8  C   UNL     1       3.668   3.258  17.426  0.00  0.00    +0.000 A 
BRANCH   6   9
ATOM      9  C   UNL     1       6.040   5.951  16.159  0.00  0.00    +0.000 C 
ATOM     10  O   UNL     1       6.502   6.996  16.585  0.00  0.00    +0.000 OA
BRANCH   9  11
ATOM     11  O   UNL     1       5.973   5.577  14.856  0.00  0.00    +0.000 OA
BRANCH  11  12
ATOM     12  C   UNL     1       6.983   4.651  14.437  0.00  0.00    +0.000 C 
ATOM     13  C   UNL     1       6.475   3.943  13.194  0.00  0.00    +0.000 C 
ENDBRANCH  11  12
ENDBRANCH   9  11
ENDBRANCH   6   9
ENDBRANCH   1   3
BRANCH   1  14
ATOM     14  C   UNL     1       2.145   2.532  20.288  0.00  0.00    +0.000 C 
ATOM     15  C   UNL     1       1.043   2.658  19.234  0.00  0.00    +0.000 C 
BRANCH  14  16
ATOM     16  C   UNL     1       2.318   3.824  21.112  0.00  0.00    +0.000 C 
BRANCH  16  17
ATOM     17  C   UNL     1       1.428   4.951  20.596  0.00  0.00    +0.000 C 
BRANCH  17  18
ATOM     18  C   UNL     1       2.230   6.172  20.162  0.00  0.00    +0.000 C 
BRANCH  18  19
ATOM     19  C   UNL     1       2.249   6.248  18.636  0.00  0.00    +0.000 C 
BRANCH  19  20
ATOM     20  C   UNL     1       2.839   7.568  18.162  0.00  0.00    +0.000 C 
BRANCH  20  21
ATOM     21  C   UNL     1       1.752   8.457  17.566  0.00  0.00    +0.000 C 
BRANCH  21  22
ATOM     22  C   UNL     1       1.950   9.904  17.998  0.00  0.00    +0.000 C 
BRANCH  22  23
ATOM     23  C   UNL     1       1.077  10.239  19.201  0.00  0.00    +0.000 C 
BRANCH  23  25
ATOM     24  C   UNL     1      -1.201  11.020  19.908  0.00  0.00    +0.000 C 
ATOM     25  C   UNL     1      -0.377  10.420  18.782  0.00  0.00    +0.000 C 
ENDBRANCH  23  25
ENDBRANCH  22  23
ENDBRANCH  21  22
ENDBRANCH  20  21
ENDBRANCH  19  20
ENDBRANCH  18  19
ENDBRANCH  17  18
ENDBRANCH  16  17
ENDBRANCH  14  16
ENDBRANCH   1  14
TORSDOF 14
ENDMDL
MODEL 3
REMARK VINA RESULT:      -6.1      2.092      4.165
REMARK  Name = 
REMARK  17 active torsions:
REMARK  status: ('A' for Active; 'I' for Inactive)
REMARK    1  A    between atoms: C_1  and  C_2
REMARK    2  A    between atoms: C_2  and  C_3
REMARK    3  A    between atoms: C_3  and  C_4
REMARK    4  A    between atoms: C_4  and  C_5
REMARK    5  A    between atoms: C_5  and  C_6
REMARK    6  A    between atoms: C_6  and  C_7
REMARK    7  A    between atoms: C_7  and  C_8
REMARK    8  A    between atoms: C_8  and  C_9
REMARK    9  A    between atoms: C_9  and  C_10
REMARK   10  A    between atoms: C_10  and  C_11
REMARK   11  A    between atoms: C_11  and  C_12
REMARK   12  A    between atoms: C_11  and  N_13
REMARK   13  A    between atoms: N_13  and  C_14
REMARK   14  A    between atoms: C_17  and  C_18
REMARK   15  A    between atoms: C_18  and  O_20
REMARK   16  A    between atoms: O_20  and  C_21
REMARK   17  A    between atoms: C_21  and  C_22
REMARK                            x       y       z     vdW  Elec       q    Type
REMARK                         _______ _______ _______ _____ _____    ______ ____
ROOT
ATOM      1  N   UNL     1       3.846   6.374  19.524  0.00  0.00    +0.000 N 
ATOM      2  H   UNL     1       4.153   5.904  20.373  0.00  0.00    +0.000 HD
ENDROOT
BRANCH   1   3
ATOM      3  C   UNL     1       4.565   5.980  18.397  0.00  0.00    +0.000 A 
ATOM      4  C   UNL     1       4.250   6.408  17.100  0.00  0.00    +0.000 A 
ATOM      5  C   UNL     1       5.042   6.043  16.004  0.00  0.00    +0.000 A 
ATOM      6  C   UNL     1       6.188   5.264  16.186  0.00  0.00    +0.000 A 
ATOM      7  C   UNL     1       6.535   4.858  17.479  0.00  0.00    +0.000 A 
ATOM      8  C   UNL     1       5.735   5.225  18.568  0.00  0.00    +0.000 A 
BRANCH   6   9
ATOM      9  C   UNL     1       6.954   4.859  14.981  0.00  0.00    +0.000 C 
ATOM     10  O   UNL     1       7.926   5.468  14.567  0.00  0.00    +0.000 OA
BRANCH   9  11
ATOM     11  O   UNL     1       6.352   3.804  14.376  0.00  0.00    +0.000 OA
BRANCH  11  12
ATOM     12  C   UNL     1       6.450   3.786  12.947  0.00  0.00    +0.000 C 
ATOM     13  C   UNL     1       5.097   3.378  12.393  0.00  0.00    +0.000 C 
ENDBRANCH  11  12
ENDBRANCH   9  11
ENDBRANCH   6   9
ENDBRANCH   1   3
BRANCH   1  14
ATOM     14  C   UNL     1       2.393   6.557  19.481  0.00  0.00    +0.000 C 
ATOM     15  C   UNL     1       2.033   7.640  20.501  0.00  0.00    +0.000 C 
BRANCH  14  16
ATOM     16  C   UNL     1       1.698   5.214  19.781  0.00  0.00    +0.000 C 
BRANCH  16  17
ATOM     17  C   UNL     1       2.062   4.684  21.165  0.00  0.00    +0.000 C 
BRANCH  17  18
ATOM     18  C   UNL     1       1.576   3.256  21.385  0.00  0.00    +0.000 C 
BRANCH  18  19
ATOM     19  C   UNL     1       2.783   2.330  21.537  0.00  0.00    +0.000 C 
BRANCH  19  20
ATOM     20  C   UNL     1       3.935   2.786  20.654  0.00  0.00    +0.000 C 
BRANCH  20  21
ATOM     21  C   UNL     1       4.487   1.614  19.847  0.00  0.00    +0.000 C 
BRANCH  21  22
ATOM     22  C   UNL     1       3.576   1.304  18.666  0.00  0.00    +0.000 C 
BRANCH  22  23
ATOM     23  C   UNL     1       3.723   2.356  17.573  0.00  0.00    +0.000 C 
BRANCH  23  25
ATOM     24  C   UNL     1       1.267   2.405  18.089  0.00  0.00    +0.000 C 
ATOM     25  C   UNL     1       2.403   3.082  17.339  0.00  0.00    +0.000 C 
ENDBRANCH  23  25
ENDBRANCH  22  23
ENDBRANCH  21  22
ENDBRANCH  20  21
ENDBRANCH  19  20
ENDBRANCH  18  19
ENDBRANCH  17  18
ENDBRANCH  16  17
ENDBRANCH  14  16
ENDBRANCH   1  14
TORSDOF 14
ENDMDL
MODEL 4
REMARK VINA RESULT:      -6.1      4.425      8.123
REMARK  Name = 
REMARK  17 active torsions:
REMARK  status: ('A' for Active; 'I' for Inactive)
REMARK    1  A    between atoms: C_1  and  C_2
REMARK    2  A    between atoms: C_2  and  C_3
REMARK    3  A    between atoms: C_3  and  C_4
REMARK    4  A    between atoms: C_4  and  C_5
REMARK    5  A    between atoms: C_5  and  C_6
REMARK    6  A    between atoms: C_6  and  C_7
REMARK    7  A    between atoms: C_7  and  C_8
REMARK    8  A    between atoms: C_8  and  C_9
REMARK    9  A    between atoms: C_9  and  C_10
REMARK   10  A    between atoms: C_10  and  C_11
REMARK   11  A    between atoms: C_11  and  C_12
REMARK   12  A    between atoms: C_11  and  N_13
REMARK   13  A    between atoms: N_13  and  C_14
REMARK   14  A    between atoms: C_17  and  C_18
REMARK   15  A    between atoms: C_18  and  O_20
REMARK   16  A    between atoms: O_20  and  C_21
REMARK   17  A    between atoms: C_21  and  C_22
REMARK                            x       y       z     vdW  Elec       q    Type
REMARK                         _______ _______ _______ _____ _____    ______ ____
ROOT
ATOM      1  N   UNL     1       2.492   5.619  20.491  0.00  0.00    +0.000 N 
ATOM      2  H   UNL     1       3.441   5.429  20.176  0.00  0.00    +0.000 HD
ENDROOT
BRANCH   1   3
ATOM      3  C   UNL     1       2.035   6.878  20.103  0.00  0.00    +0.000 A 
ATOM      4  C   UNL     1       1.356   7.746  20.968  0.00  0.00    +0.000 A 
ATOM      5  C   UNL     1       0.977   9.030  20.556  0.00  0.00    +0.000 A 
ATOM      6  C   UNL     1       1.296   9.486  19.275  0.00  0.00    +0.000 A 
ATOM      7  C   UNL     1       2.004   8.644  18.410  0.00  0.00    +0.000 A 
ATOM      8  C   UNL     1       2.377   7.361  18.830  0.00  0.00    +0.000 A 
BRANCH   6   9
ATOM      9  C   UNL     1       0.816  10.832  18.875  0.00  0.00    +0.000 C 
ATOM     10  O   UNL     1       1.545  11.697  18.417  0.00  0.00    +0.000 OA
BRANCH   9  11
ATOM     11  O   UNL     1      -0.495  10.975  19.192  0.00  0.00    +0.000 OA
BRANCH  11  12
ATOM     12  C   UNL     1      -1.355  11.297  18.091  0.00  0.00    +0.000 C 
ATOM     13  C   UNL     1      -1.866   9.993  17.505  0.00  0.00    +0.000 C 
ENDBRANCH  11  12
ENDBRANCH   9  11
ENDBRANCH   6   9
ENDBRANCH   1   3
BRANCH   1  14
ATOM     14  C   UNL     1       1.630   4.436  20.418  0.00  0.00    +0.000 C 
ATOM     15  C   UNL     1       2.155   3.420  21.435  0.00  0.00    +0.000 C 
BRANCH  14  16
ATOM     16  C   UNL     1       1.639   3.884  18.979  0.00  0.00    +0.000 C 
BRANCH  16  17
ATOM     17  C   UNL     1       2.315   2.517  18.899  0.00  0.00    +0.000 C 
BRANCH  17  18
ATOM     18  C   UNL     1       3.425   2.479  17.856  0.00  0.00    +0.000 C 
BRANCH  18  19
ATOM     19  C   UNL     1       4.164   3.817  17.855  0.00  0.00    +0.000 C 
BRANCH  19  20
ATOM     20  C   UNL     1       4.405   4.306  16.434  0.00  0.00    +0.000 C 
BRANCH  20  21
ATOM     21  C   UNL     1       5.674   3.680  15.862  0.00  0.00    +0.000 C 
BRANCH  21  22
ATOM     22  C   UNL     1       6.833   4.666  15.932  0.00  0.00    +0.000 C 
BRANCH  22  23
ATOM     23  C   UNL     1       7.527   4.597  17.287  0.00  0.00    +0.000 C 
BRANCH  23  25
ATOM     24  C   UNL     1       7.901   5.795  19.460  0.00  0.00    +0.000 C 
ATOM     25  C   UNL     1       7.377   5.914  18.039  0.00  0.00    +0.000 C 
ENDBRANCH  23  25
ENDBRANCH  22  23
ENDBRANCH  21  22
ENDBRANCH  20  21
ENDBRANCH  19  20
ENDBRANCH  18  19
ENDBRANCH  17  18
ENDBRANCH  16  17
ENDBRANCH  14  16
ENDBRANCH   1  14
TORSDOF 14
ENDMDL
MODEL 5
REMARK VINA RESULT:      -6.1      0.881      1.526
REMARK  Name = 
REMARK  17 active torsions:
REMARK  status: ('A' for Active; 'I' for Inactive)
REMARK    1  A    between atoms: C_1  and  C_2
REMARK    2  A    between atoms: C_2  and  C_3
REMARK    3  A    between atoms: C_3  and  C_4
REMARK    4  A    between atoms: C_4  and  C_5
REMARK    5  A    between atoms: C_5  and  C_6
REMARK    6  A    between atoms: C_6  and  C_7
REMARK    7  A    between atoms: C_7  and  C_8
REMARK    8  A    between atoms: C_8  and  C_9
REMARK    9  A    between atoms: C_9  and  C_10
REMARK   10  A    between atoms: C_10  and  C_11
REMARK   11  A    between atoms: C_11  and  C_12
REMARK   12  A    between atoms: C_11  and  N_13
REMARK   13  A    between atoms: N_13  and  C_14
REMARK   14  A    between atoms: C_17  and  C_18
REMARK   15  A    between atoms: C_18  and  O_20
REMARK   16  A    between atoms: O_20  and  C_21
REMARK   17  A    between atoms: C_21  and  C_22
REMARK                            x       y       z     vdW  Elec       q    Type
REMARK                         _______ _______ _______ _____ _____    ______ ____
ROOT
ATOM      1  N   UNL     1       7.449   5.841  16.175  0.00  0.00    +0.000 N 
ATOM      2  H   UNL     1       7.949   5.234  16.821  0.00  0.00    +0.000 HD
ENDROOT
BRANCH   1   3
ATOM      3  C   UNL     1       6.942   5.156  15.072  0.00  0.00    +0.000 A 
ATOM      4  C   UNL     1       7.584   5.127  13.826  0.00  0.00    +0.000 A 
ATOM      5  C   UNL     1       7.074   4.368  12.765  0.00  0.00    +0.000 A 
ATOM      6  C   UNL     1       5.924   3.595  12.937  0.00  0.00    +0.000 A 
ATOM      7  C   UNL     1       5.290   3.585  14.184  0.00  0.00    +0.000 A 
ATOM      8  C   UNL     1       5.806   4.349  15.238  0.00  0.00    +0.000 A 
BRANCH   6   9
ATOM      9  C   UNL     1       5.397   2.859  11.760  0.00  0.00    +0.000 C 
ATOM     10  O   UNL     1       5.664   1.693  11.522  0.00  0.00    +0.000 OA
BRANCH   9  11
ATOM     11  O   UNL     1       4.687   3.697  10.963  0.00  0.00    +0.000 OA
BRANCH  11  12
ATOM     12  C   UNL     1       3.324   3.316  10.743  0.00  0.00    +0.000 C 
ATOM     13  C   UNL     1       2.808   4.103   9.551  0.00  0.00    +0.000 C 
ENDBRANCH  11  12
ENDBRANCH   9  11
ENDBRANCH   6   9
ENDBRANCH   1   3
BRANCH   1  14
ATOM     14  C   UNL     1       6.666   6.869  16.864  0.00  0.00    +0.000 C 
ATOM     15  C   UNL     1       7.642   7.739  17.660  0.00  0.00    +0.000 C 
BRANCH  14  16
ATOM     16  C   UNL     1       5.614   6.194  17.766  0.00  0.00    +0.000 C 
BRANCH  16  17
ATOM     17  C   UNL     1       4.206   6.708  17.479  0.00  0.00    +0.000 C 
BRANCH  17  18
ATOM     18  C   UNL     1       3.392   6.911  18.752  0.00  0.00    +0.000 C 
BRANCH  18  19
ATOM     19  C   UNL     1       2.477   5.705  18.964  0.00  0.00    +0.000 C 
BRANCH  19  20
ATOM     20  C   UNL     1       2.032   5.116  17.633  0.00  0.00    +0.000 C 
BRANCH  20  21
ATOM     21  C   UNL     1       2.302   3.615  17.596  0.00  0.00    +0.000 C 
BRANCH  21  22
ATOM     22  C   UNL     1       1.295   2.870  18.463  0.00  0.00    +0.000 C 
BRANCH  22  23
ATOM     23  C   UNL     1       1.985   1.812  19.316  0.00  0.00    +0.000 C 
BRANCH  23  25
ATOM     24  C   UNL     1       1.495   2.792  21.574  0.00  0.00    +0.000 C 
ATOM     25  C   UNL     1       2.581   2.435  20.573  0.00  0.00    +0.000 C 
ENDBRANCH  23  25
ENDBRANCH  22  23
ENDBRANCH  21  22
ENDBRANCH  20  21
ENDBRANCH  19  20
ENDBRANCH  18  19
ENDBRANCH  17  18
ENDBRANCH  16  17
ENDBRANCH  14  16
ENDBRANCH   1  14
TORSDOF 14
ENDMDL
MODEL 6
REMARK VINA RESULT:      -6.0      3.543      5.879
REMARK  Name = 
REMARK  17 active torsions:
REMARK  status: ('A' for Active; 'I' for Inactive)
REMARK    1  A    between atoms: C_1  and  C_2
REMARK    2  A    between atoms: C_2  and  C_3
REMARK    3  A    between atoms: C_3  and  C_4
REMARK    4  A    between atoms: C_4  and  C_5
REMARK    5  A    between atoms: C_5  and  C_6
REMARK    6  A    between atoms: C_6  and  C_7
REMARK    7  A    between atoms: C_7  and  C_8
REMARK    8  A    between atoms: C_8  and  C_9
REMARK    9  A    between atoms: C_9  and  C_10
REMARK   10  A    between atoms: C_10  and  C_11
REMARK   11  A    between atoms: C_11  and  C_12
REMARK   12  A    between atoms: C_11  and  N_13
REMARK   13  A    between atoms: N_13  and  C_14
REMARK   14  A    between atoms: C_17  and  C_18
REMARK   15  A    between atoms: C_18  and  O_20
REMARK   16  A    between atoms: O_20  and  C_21
REMARK   17  A    between atoms: C_21  and  C_22
REMARK                            x       y       z     vdW  Elec       q    Type
REMARK                         _______ _______ _______ _____ _____    ______ ____
ROOT
ATOM      1  N   UNL     1       3.194   3.321  19.885  0.00  0.00    +0.000 N 
ATOM      2  H   UNL     1       3.135   2.314  19.753  0.00  0.00    +0.000 HD
ENDROOT
BRANCH   1   3
ATOM      3  C   UNL     1       4.021   3.942  18.951  0.00  0.00    +0.000 A 
ATOM      4  C   UNL     1       5.058   4.814  19.307  0.00  0.00    +0.000 A 
ATOM      5  C   UNL     1       5.911   5.361  18.340  0.00  0.00    +0.000 A 
ATOM      6  C   UNL     1       5.762   5.022  16.993  0.00  0.00    +0.000 A 
ATOM      7  C   UNL     1       4.754   4.126  16.624  0.00  0.00    +0.000 A 
ATOM      8  C   UNL     1       3.905   3.586  17.598  0.00  0.00    +0.000 A 
BRANCH   6   9
ATOM      9  C   UNL     1       6.657   5.679  16.007  0.00  0.00    +0.000 C 
ATOM     10  O   UNL     1       7.621   6.357  16.320  0.00  0.00    +0.000 OA
BRANCH   9  11
ATOM     11  O   UNL     1       6.179   5.499  14.749  0.00  0.00    +0.000 OA
BRANCH  11  12
ATOM     12  C   UNL     1       7.044   4.771  13.869  0.00  0.00    +0.000 C 
ATOM     13  C   UNL     1       6.208   3.722  13.159  0.00  0.00    +0.000 C 
ENDBRANCH  11  12
ENDBRANCH   9  11
ENDBRANCH   6   9
ENDBRANCH   1   3
BRANCH   1  14
ATOM     14  C   UNL     1       1.911   3.909  20.282  0.00  0.00    +0.000 C 
ATOM     15  C   UNL     1       0.807   2.936  19.863  0.00  0.00    +0.000 C 
BRANCH  14  16
ATOM     16  C   UNL     1       1.756   5.293  19.621  0.00  0.00    +0.000 C 
BRANCH  16  17
ATOM     17  C   UNL     1       1.637   6.407  20.658  0.00  0.00    +0.000 C 
BRANCH  17  18
ATOM     18  C   UNL     1       2.002   7.772  20.088  0.00  0.00    +0.000 C 
BRANCH  18  19
ATOM     19  C   UNL     1       2.268   7.638  18.589  0.00  0.00    +0.000 C 
BRANCH  19  20
ATOM     20  C   UNL     1       1.635   8.786  17.817  0.00  0.00    +0.000 C 
BRANCH  20  21
ATOM     21  C   UNL     1       1.444   9.999  18.724  0.00  0.00    +0.000 C 
BRANCH  21  22
ATOM     22  C   UNL     1       0.023  10.536  18.604  0.00  0.00    +0.000 C 
BRANCH  22  23
ATOM     23  C   UNL     1      -0.803   9.685  17.646  0.00  0.00    +0.000 C 
BRANCH  23  25
ATOM     24  C   UNL     1      -2.398  11.500  18.328  0.00  0.00    +0.000 C 
ATOM     25  C   UNL     1      -2.242  10.183  17.586  0.00  0.00    +0.000 C 
ENDBRANCH  23  25
ENDBRANCH  22  23
ENDBRANCH  21  22
ENDBRANCH  20  21
ENDBRANCH  19  20
ENDBRANCH  18  19
ENDBRANCH  17  18
ENDBRANCH  16  17
ENDBRANCH  14  16
ENDBRANCH   1  14
TORSDOF 14
ENDMDL
MODEL 7
REMARK VINA RESULT:      -6.0      4.481      8.000
REMARK  Name = 
REMARK  17 active torsions:
REMARK  status: ('A' for Active; 'I' for Inactive)
REMARK    1  A    between atoms: C_1  and  C_2
REMARK    2  A    between atoms: C_2  and  C_3
REMARK    3  A    between atoms: C_3  and  C_4
REMARK    4  A    between atoms: C_4  and  C_5
REMARK    5  A    between atoms: C_5  and  C_6
REMARK    6  A    between atoms: C_6  and  C_7
REMARK    7  A    between atoms: C_7  and  C_8
REMARK    8  A    between atoms: C_8  and  C_9
REMARK    9  A    between atoms: C_9  and  C_10
REMARK   10  A    between atoms: C_10  and  C_11
REMARK   11  A    between atoms: C_11  and  C_12
REMARK   12  A    between atoms: C_11  and  N_13
REMARK   13  A    between atoms: N_13  and  C_14
REMARK   14  A    between atoms: C_17  and  C_18
REMARK   15  A    between atoms: C_18  and  O_20
REMARK   16  A    between atoms: O_20  and  C_21
REMARK   17  A    between atoms: C_21  and  C_22
REMARK                            x       y       z     vdW  Elec       q    Type
REMARK                         _______ _______ _______ _____ _____    ______ ____
ROOT
ATOM      1  N   UNL     1       2.639   5.559  20.577  0.00  0.00    +0.000 N 
ATOM      2  H   UNL     1       3.626   5.623  20.818  0.00  0.00    +0.000 HD
ENDROOT
BRANCH   1   3
ATOM      3  C   UNL     1       2.101   6.778  20.170  0.00  0.00    +0.000 A 
ATOM      4  C   UNL     1       1.396   7.630  21.030  0.00  0.00    +0.000 A 
ATOM      5  C   UNL     1       0.933   8.879  20.596  0.00  0.00    +0.000 A 
ATOM      6  C   UNL     1       1.193   9.317  19.295  0.00  0.00    +0.000 A 
ATOM      7  C   UNL     1       1.924   8.492  18.433  0.00  0.00    +0.000 A 
ATOM      8  C   UNL     1       2.381   7.245  18.876  0.00  0.00    +0.000 A 
BRANCH   6   9
ATOM      9  C   UNL     1       0.626  10.622  18.873  0.00  0.00    +0.000 C 
ATOM     10  O   UNL     1       1.309  11.593  18.595  0.00  0.00    +0.000 OA
BRANCH   9  11
ATOM     11  O   UNL     1      -0.728  10.592  18.952  0.00  0.00    +0.000 OA
BRANCH  11  12
ATOM     12  C   UNL     1      -1.412  10.654  17.694  0.00  0.00    +0.000 C 
ATOM     13  C   UNL     1      -2.678   9.824  17.813  0.00  0.00    +0.000 C 
ENDBRANCH  11  12
ENDBRANCH   9  11
ENDBRANCH   6   9
ENDBRANCH   1   3
BRANCH   1  14
ATOM     14  C   UNL     1       2.311   4.308  19.887  0.00  0.00    +0.000 C 
ATOM     15  C   UNL     1       1.434   3.478  20.827  0.00  0.00    +0.000 C 
BRANCH  14  16
ATOM     16  C   UNL     1       3.613   3.578  19.503  0.00  0.00    +0.000 C 
BRANCH  16  17
ATOM     17  C   UNL     1       3.603   3.129  18.044  0.00  0.00    +0.000 C 
BRANCH  17  18
ATOM     18  C   UNL     1       3.748   4.297  17.076  0.00  0.00    +0.000 C 
BRANCH  18  19
ATOM     19  C   UNL     1       4.895   4.010  16.108  0.00  0.00    +0.000 C 
BRANCH  19  20
ATOM     20  C   UNL     1       5.505   5.302  15.586  0.00  0.00    +0.000 C 
BRANCH  20  21
ATOM     21  C   UNL     1       5.027   6.492  16.413  0.00  0.00    +0.000 C 
BRANCH  21  22
ATOM     22  C   UNL     1       6.202   7.157  17.119  0.00  0.00    +0.000 C 
BRANCH  22  23
ATOM     23  C   UNL     1       7.257   6.129  17.510  0.00  0.00    +0.000 C 
BRANCH  23  25
ATOM     24  C   UNL     1       8.123   5.647  19.816  0.00  0.00    +0.000 C 
ATOM     25  C   UNL     1       6.941   5.519  18.871  0.00  0.00    +0.000 C 
ENDBRANCH  23  25
ENDBRANCH  22  23
ENDBRANCH  21  22
ENDBRANCH  20  21
ENDBRANCH  19  20
ENDBRANCH  18  19
ENDBRANCH  17  18
ENDBRANCH  16  17
ENDBRANCH  14  16
ENDBRANCH   1  14
TORSDOF 14
ENDMDL
MODEL 8
REMARK VINA RESULT:      -5.9      0.952      1.917
REMARK  Name = 
REMARK  17 active torsions:
REMARK  status: ('A' for Active; 'I' for Inactive)
REMARK    1  A    between atoms: C_1  and  C_2
REMARK    2  A    between atoms: C_2  and  C_3
REMARK    3  A    between atoms: C_3  and  C_4
REMARK    4  A    between atoms: C_4  and  C_5
REMARK    5  A    between atoms: C_5  and  C_6
REMARK    6  A    between atoms: C_6  and  C_7
REMARK    7  A    between atoms: C_7  and  C_8
REMARK    8  A    between atoms: C_8  and  C_9
REMARK    9  A    between atoms: C_9  and  C_10
REMARK   10  A    between atoms: C_10  and  C_11
REMARK   11  A    between atoms: C_11  and  C_12
REMARK   12  A    between atoms: C_11  and  N_13
REMARK   13  A    between atoms: N_13  and  C_14
REMARK   14  A    between atoms: C_17  and  C_18
REMARK   15  A    between atoms: C_18  and  O_20
REMARK   16  A    between atoms: O_20  and  C_21
REMARK   17  A    between atoms: C_21  and  C_22
REMARK                            x       y       z     vdW  Elec       q    Type
REMARK                         _______ _______ _______ _____ _____    ______ ____
ROOT
ATOM      1  N   UNL     1       7.703   5.511  16.440  0.00  0.00    +0.000 N 
ATOM      2  H   UNL     1       8.388   4.962  16.955  0.00  0.00    +0.000 HD
ENDROOT
BRANCH   1   3
ATOM      3  C   UNL     1       7.161   4.822  15.357  0.00  0.00    +0.000 A 
ATOM      4  C   UNL     1       6.126   3.885  15.486  0.00  0.00    +0.000 A 
ATOM      5  C   UNL     1       5.563   3.267  14.361  0.00  0.00    +0.000 A 
ATOM      6  C   UNL     1       6.004   3.596  13.078  0.00  0.00    +0.000 A 
ATOM      7  C   UNL     1       7.013   4.555  12.930  0.00  0.00    +0.000 A 
ATOM      8  C   UNL     1       7.571   5.165  14.059  0.00  0.00    +0.000 A 
BRANCH   6   9
ATOM      9  C   UNL     1       5.412   2.866  11.929  0.00  0.00    +0.000 C 
ATOM     10  O   UNL     1       6.025   2.046  11.266  0.00  0.00    +0.000 OA
BRANCH   9  11
ATOM     11  O   UNL     1       4.159   3.322  11.680  0.00  0.00    +0.000 OA
BRANCH  11  12
ATOM     12  C   UNL     1       4.035   4.153  10.518  0.00  0.00    +0.000 C 
ATOM     13  C   UNL     1       2.895   3.607   9.677  0.00  0.00    +0.000 C 
ENDBRANCH  11  12
ENDBRANCH   9  11
ENDBRANCH   6   9
ENDBRANCH   1   3
BRANCH   1  14
ATOM     14  C   UNL     1       6.869   6.334  17.320  0.00  0.00    +0.000 C 
ATOM     15  C   UNL     1       7.481   7.736  17.359  0.00  0.00    +0.000 C 
BRANCH  14  16
ATOM     16  C   UNL     1       6.803   5.684  18.716  0.00  0.00    +0.000 C 
BRANCH  16  17
ATOM     17  C   UNL     1       5.363   5.476  19.177  0.00  0.00    +0.000 C 
BRANCH  17  18
ATOM     18  C   UNL     1       4.727   4.239  18.555  0.00  0.00    +0.000 C 
BRANCH  18  19
ATOM     19  C   UNL     1       3.543   4.662  17.687  0.00  0.00    +0.000 C 
BRANCH  19  20
ATOM     20  C   UNL     1       2.832   3.449  17.104  0.00  0.00    +0.000 C 
BRANCH  20  21
ATOM     21  C   UNL     1       2.091   2.687  18.199  0.00  0.00    +0.000 C 
BRANCH  21  22
ATOM     22  C   UNL     1       0.808   3.414  18.580  0.00  0.00    +0.000 C 
BRANCH  22  23
ATOM     23  C   UNL     1       0.703   3.581  20.091  0.00  0.00    +0.000 C 
BRANCH  23  25
ATOM     24  C   UNL     1       1.939   2.516  21.998  0.00  0.00    +0.000 C 
ATOM     25  C   UNL     1       2.061   3.379  20.753  0.00  0.00    +0.000 C 
ENDBRANCH  23  25
ENDBRANCH  22  23
ENDBRANCH  21  22
ENDBRANCH  20  21
ENDBRANCH  19  20
ENDBRANCH  18  19
ENDBRANCH  17  18
ENDBRANCH  16  17
ENDBRANCH  14  16
ENDBRANCH   1  14
TORSDOF 14
ENDMDL
MODEL 9
REMARK VINA RESULT:      -5.8      3.647      5.732
REMARK  Name = 
REMARK  17 active torsions:
REMARK  status: ('A' for Active; 'I' for Inactive)
REMARK    1  A    between atoms: C_1  and  C_2
REMARK    2  A    between atoms: C_2  and  C_3
REMARK    3  A    between atoms: C_3  and  C_4
REMARK    4  A    between atoms: C_4  and  C_5
REMARK    5  A    between atoms: C_5  and  C_6
REMARK    6  A    between atoms: C_6  and  C_7
REMARK    7  A    between atoms: C_7  and  C_8
REMARK    8  A    between atoms: C_8  and  C_9
REMARK    9  A    between atoms: C_9  and  C_10
REMARK   10  A    between atoms: C_10  and  C_11
REMARK   11  A    between atoms: C_11  and  C_12
REMARK   12  A    between atoms: C_11  and  N_13
REMARK   13  A    between atoms: N_13  and  C_14
REMARK   14  A    between atoms: C_17  and  C_18
REMARK   15  A    between atoms: C_18  and  O_20
REMARK   16  A    between atoms: O_20  and  C_21
REMARK   17  A    between atoms: C_21  and  C_22
REMARK                            x       y       z     vdW  Elec       q    Type
REMARK                         _______ _______ _______ _____ _____    ______ ____
ROOT
ATOM      1  N   UNL     1       3.367   3.560  20.005  0.00  0.00    +0.000 N 
ATOM      2  H   UNL     1       3.076   2.585  19.960  0.00  0.00    +0.000 HD
ENDROOT
BRANCH   1   3
ATOM      3  C   UNL     1       4.230   3.916  18.971  0.00  0.00    +0.000 A 
ATOM      4  C   UNL     1       5.433   4.604  19.180  0.00  0.00    +0.000 A 
ATOM      5  C   UNL     1       6.304   4.881  18.118  0.00  0.00    +0.000 A 
ATOM      6  C   UNL     1       6.004   4.446  16.825  0.00  0.00    +0.000 A 
ATOM      7  C   UNL     1       4.824   3.727  16.606  0.00  0.00    +0.000 A 
ATOM      8  C   UNL     1       3.958   3.458  17.673  0.00  0.00    +0.000 A 
BRANCH   6   9
ATOM      9  C   UNL     1       6.936   4.820  15.731  0.00  0.00    +0.000 C 
ATOM     10  O   UNL     1       7.542   5.877  15.697  0.00  0.00    +0.000 OA
BRANCH   9  11
ATOM     11  O   UNL     1       6.918   3.874  14.758  0.00  0.00    +0.000 OA
BRANCH  11  12
ATOM     12  C   UNL     1       6.646   4.365  13.439  0.00  0.00    +0.000 C 
ATOM     13  C   UNL     1       5.541   3.511  12.844  0.00  0.00    +0.000 C 
ENDBRANCH  11  12
ENDBRANCH   9  11
ENDBRANCH   6   9
ENDBRANCH   1   3
BRANCH   1  14
ATOM     14  C   UNL     1       2.285   4.447  20.440  0.00  0.00    +0.000 C 
ATOM     15  C   UNL     1       1.055   3.577  20.714  0.00  0.00    +0.000 C 
BRANCH  14  16
ATOM     16  C   UNL     1       2.023   5.507  19.352  0.00  0.00    +0.000 C 
BRANCH  16  17
ATOM     17  C   UNL     1       2.194   6.925  19.888  0.00  0.00    +0.000 C 
BRANCH  17  18
ATOM     18  C   UNL     1       1.406   7.160  21.171  0.00  0.00    +0.000 C 
BRANCH  18  19
ATOM     19  C   UNL     1       1.330   8.660  21.451  0.00  0.00    +0.000 C 
BRANCH  19  20
ATOM     20  C   UNL     1       0.168   9.297  20.702  0.00  0.00    +0.000 C 
BRANCH  20  21
ATOM     21  C   UNL     1       0.676  10.345  19.717  0.00  0.00    +0.000 C 
BRANCH  21  22
ATOM     22  C   UNL     1       0.170  10.045  18.312  0.00  0.00    +0.000 C 
BRANCH  22  23
ATOM     23  C   UNL     1      -1.237  10.595  18.109  0.00  0.00    +0.000 C 
BRANCH  23  25
ATOM     24  C   UNL     1      -2.662  10.632  16.044  0.00  0.00    +0.000 C 
ATOM     25  C   UNL     1      -2.005   9.754  17.095  0.00  0.00    +0.000 C 
ENDBRANCH  23  25
ENDBRANCH  22  23
ENDBRANCH  21  22
ENDBRANCH  20  21
ENDBRANCH  19  20
ENDBRANCH  18  19
ENDBRANCH  17  18
ENDBRANCH  16  17
ENDBRANCH  14  16
ENDBRANCH   1  14
TORSDOF 14
ENDMDL
