MODEL 1
REMARK VINA RESULT:      -7.2      0.000      0.000
REMARK  Name = 
REMARK  3 active torsions:
REMARK  status: ('A' for Active; 'I' for Inactive)
REMARK    1  A    between atoms: C_4  and  C_5
REMARK    2  A    between atoms: N_14  and  C_15
REMARK    3  A    between atoms: C_15  and  C_16
REMARK                            x       y       z     vdW  Elec       q    Type
REMARK                         _______ _______ _______ _____ _____    ______ ____
ROOT
ATOM      1  C   UNL     1       6.117   4.257  14.139  0.00  0.00    +0.000 A 
ATOM      2  N   UNL     1       7.189   5.052  14.039  0.00  0.00    +0.000 NA
ATOM      3  C   UNL     1       7.548   5.710  15.155  0.00  0.00    +0.000 A 
ATOM      4  C   UNL     1       6.896   5.576  16.366  0.00  0.00    +0.000 A 
ATOM      5  C   UNL     1       5.837   4.686  16.387  0.00  0.00    +0.000 A 
ATOM      6  N   UNL     1       5.415   4.062  15.272  0.00  0.00    +0.000 NA
ATOM      7  C   UNL     1       5.086   4.409  17.683  0.00  0.00    +0.000 C 
ATOM      8  C   UNL     1       3.691   5.061  17.642  0.00  0.00    +0.000 C 
ATOM      9  C   UNL     1       2.739   3.892  17.420  0.00  0.00    +0.000 C 
ATOM     10  N   UNL     1       3.338   2.752  18.128  0.00  0.00    +0.000 NA
ATOM     11  C   UNL     1       4.786   2.898  17.873  0.00  0.00    +0.000 C 
ATOM     12  C   UNL     1       5.918   4.938  18.868  0.00  0.00    +0.000 C 
ATOM     13  O   UNL     1       6.356   6.276  18.618  0.00  0.00    +0.000 OA
ATOM     14  C   UNL     1       7.349   6.305  17.585  0.00  0.00    +0.000 C 
ENDROOT
BRANCH   1  18
ATOM     15  C   UNL     1       4.780   2.164  10.654  0.00  0.00    +0.000 A 
ATOM     16  C   UNL     1       6.005   1.840  11.226  0.00  0.00    +0.000 A 
ATOM     17  C   UNL     1       6.456   2.541  12.345  0.00  0.00    +0.000 A 
ATOM     18  C   UNL     1       5.667   3.540  12.945  0.00  0.00    +0.000 A 
ATOM     19  C   UNL     1       4.420   3.825  12.367  0.00  0.00    +0.000 A 
ATOM     20  C   UNL     1       3.989   3.161  11.221  0.00  0.00    +0.000 A 
ENDBRANCH   1  18
BRANCH  10  21
ATOM     21  C   UNL     1       3.045   2.702  19.560  0.00  0.00    +0.000 C 
BRANCH  21  22
ATOM     22  C   UNL     1       1.575   2.879  19.811  0.00  0.00    +0.000 C 
ATOM     23  C   UNL     1       1.044   2.847  21.223  0.00  0.00    +0.000 C 
ATOM     24  C   UNL     1       1.055   4.139  20.459  0.00  0.00    +0.000 C 
ENDBRANCH  21  22
ENDBRANCH  10  21
TORSDOF 3
ENDMDL
MODEL 2
REMARK VINA RESULT:      -7.1      1.147      1.686
REMARK  Name = 
REMARK  3 active torsions:
REMARK  status: ('A' for Active; 'I' for Inactive)
REMARK    1  A    between atoms: C_4  and  C_5
REMARK    2  A    between atoms: N_14  and  C_15
REMARK    3  A    between atoms: C_15  and  C_16
REMARK                            x       y       z     vdW  Elec       q    Type
REMARK                         _______ _______ _______ _____ _____    ______ ____
ROOT
ATOM      1  C   UNL     1       6.181   4.324  15.184  0.00  0.00    +0.000 A 
ATOM      2  N   UNL     1       7.296   4.934  15.603  0.00  0.00    +0.000 NA
ATOM      3  C   UNL     1       7.338   5.268  16.904  0.00  0.00    +0.000 A 
ATOM      4  C   UNL     1       6.323   4.987  17.800  0.00  0.00    +0.000 A 
ATOM      5  C   UNL     1       5.237   4.301  17.287  0.00  0.00    +0.000 A 
ATOM      6  N   UNL     1       5.139   4.009  15.977  0.00  0.00    +0.000 NA
ATOM      7  C   UNL     1       4.090   3.880  18.196  0.00  0.00    +0.000 C 
ATOM      8  C   UNL     1       2.846   4.748  17.923  0.00  0.00    +0.000 C 
ATOM      9  C   UNL     1       1.912   3.827  17.145  0.00  0.00    +0.000 C 
ATOM     10  N   UNL     1       2.148   2.479  17.681  0.00  0.00    +0.000 NA
ATOM     11  C   UNL     1       3.609   2.434  17.898  0.00  0.00    +0.000 C 
ATOM     12  C   UNL     1       4.543   3.997  19.665  0.00  0.00    +0.000 C 
ATOM     13  O   UNL     1       5.159   5.266  19.902  0.00  0.00    +0.000 OA
ATOM     14  C   UNL     1       6.428   5.351  19.242  0.00  0.00    +0.000 C 
ENDROOT
BRANCH   1  18
ATOM     15  C   UNL     1       5.878   3.289  11.042  0.00  0.00    +0.000 A 
ATOM     16  C   UNL     1       4.753   3.214  11.856  0.00  0.00    +0.000 A 
ATOM     17  C   UNL     1       4.857   3.523  13.213  0.00  0.00    +0.000 A 
ATOM     18  C   UNL     1       6.072   3.965  13.769  0.00  0.00    +0.000 A 
ATOM     19  C   UNL     1       7.184   4.063  12.918  0.00  0.00    +0.000 A 
ATOM     20  C   UNL     1       7.096   3.708  11.574  0.00  0.00    +0.000 A 
ENDBRANCH   1  18
BRANCH  10  21
ATOM     21  C   UNL     1       1.409   2.171  18.905  0.00  0.00    +0.000 C 
BRANCH  21  22
ATOM     22  C   UNL     1       1.951   2.954  20.066  0.00  0.00    +0.000 C 
ATOM     23  C   UNL     1       1.062   3.931  20.794  0.00  0.00    +0.000 C 
ATOM     24  C   UNL     1       1.484   2.661  21.472  0.00  0.00    +0.000 C 
ENDBRANCH  21  22
ENDBRANCH  10  21
TORSDOF 3
ENDMDL
MODEL 3
REMARK VINA RESULT:      -7.0      1.187      1.504
REMARK  Name = 
REMARK  3 active torsions:
REMARK  status: ('A' for Active; 'I' for Inactive)
REMARK    1  A    between atoms: C_4  and  C_5
REMARK    2  A    between atoms: N_14  and  C_15
REMARK    3  A    between atoms: C_15  and  C_16
REMARK                            x       y       z     vdW  Elec       q    Type
REMARK                         _______ _______ _______ _____ _____    ______ ____
ROOT
ATOM      1  C   UNL     1       6.121   4.325  15.236  0.00  0.00    +0.000 A 
ATOM      2  N   UNL     1       7.291   4.823  15.652  0.00  0.00    +0.000 NA
ATOM      3  C   UNL     1       7.362   5.173  16.948  0.00  0.00    +0.000 A 
ATOM      4  C   UNL     1       6.320   5.013  17.842  0.00  0.00    +0.000 A 
ATOM      5  C   UNL     1       5.171   4.434  17.335  0.00  0.00    +0.000 A 
ATOM      6  N   UNL     1       5.049   4.132  16.029  0.00  0.00    +0.000 NA
ATOM      7  C   UNL     1       3.983   4.149  18.244  0.00  0.00    +0.000 C 
ATOM      8  C   UNL     1       2.836   5.135  17.950  0.00  0.00    +0.000 C 
ATOM      9  C   UNL     1       1.816   4.303  17.182  0.00  0.00    +0.000 C 
ATOM     10  N   UNL     1       1.909   2.947  17.740  0.00  0.00    +0.000 NA
ATOM     11  C   UNL     1       3.356   2.756  17.967  0.00  0.00    +0.000 C 
ATOM     12  C   UNL     1       4.440   4.243  19.713  0.00  0.00    +0.000 C 
ATOM     13  O   UNL     1       5.182   5.446  19.933  0.00  0.00    +0.000 OA
ATOM     14  C   UNL     1       6.456   5.388  19.279  0.00  0.00    +0.000 C 
ENDROOT
BRANCH   1  18
ATOM     15  C   UNL     1       5.697   3.232  11.120  0.00  0.00    +0.000 A 
ATOM     16  C   UNL     1       6.945   3.600  11.612  0.00  0.00    +0.000 A 
ATOM     17  C   UNL     1       7.079   3.984  12.947  0.00  0.00    +0.000 A 
ATOM     18  C   UNL     1       5.981   3.956  13.827  0.00  0.00    +0.000 A 
ATOM     19  C   UNL     1       4.740   3.550  13.313  0.00  0.00    +0.000 A 
ATOM     20  C   UNL     1       4.592   3.213  11.969  0.00  0.00    +0.000 A 
ENDBRANCH   1  18
BRANCH  10  21
ATOM     21  C   UNL     1       1.138   2.738  18.965  0.00  0.00    +0.000 C 
BRANCH  21  22
ATOM     22  C   UNL     1       2.022   2.831  20.175  0.00  0.00    +0.000 C 
ATOM     23  C   UNL     1       1.723   3.850  21.246  0.00  0.00    +0.000 C 
ATOM     24  C   UNL     1       1.517   2.390  21.528  0.00  0.00    +0.000 C 
ENDBRANCH  21  22
ENDBRANCH  10  21
TORSDOF 3
ENDMDL
MODEL 4
REMARK VINA RESULT:      -6.9      3.344      7.881
REMARK  Name = 
REMARK  3 active torsions:
REMARK  status: ('A' for Active; 'I' for Inactive)
REMARK    1  A    between atoms: C_4  and  C_5
REMARK    2  A    between atoms: N_14  and  C_15
REMARK    3  A    between atoms: C_15  and  C_16
REMARK                            x       y       z     vdW  Elec       q    Type
REMARK                         _______ _______ _______ _____ _____    ______ ____
ROOT
ATOM      1  C   UNL     1       1.969   6.702  20.325  0.00  0.00    +0.000 A 
ATOM      2  N   UNL     1       1.431   5.814  21.170  0.00  0.00    +0.000 NA
ATOM      3  C   UNL     1       1.846   4.543  21.039  0.00  0.00    +0.000 A 
ATOM      4  C   UNL     1       2.795   4.137  20.121  0.00  0.00    +0.000 A 
ATOM      5  C   UNL     1       3.339   5.135  19.332  0.00  0.00    +0.000 A 
ATOM      6  N   UNL     1       2.899   6.405  19.396  0.00  0.00    +0.000 NA
ATOM      7  C   UNL     1       4.441   4.815  18.332  0.00  0.00    +0.000 C 
ATOM      8  C   UNL     1       3.891   4.875  16.893  0.00  0.00    +0.000 C 
ATOM      9  C   UNL     1       4.446   6.181  16.336  0.00  0.00    +0.000 C 
ATOM     10  N   UNL     1       5.768   6.347  16.956  0.00  0.00    +0.000 NA
ATOM     11  C   UNL     1       5.569   5.881  18.345  0.00  0.00    +0.000 C 
ATOM     12  C   UNL     1       5.021   3.423  18.652  0.00  0.00    +0.000 C 
ATOM     13  O   UNL     1       3.972   2.467  18.824  0.00  0.00    +0.000 OA
ATOM     14  C   UNL     1       3.245   2.718  20.034  0.00  0.00    +0.000 C 
ENDROOT
BRANCH   1  18
ATOM     15  C   UNL     1       0.674  10.773  20.575  0.00  0.00    +0.000 A 
ATOM     16  C   UNL     1       1.019  10.234  19.342  0.00  0.00    +0.000 A 
ATOM     17  C   UNL     1       1.469   8.915  19.262  0.00  0.00    +0.000 A 
ATOM     18  C   UNL     1       1.530   8.096  20.405  0.00  0.00    +0.000 A 
ATOM     19  C   UNL     1       1.146   8.656  21.633  0.00  0.00    +0.000 A 
ATOM     20  C   UNL     1       0.743   9.986  21.724  0.00  0.00    +0.000 A 
ENDBRANCH   1  18
BRANCH  10  21
ATOM     21  C   UNL     1       6.849   5.620  16.292  0.00  0.00    +0.000 C 
BRANCH  21  22
ATOM     22  C   UNL     1       6.498   5.333  14.860  0.00  0.00    +0.000 C 
ATOM     23  C   UNL     1       7.555   4.813  13.918  0.00  0.00    +0.000 C 
ATOM     24  C   UNL     1       6.438   3.911  14.356  0.00  0.00    +0.000 C 
ENDBRANCH  21  22
ENDBRANCH  10  21
TORSDOF 3
ENDMDL
MODEL 5
REMARK VINA RESULT:      -6.6      9.221     11.686
REMARK  Name = 
REMARK  3 active torsions:
REMARK  status: ('A' for Active; 'I' for Inactive)
REMARK    1  A    between atoms: C_4  and  C_5
REMARK    2  A    between atoms: N_14  and  C_15
REMARK    3  A    between atoms: C_15  and  C_16
REMARK                            x       y       z     vdW  Elec       q    Type
REMARK                         _______ _______ _______ _____ _____    ______ ____
ROOT
ATOM      1  C   UNL     1       0.449  10.192  20.898  0.00  0.00    +0.000 A 
ATOM      2  N   UNL     1      -0.306   9.735  21.905  0.00  0.00    +0.000 NA
ATOM      3  C   UNL     1      -0.887  10.666  22.681  0.00  0.00    +0.000 A 
ATOM      4  C   UNL     1      -0.765  12.025  22.469  0.00  0.00    +0.000 A 
ATOM      5  C   UNL     1      -0.015  12.401  21.369  0.00  0.00    +0.000 A 
ATOM      6  N   UNL     1       0.630  11.495  20.610  0.00  0.00    +0.000 NA
ATOM      7  C   UNL     1       0.133  13.870  20.998  0.00  0.00    +0.000 C 
ATOM      8  C   UNL     1       1.557  14.363  21.323  0.00  0.00    +0.000 C 
ATOM      9  C   UNL     1       2.236  14.463  19.962  0.00  0.00    +0.000 C 
ATOM     10  N   UNL     1       1.181  14.865  19.021  0.00  0.00    +0.000 NA
ATOM     11  C   UNL     1      -0.004  14.105  19.470  0.00  0.00    +0.000 C 
ATOM     12  C   UNL     1      -0.930  14.689  21.759  0.00  0.00    +0.000 C 
ATOM     13  O   UNL     1      -0.936  14.342  23.146  0.00  0.00    +0.000 OA
ATOM     14  C   UNL     1      -1.454  13.020  23.341  0.00  0.00    +0.000 C 
ENDROOT
BRANCH   1  18
ATOM     15  C   UNL     1       2.445   7.344  18.404  0.00  0.00    +0.000 A 
ATOM     16  C   UNL     1       2.021   8.554  17.867  0.00  0.00    +0.000 A 
ATOM     17  C   UNL     1       1.344   9.471  18.671  0.00  0.00    +0.000 A 
ATOM     18  C   UNL     1       1.128   9.220  20.039  0.00  0.00    +0.000 A 
ATOM     19  C   UNL     1       1.595   8.005  20.564  0.00  0.00    +0.000 A 
ATOM     20  C   UNL     1       2.227   7.066  19.752  0.00  0.00    +0.000 A 
ENDBRANCH   1  18
BRANCH  10  21
ATOM     21  C   UNL     1       0.916  16.303  18.980  0.00  0.00    +0.000 C 
BRANCH  21  22
ATOM     22  C   UNL     1      -0.388  16.586  18.292  0.00  0.00    +0.000 C 
ATOM     23  C   UNL     1      -1.283  17.689  18.802  0.00  0.00    +0.000 C 
ATOM     24  C   UNL     1      -0.573  17.851  17.490  0.00  0.00    +0.000 C 
ENDBRANCH  21  22
ENDBRANCH  10  21
TORSDOF 3
ENDMDL
MODEL 6
REMARK VINA RESULT:      -6.5      9.570     13.213
REMARK  Name = 
REMARK  3 active torsions:
REMARK  status: ('A' for Active; 'I' for Inactive)
REMARK    1  A    between atoms: C_4  and  C_5
REMARK    2  A    between atoms: N_14  and  C_15
REMARK    3  A    between atoms: C_15  and  C_16
REMARK                            x       y       z     vdW  Elec       q    Type
REMARK                         _______ _______ _______ _____ _____    ______ ____
ROOT
ATOM      1  C   UNL     1      -5.149  12.080  19.777  0.00  0.00    +0.000 A 
ATOM      2  N   UNL     1      -6.115  11.886  18.870  0.00  0.00    +0.000 NA
ATOM      3  C   UNL     1      -5.711  11.535  17.638  0.00  0.00    +0.000 A 
ATOM      4  C   UNL     1      -4.387  11.342  17.291  0.00  0.00    +0.000 A 
ATOM      5  C   UNL     1      -3.466  11.506  18.310  0.00  0.00    +0.000 A 
ATOM      6  N   UNL     1      -3.834  11.919  19.537  0.00  0.00    +0.000 NA
ATOM      7  C   UNL     1      -1.985  11.254  18.061  0.00  0.00    +0.000 C 
ATOM      8  C   UNL     1      -1.214  12.588  18.027  0.00  0.00    +0.000 C 
ATOM      9  C   UNL     1      -0.475  12.625  19.361  0.00  0.00    +0.000 C 
ATOM     10  N   UNL     1      -0.133  11.229  19.663  0.00  0.00    +0.000 NA
ATOM     11  C   UNL     1      -1.321  10.469  19.224  0.00  0.00    +0.000 C 
ATOM     12  C   UNL     1      -1.823  10.481  16.737  0.00  0.00    +0.000 C 
ATOM     13  O   UNL     1      -2.585  11.098  15.696  0.00  0.00    +0.000 OA
ATOM     14  C   UNL     1      -3.990  10.922  15.917  0.00  0.00    +0.000 C 
ENDROOT
BRANCH   1  18
ATOM     15  C   UNL     1      -6.292  13.292  23.719  0.00  0.00    +0.000 A 
ATOM     16  C   UNL     1      -4.970  13.430  23.311  0.00  0.00    +0.000 A 
ATOM     17  C   UNL     1      -4.590  13.008  22.036  0.00  0.00    +0.000 A 
ATOM     18  C   UNL     1      -5.534  12.493  21.128  0.00  0.00    +0.000 A 
ATOM     19  C   UNL     1      -6.867  12.395  21.554  0.00  0.00    +0.000 A 
ATOM     20  C   UNL     1      -7.241  12.769  22.843  0.00  0.00    +0.000 A 
ENDBRANCH   1  18
BRANCH  10  21
ATOM     21  C   UNL     1       1.087  10.746  19.017  0.00  0.00    +0.000 C 
BRANCH  21  22
ATOM     22  C   UNL     1       0.969   9.288  18.676  0.00  0.00    +0.000 C 
ATOM     23  C   UNL     1       1.953   8.658  17.722  0.00  0.00    +0.000 C 
ATOM     24  C   UNL     1       1.993   8.299  19.179  0.00  0.00    +0.000 C 
ENDBRANCH  21  22
ENDBRANCH  10  21
TORSDOF 3
ENDMDL
MODEL 7
REMARK VINA RESULT:      -6.4      7.987     10.674
REMARK  Name = 
REMARK  3 active torsions:
REMARK  status: ('A' for Active; 'I' for Inactive)
REMARK    1  A    between atoms: C_4  and  C_5
REMARK    2  A    between atoms: N_14  and  C_15
REMARK    3  A    between atoms: C_15  and  C_16
REMARK                            x       y       z     vdW  Elec       q    Type
REMARK                         _______ _______ _______ _____ _____    ______ ____
ROOT
ATOM      1  C   UNL     1       0.959   9.111  20.578  0.00  0.00    +0.000 A 
ATOM      2  N   UNL     1       0.176   8.618  21.546  0.00  0.00    +0.000 NA
ATOM      3  C   UNL     1      -0.489   9.518  22.290  0.00  0.00    +0.000 A 
ATOM      4  C   UNL     1      -0.424  10.883  22.080  0.00  0.00    +0.000 A 
ATOM      5  C   UNL     1       0.362  11.295  21.019  0.00  0.00    +0.000 A 
ATOM      6  N   UNL     1       1.089  10.422  20.297  0.00  0.00    +0.000 NA
ATOM      7  C   UNL     1       0.456  12.770  20.653  0.00  0.00    +0.000 C 
ATOM      8  C   UNL     1       1.835  13.333  21.050  0.00  0.00    +0.000 C 
ATOM      9  C   UNL     1       2.577  13.467  19.725  0.00  0.00    +0.000 C 
ATOM     10  N   UNL     1       1.554  13.816  18.730  0.00  0.00    +0.000 NA
ATOM     11  C   UNL     1       0.387  12.998  19.120  0.00  0.00    +0.000 C 
ATOM     12  C   UNL     1      -0.684  13.535  21.356  0.00  0.00    +0.000 C 
ATOM     13  O   UNL     1      -0.744  13.188  22.742  0.00  0.00    +0.000 OA
ATOM     14  C   UNL     1      -1.205  11.841  22.913  0.00  0.00    +0.000 C 
ENDROOT
BRANCH   1  18
ATOM     15  C   UNL     1       3.217   6.365  18.197  0.00  0.00    +0.000 A 
ATOM     16  C   UNL     1       2.920   7.628  17.698  0.00  0.00    +0.000 A 
ATOM     17  C   UNL     1       2.159   8.514  18.462  0.00  0.00    +0.000 A 
ATOM     18  C   UNL     1       1.728   8.175  19.758  0.00  0.00    +0.000 A 
ATOM     19  C   UNL     1       2.069   6.906  20.250  0.00  0.00    +0.000 A 
ATOM     20  C   UNL     1       2.786   6.000  19.472  0.00  0.00    +0.000 A 
ENDBRANCH   1  18
BRANCH  10  21
ATOM     21  C   UNL     1       1.221  15.239  18.672  0.00  0.00    +0.000 C 
BRANCH  21  22
ATOM     22  C   UNL     1       2.459  16.070  18.498  0.00  0.00    +0.000 C 
ATOM     23  C   UNL     1       3.334  15.871  17.285  0.00  0.00    +0.000 C 
ATOM     24  C   UNL     1       2.526  17.129  17.423  0.00  0.00    +0.000 C 
ENDBRANCH  21  22
ENDBRANCH  10  21
TORSDOF 3
ENDMDL
MODEL 8
REMARK VINA RESULT:      -6.4      8.091     10.631
REMARK  Name = 
REMARK  3 active torsions:
REMARK  status: ('A' for Active; 'I' for Inactive)
REMARK    1  A    between atoms: C_4  and  C_5
REMARK    2  A    between atoms: N_14  and  C_15
REMARK    3  A    between atoms: C_15  and  C_16
REMARK                            x       y       z     vdW  Elec       q    Type
REMARK                         _______ _______ _______ _____ _____    ______ ____
ROOT
ATOM      1  C   UNL     1       1.006   8.897  20.519  0.00  0.00    +0.000 A 
ATOM      2  N   UNL     1       0.429   8.276  21.555  0.00  0.00    +0.000 NA
ATOM      3  C   UNL     1      -0.300   9.047  22.379  0.00  0.00    +0.000 A 
ATOM      4  C   UNL     1      -0.498  10.401  22.186  0.00  0.00    +0.000 A 
ATOM      5  C   UNL     1       0.087  10.942  21.055  0.00  0.00    +0.000 A 
ATOM      6  N   UNL     1       0.875  10.209  20.247  0.00  0.00    +0.000 NA
ATOM      7  C   UNL     1      -0.118  12.410  20.705  0.00  0.00    +0.000 C 
ATOM      8  C   UNL     1       1.175  13.207  20.963  0.00  0.00    +0.000 C 
ATOM      9  C   UNL     1       1.738  13.466  19.570  0.00  0.00    +0.000 C 
ATOM     10  N   UNL     1       0.569  13.628  18.694  0.00  0.00    +0.000 NA
ATOM     11  C   UNL     1      -0.389  12.618  19.191  0.00  0.00    +0.000 C 
ATOM     12  C   UNL     1      -1.293  12.965  21.536  0.00  0.00    +0.000 C 
ATOM     13  O   UNL     1      -1.144  12.616  22.915  0.00  0.00    +0.000 OA
ATOM     14  C   UNL     1      -1.341  11.210  23.112  0.00  0.00    +0.000 C 
ENDROOT
BRANCH   1  18
ATOM     15  C   UNL     1       3.442   6.580  17.870  0.00  0.00    +0.000 A 
ATOM     16  C   UNL     1       3.029   7.853  17.492  0.00  0.00    +0.000 A 
ATOM     17  C   UNL     1       2.210   8.598  18.342  0.00  0.00    +0.000 A 
ATOM     18  C   UNL     1       1.836   8.108  19.607  0.00  0.00    +0.000 A 
ATOM     19  C   UNL     1       2.293   6.833  19.977  0.00  0.00    +0.000 A 
ATOM     20  C   UNL     1       3.069   6.067  19.111  0.00  0.00    +0.000 A 
ENDBRANCH   1  18
BRANCH  10  21
ATOM     21  C   UNL     1      -0.012  14.970  18.694  0.00  0.00    +0.000 C 
BRANCH  21  22
ATOM     22  C   UNL     1       1.063  16.017  18.675  0.00  0.00    +0.000 C 
ATOM     23  C   UNL     1       0.754  17.403  18.167  0.00  0.00    +0.000 C 
ATOM     24  C   UNL     1       1.011  17.186  19.629  0.00  0.00    +0.000 C 
ENDBRANCH  21  22
ENDBRANCH  10  21
TORSDOF 3
ENDMDL
MODEL 9
REMARK VINA RESULT:      -6.4      8.218     10.775
REMARK  Name = 
REMARK  3 active torsions:
REMARK  status: ('A' for Active; 'I' for Inactive)
REMARK    1  A    between atoms: C_4  and  C_5
REMARK    2  A    between atoms: N_14  and  C_15
REMARK    3  A    between atoms: C_15  and  C_16
REMARK                            x       y       z     vdW  Elec       q    Type
REMARK                         _______ _______ _______ _____ _____    ______ ____
ROOT
ATOM      1  C   UNL     1       0.875   9.013  20.642  0.00  0.00    +0.000 A 
ATOM      2  N   UNL     1       0.277   8.414  21.679  0.00  0.00    +0.000 NA
ATOM      3  C   UNL     1      -0.438   9.209  22.493  0.00  0.00    +0.000 A 
ATOM      4  C   UNL     1      -0.600  10.566  22.290  0.00  0.00    +0.000 A 
ATOM      5  C   UNL     1       0.006  11.085  21.159  0.00  0.00    +0.000 A 
ATOM      6  N   UNL     1       0.779  10.327  20.361  0.00  0.00    +0.000 NA
ATOM      7  C   UNL     1      -0.160  12.556  20.799  0.00  0.00    +0.000 C 
ATOM      8  C   UNL     1       1.151  13.321  21.061  0.00  0.00    +0.000 C 
ATOM      9  C   UNL     1       1.729  13.557  19.670  0.00  0.00    +0.000 C 
ATOM     10  N   UNL     1       0.570  13.742  18.785  0.00  0.00    +0.000 NA
ATOM     11  C   UNL     1      -0.416  12.760  19.282  0.00  0.00    +0.000 C 
ATOM     12  C   UNL     1      -1.326  13.145  21.619  0.00  0.00    +0.000 C 
ATOM     13  O   UNL     1      -1.194  12.802  23.001  0.00  0.00    +0.000 OA
ATOM     14  C   UNL     1      -1.429  11.402  23.205  0.00  0.00    +0.000 C 
ENDROOT
BRANCH   1  18
ATOM     15  C   UNL     1       3.250   6.638  17.991  0.00  0.00    +0.000 A 
ATOM     16  C   UNL     1       2.907   6.140  19.243  0.00  0.00    +0.000 A 
ATOM     17  C   UNL     1       2.157   6.925  20.120  0.00  0.00    +0.000 A 
ATOM     18  C   UNL     1       1.691   8.198  19.741  0.00  0.00    +0.000 A 
ATOM     19  C   UNL     1       2.025   8.663  18.460  0.00  0.00    +0.000 A 
ATOM     20  C   UNL     1       2.815   7.902  17.601  0.00  0.00    +0.000 A 
ENDBRANCH   1  18
BRANCH  10  21
ATOM     21  C   UNL     1       0.023  15.099  18.773  0.00  0.00    +0.000 C 
BRANCH  21  22
ATOM     22  C   UNL     1       1.119  16.114  18.622  0.00  0.00    +0.000 C 
ATOM     23  C   UNL     1       0.809  17.473  18.044  0.00  0.00    +0.000 C 
ATOM     24  C   UNL     1       1.151  17.343  19.500  0.00  0.00    +0.000 C 
ENDBRANCH  21  22
ENDBRANCH  10  21
TORSDOF 3
ENDMDL
