MODEL 1
REMARK VINA RESULT:      -7.2      0.000      0.000
REMARK  Name = 
REMARK  12 active torsions:
REMARK  status: ('A' for Active; 'I' for Inactive)
REMARK    1  A    between atoms: C_1  and  C_2
REMARK    2  A    between atoms: C_2  and  C_3
REMARK    3  A    between atoms: C_3  and  N_4
REMARK    4  A    between atoms: N_4  and  C_5
REMARK    5  A    between atoms: N_4  and  C_8
REMARK    6  A    between atoms: C_5  and  C_6
REMARK    7  A    between atoms: C_6  and  C_7
REMARK    8  A    between atoms: C_8  and  C_9
REMARK    9  A    between atoms: C_9  and  C_10
REMARK   10  A    between atoms: C_13  and  O_14
REMARK   11  A    between atoms: C_15  and  O_16
REMARK   12  A    between atoms: C_17  and  C_18
REMARK                            x       y       z     vdW  Elec       q    Type
REMARK                         _______ _______ _______ _____ _____    ______ ____
ROOT
ATOM      1  C   UNL     1       3.994   6.300  17.705  0.00  0.00    +0.000 A 
ATOM      2  C   UNL     1       5.173   6.842  17.133  0.00  0.00    +0.000 A 
ATOM      3  C   UNL     1       6.407   6.204  17.208  0.00  0.00    +0.000 A 
ATOM      4  C   UNL     1       6.487   5.017  17.902  0.00  0.00    +0.000 A 
ATOM      5  C   UNL     1       5.347   4.461  18.500  0.00  0.00    +0.000 A 
ATOM      6  C   UNL     1       4.058   5.048  18.405  0.00  0.00    +0.000 A 
ENDROOT
BRANCH   6   7
ATOM      7  C   UNL     1       2.861   4.322  18.966  0.00  0.00    +0.000 A 
ATOM      8  C   UNL     1       2.356   4.523  20.263  0.00  0.00    +0.000 A 
ATOM      9  C   UNL     1       1.201   3.876  20.730  0.00  0.00    +0.000 A 
ATOM     10  C   UNL     1       0.556   2.936  19.937  0.00  0.00    +0.000 A 
ATOM     11  C   UNL     1       1.060   2.658  18.676  0.00  0.00    +0.000 A 
ATOM     12  C   UNL     1       2.173   3.359  18.194  0.00  0.00    +0.000 A 
ENDBRANCH   6   7
BRANCH   4  13
ATOM     13  O   UNL     1       7.668   4.338  18.021  0.00  0.00    +0.000 OA
ATOM     14  H   UNL     1       7.881   4.276  18.968  0.00  0.00    +0.000 HD
ENDBRANCH   4  13
BRANCH   5  15
ATOM     15  O   UNL     1       5.561   3.295  19.203  0.00  0.00    +0.000 OA
ATOM     16  H   UNL     1       4.668   3.009  19.483  0.00  0.00    +0.000 HD
ENDBRANCH   5  15
BRANCH   1  17
ATOM     17  C   UNL     1       2.695   7.084  17.540  0.00  0.00    +0.000 C 
BRANCH  17  18
ATOM     18  C   UNL     1       2.585   8.528  18.100  0.00  0.00    +0.000 C 
BRANCH  18  19
ATOM     19  N   UNL     1       1.430   8.856  18.974  0.00  0.00    +0.000 NA
BRANCH  19  20
ATOM     20  C   UNL     1       1.613   8.211  20.288  0.00  0.00    +0.000 C 
BRANCH  20  22
ATOM     21  C   UNL     1      -0.417   8.482  21.832  0.00  0.00    +0.000 C 
ATOM     22  C   UNL     1       1.017   8.903  21.527  0.00  0.00    +0.000 C 
ENDBRANCH  20  22
ENDBRANCH  19  20
BRANCH  19  23
ATOM     23  C   UNL     1       1.264  10.325  19.081  0.00  0.00    +0.000 C 
BRANCH  23  24
ATOM     24  C   UNL     1      -0.178  10.811  18.817  0.00  0.00    +0.000 C 
ATOM     25  C   UNL     1      -0.894   9.944  17.790  0.00  0.00    +0.000 C 
ENDBRANCH  23  24
ENDBRANCH  19  23
ENDBRANCH  18  19
ENDBRANCH  17  18
ENDBRANCH   1  17
TORSDOF 10
ENDMDL
MODEL 2
REMARK VINA RESULT:      -7.1      0.305      1.103
REMARK  Name = 
REMARK  12 active torsions:
REMARK  status: ('A' for Active; 'I' for Inactive)
REMARK    1  A    between atoms: C_1  and  C_2
REMARK    2  A    between atoms: C_2  and  C_3
REMARK    3  A    between atoms: C_3  and  N_4
REMARK    4  A    between atoms: N_4  and  C_5
REMARK    5  A    between atoms: N_4  and  C_8
REMARK    6  A    between atoms: C_5  and  C_6
REMARK    7  A    between atoms: C_6  and  C_7
REMARK    8  A    between atoms: C_8  and  C_9
REMARK    9  A    between atoms: C_9  and  C_10
REMARK   10  A    between atoms: C_13  and  O_14
REMARK   11  A    between atoms: C_15  and  O_16
REMARK   12  A    between atoms: C_17  and  C_18
REMARK                            x       y       z     vdW  Elec       q    Type
REMARK                         _______ _______ _______ _____ _____    ______ ____
ROOT
ATOM      1  C   UNL     1       4.123   6.300  17.648  0.00  0.00    +0.000 A 
ATOM      2  C   UNL     1       5.329   6.813  17.107  0.00  0.00    +0.000 A 
ATOM      3  C   UNL     1       6.547   6.148  17.222  0.00  0.00    +0.000 A 
ATOM      4  C   UNL     1       6.581   4.965  17.925  0.00  0.00    +0.000 A 
ATOM      5  C   UNL     1       5.413   4.439  18.495  0.00  0.00    +0.000 A 
ATOM      6  C   UNL     1       4.140   5.052  18.359  0.00  0.00    +0.000 A 
ENDROOT
BRANCH   6   7
ATOM      7  C   UNL     1       2.912   4.357  18.891  0.00  0.00    +0.000 A 
ATOM      8  C   UNL     1       2.155   3.427  18.157  0.00  0.00    +0.000 A 
ATOM      9  C   UNL     1       1.054   2.751  18.707  0.00  0.00    +0.000 A 
ATOM     10  C   UNL     1       0.621   3.048  19.992  0.00  0.00    +0.000 A 
ATOM     11  C   UNL     1       1.299   4.008  20.727  0.00  0.00    +0.000 A 
ATOM     12  C   UNL     1       2.437   4.626  20.194  0.00  0.00    +0.000 A 
ENDBRANCH   6   7
BRANCH   4  13
ATOM     13  O   UNL     1       7.744   4.262  18.082  0.00  0.00    +0.000 OA
ATOM     14  H   UNL     1       8.074   4.432  18.981  0.00  0.00    +0.000 HD
ENDBRANCH   4  13
BRANCH   5  15
ATOM     15  O   UNL     1       5.581   3.274  19.211  0.00  0.00    +0.000 OA
ATOM     16  H   UNL     1       6.321   2.814  18.764  0.00  0.00    +0.000 HD
ENDBRANCH   5  15
BRANCH   1  17
ATOM     17  C   UNL     1       2.846   7.111  17.442  0.00  0.00    +0.000 C 
BRANCH  17  18
ATOM     18  C   UNL     1       2.680   8.486  18.142  0.00  0.00    +0.000 C 
BRANCH  18  19
ATOM     19  N   UNL     1       1.472   8.707  18.977  0.00  0.00    +0.000 NA
BRANCH  19  20
ATOM     20  C   UNL     1       1.710   8.175  20.332  0.00  0.00    +0.000 C 
BRANCH  20  22
ATOM     21  C   UNL     1      -0.376   8.452  21.796  0.00  0.00    +0.000 C 
ATOM     22  C   UNL     1       1.055   8.897  21.523  0.00  0.00    +0.000 C 
ENDBRANCH  20  22
ENDBRANCH  19  20
BRANCH  19  23
ATOM     23  C   UNL     1       1.107  10.143  18.987  0.00  0.00    +0.000 C 
BRANCH  23  24
ATOM     24  C   UNL     1      -0.317  10.430  18.462  0.00  0.00    +0.000 C 
ATOM     25  C   UNL     1      -1.115  11.302  19.422  0.00  0.00    +0.000 C 
ENDBRANCH  23  24
ENDBRANCH  19  23
ENDBRANCH  18  19
ENDBRANCH  17  18
ENDBRANCH   1  17
TORSDOF 10
ENDMDL
MODEL 3
REMARK VINA RESULT:      -7.1      0.883      1.537
REMARK  Name = 
REMARK  12 active torsions:
REMARK  status: ('A' for Active; 'I' for Inactive)
REMARK    1  A    between atoms: C_1  and  C_2
REMARK    2  A    between atoms: C_2  and  C_3
REMARK    3  A    between atoms: C_3  and  N_4
REMARK    4  A    between atoms: N_4  and  C_5
REMARK    5  A    between atoms: N_4  and  C_8
REMARK    6  A    between atoms: C_5  and  C_6
REMARK    7  A    between atoms: C_6  and  C_7
REMARK    8  A    between atoms: C_8  and  C_9
REMARK    9  A    between atoms: C_9  and  C_10
REMARK   10  A    between atoms: C_13  and  O_14
REMARK   11  A    between atoms: C_15  and  O_16
REMARK   12  A    between atoms: C_17  and  C_18
REMARK                            x       y       z     vdW  Elec       q    Type
REMARK                         _______ _______ _______ _____ _____    ______ ____
ROOT
ATOM      1  C   UNL     1       4.112   6.349  17.789  0.00  0.00    +0.000 A 
ATOM      2  C   UNL     1       5.306   6.880  17.239  0.00  0.00    +0.000 A 
ATOM      3  C   UNL     1       6.517   6.195  17.271  0.00  0.00    +0.000 A 
ATOM      4  C   UNL     1       6.558   4.970  17.898  0.00  0.00    +0.000 A 
ATOM      5  C   UNL     1       5.402   4.424  18.474  0.00  0.00    +0.000 A 
ATOM      6  C   UNL     1       4.135   5.060  18.420  0.00  0.00    +0.000 A 
ENDROOT
BRANCH   6   7
ATOM      7  C   UNL     1       2.916   4.348  18.951  0.00  0.00    +0.000 A 
ATOM      8  C   UNL     1       2.127   3.467  18.191  0.00  0.00    +0.000 A 
ATOM      9  C   UNL     1       1.035   2.772  18.736  0.00  0.00    +0.000 A 
ATOM     10  C   UNL     1       0.644   3.002  20.048  0.00  0.00    +0.000 A 
ATOM     11  C   UNL     1       1.354   3.914  20.814  0.00  0.00    +0.000 A 
ATOM     12  C   UNL     1       2.483   4.550  20.281  0.00  0.00    +0.000 A 
ENDBRANCH   6   7
BRANCH   4  13
ATOM     13  O   UNL     1       7.715   4.245  17.972  0.00  0.00    +0.000 OA
ATOM     14  H   UNL     1       8.102   4.212  17.080  0.00  0.00    +0.000 HD
ENDBRANCH   4  13
BRANCH   5  15
ATOM     15  O   UNL     1       5.578   3.215  19.111  0.00  0.00    +0.000 OA
ATOM     16  H   UNL     1       6.363   3.348  19.681  0.00  0.00    +0.000 HD
ENDBRANCH   5  15
BRANCH   1  17
ATOM     17  C   UNL     1       2.840   7.187  17.678  0.00  0.00    +0.000 C 
BRANCH  17  18
ATOM     18  C   UNL     1       2.338   8.001  18.901  0.00  0.00    +0.000 C 
BRANCH  18  19
ATOM     19  N   UNL     1       1.368   9.099  18.663  0.00  0.00    +0.000 NA
BRANCH  19  20
ATOM     20  C   UNL     1       0.652   9.399  19.917  0.00  0.00    +0.000 C 
BRANCH  20  22
ATOM     21  C   UNL     1       1.099   9.244  22.437  0.00  0.00    +0.000 C 
ATOM     22  C   UNL     1       0.894   8.484  21.131  0.00  0.00    +0.000 C 
ENDBRANCH  20  22
ENDBRANCH  19  20
BRANCH  19  23
ATOM     23  C   UNL     1       2.058  10.286  18.105  0.00  0.00    +0.000 C 
BRANCH  23  24
ATOM     24  C   UNL     1       1.617  11.622  18.744  0.00  0.00    +0.000 C 
ATOM     25  C   UNL     1       2.321  12.816  18.112  0.00  0.00    +0.000 C 
ENDBRANCH  23  24
ENDBRANCH  19  23
ENDBRANCH  18  19
ENDBRANCH  17  18
ENDBRANCH   1  17
TORSDOF 10
ENDMDL
MODEL 4
REMARK VINA RESULT:      -7.1      0.644      1.988
REMARK  Name = 
REMARK  12 active torsions:
REMARK  status: ('A' for Active; 'I' for Inactive)
REMARK    1  A    between atoms: C_1  and  C_2
REMARK    2  A    between atoms: C_2  and  C_3
REMARK    3  A    between atoms: C_3  and  N_4
REMARK    4  A    between atoms: N_4  and  C_5
REMARK    5  A    between atoms: N_4  and  C_8
REMARK    6  A    between atoms: C_5  and  C_6
REMARK    7  A    between atoms: C_6  and  C_7
REMARK    8  A    between atoms: C_8  and  C_9
REMARK    9  A    between atoms: C_9  and  C_10
REMARK   10  A    between atoms: C_13  and  O_14
REMARK   11  A    between atoms: C_15  and  O_16
REMARK   12  A    between atoms: C_17  and  C_18
REMARK                            x       y       z     vdW  Elec       q    Type
REMARK                         _______ _______ _______ _____ _____    ______ ____
ROOT
ATOM      1  C   UNL     1       3.886   6.392  17.933  0.00  0.00    +0.000 A 
ATOM      2  C   UNL     1       5.046   6.969  17.356  0.00  0.00    +0.000 A 
ATOM      3  C   UNL     1       6.274   6.314  17.323  0.00  0.00    +0.000 A 
ATOM      4  C   UNL     1       6.368   5.072  17.910  0.00  0.00    +0.000 A 
ATOM      5  C   UNL     1       5.248   4.480  18.511  0.00  0.00    +0.000 A 
ATOM      6  C   UNL     1       3.964   5.085  18.523  0.00  0.00    +0.000 A 
ENDROOT
BRANCH   6   7
ATOM      7  C   UNL     1       2.783   4.327  19.075  0.00  0.00    +0.000 A 
ATOM      8  C   UNL     1       2.372   4.379  20.418  0.00  0.00    +0.000 A 
ATOM      9  C   UNL     1       1.230   3.709  20.883  0.00  0.00    +0.000 A 
ATOM     10  C   UNL     1       0.502   2.891  20.030  0.00  0.00    +0.000 A 
ATOM     11  C   UNL     1       0.911   2.757  18.712  0.00  0.00    +0.000 A 
ATOM     12  C   UNL     1       2.013   3.484  18.242  0.00  0.00    +0.000 A 
ENDBRANCH   6   7
BRANCH   4  13
ATOM     13  O   UNL     1       7.544   4.375  17.919  0.00  0.00    +0.000 OA
ATOM     14  H   UNL     1       7.361   3.488  18.274  0.00  0.00    +0.000 HD
ENDBRANCH   4  13
BRANCH   5  15
ATOM     15  O   UNL     1       5.476   3.257  19.103  0.00  0.00    +0.000 OA
ATOM     16  H   UNL     1       5.929   3.471  19.945  0.00  0.00    +0.000 HD
ENDBRANCH   5  15
BRANCH   1  17
ATOM     17  C   UNL     1       2.591   7.200  17.893  0.00  0.00    +0.000 C 
BRANCH  17  18
ATOM     18  C   UNL     1       2.061   7.878  19.185  0.00  0.00    +0.000 C 
BRANCH  18  19
ATOM     19  N   UNL     1       1.673   9.309  19.118  0.00  0.00    +0.000 NA
BRANCH  19  20
ATOM     20  C   UNL     1       0.846   9.536  17.917  0.00  0.00    +0.000 C 
BRANCH  20  22
ATOM     21  C   UNL     1      -1.624   9.757  17.266  0.00  0.00    +0.000 C 
ATOM     22  C   UNL     1      -0.465  10.328  18.074  0.00  0.00    +0.000 C 
ENDBRANCH  20  22
ENDBRANCH  19  20
BRANCH  19  23
ATOM     23  C   UNL     1       0.985   9.717  20.365  0.00  0.00    +0.000 C 
BRANCH  23  24
ATOM     24  C   UNL     1       0.657   8.541  21.311  0.00  0.00    +0.000 C 
ATOM     25  C   UNL     1       0.181   9.022  22.676  0.00  0.00    +0.000 C 
ENDBRANCH  23  24
ENDBRANCH  19  23
ENDBRANCH  18  19
ENDBRANCH  17  18
ENDBRANCH   1  17
TORSDOF 10
ENDMDL
MODEL 5
REMARK VINA RESULT:      -7.0      0.848      1.119
REMARK  Name = 
REMARK  12 active torsions:
REMARK  status: ('A' for Active; 'I' for Inactive)
REMARK    1  A    between atoms: C_1  and  C_2
REMARK    2  A    between atoms: C_2  and  C_3
REMARK    3  A    between atoms: C_3  and  N_4
REMARK    4  A    between atoms: N_4  and  C_5
REMARK    5  A    between atoms: N_4  and  C_8
REMARK    6  A    between atoms: C_5  and  C_6
REMARK    7  A    between atoms: C_6  and  C_7
REMARK    8  A    between atoms: C_8  and  C_9
REMARK    9  A    between atoms: C_9  and  C_10
REMARK   10  A    between atoms: C_13  and  O_14
REMARK   11  A    between atoms: C_15  and  O_16
REMARK   12  A    between atoms: C_17  and  C_18
REMARK                            x       y       z     vdW  Elec       q    Type
REMARK                         _______ _______ _______ _____ _____    ______ ____
ROOT
ATOM      1  C   UNL     1       4.113   6.378  17.964  0.00  0.00    +0.000 A 
ATOM      2  C   UNL     1       5.290   6.926  17.396  0.00  0.00    +0.000 A 
ATOM      3  C   UNL     1       6.494   6.230  17.343  0.00  0.00    +0.000 A 
ATOM      4  C   UNL     1       6.546   4.973  17.901  0.00  0.00    +0.000 A 
ATOM      5  C   UNL     1       5.408   4.406  18.493  0.00  0.00    +0.000 A 
ATOM      6  C   UNL     1       4.146   5.056  18.523  0.00  0.00    +0.000 A 
ENDROOT
BRANCH   6   7
ATOM      7  C   UNL     1       2.941   4.327  19.063  0.00  0.00    +0.000 A 
ATOM      8  C   UNL     1       2.543   4.354  20.411  0.00  0.00    +0.000 A 
ATOM      9  C   UNL     1       1.379   3.715  20.866  0.00  0.00    +0.000 A 
ATOM     10  C   UNL     1       0.613   2.951  19.994  0.00  0.00    +0.000 A 
ATOM     11  C   UNL     1       1.007   2.843  18.669  0.00  0.00    +0.000 A 
ATOM     12  C   UNL     1       2.132   3.541  18.212  0.00  0.00    +0.000 A 
ENDBRANCH   6   7
BRANCH   4  13
ATOM     13  O   UNL     1       7.697   4.234  17.890  0.00  0.00    +0.000 OA
ATOM     14  H   UNL     1       7.453   3.302  18.023  0.00  0.00    +0.000 HD
ENDBRANCH   4  13
BRANCH   5  15
ATOM     15  O   UNL     1       5.595   3.163  19.056  0.00  0.00    +0.000 OA
ATOM     16  H   UNL     1       6.283   2.742  18.502  0.00  0.00    +0.000 HD
ENDBRANCH   5  15
BRANCH   1  17
ATOM     17  C   UNL     1       2.847   7.231  17.948  0.00  0.00    +0.000 C 
BRANCH  17  18
ATOM     18  C   UNL     1       2.278   7.799  19.276  0.00  0.00    +0.000 C 
BRANCH  18  19
ATOM     19  N   UNL     1       1.250   8.867  19.199  0.00  0.00    +0.000 NA
BRANCH  19  20
ATOM     20  C   UNL     1       1.052   9.454  20.539  0.00  0.00    +0.000 C 
BRANCH  20  22
ATOM     21  C   UNL     1      -0.162   9.357  22.795  0.00  0.00    +0.000 C 
ATOM     22  C   UNL     1      -0.252   9.130  21.290  0.00  0.00    +0.000 C 
ENDBRANCH  20  22
ENDBRANCH  19  20
BRANCH  19  23
ATOM     23  C   UNL     1       1.631   9.880  18.187  0.00  0.00    +0.000 C 
BRANCH  23  24
ATOM     24  C   UNL     1       1.325  11.334  18.612  0.00  0.00    +0.000 C 
ATOM     25  C   UNL     1       2.445  12.290  18.221  0.00  0.00    +0.000 C 
ENDBRANCH  23  24
ENDBRANCH  19  23
ENDBRANCH  18  19
ENDBRANCH  17  18
ENDBRANCH   1  17
TORSDOF 10
ENDMDL
MODEL 6
REMARK VINA RESULT:      -7.0      0.464      2.092
REMARK  Name = 
REMARK  12 active torsions:
REMARK  status: ('A' for Active; 'I' for Inactive)
REMARK    1  A    between atoms: C_1  and  C_2
REMARK    2  A    between atoms: C_2  and  C_3
REMARK    3  A    between atoms: C_3  and  N_4
REMARK    4  A    between atoms: N_4  and  C_5
REMARK    5  A    between atoms: N_4  and  C_8
REMARK    6  A    between atoms: C_5  and  C_6
REMARK    7  A    between atoms: C_6  and  C_7
REMARK    8  A    between atoms: C_8  and  C_9
REMARK    9  A    between atoms: C_9  and  C_10
REMARK   10  A    between atoms: C_13  and  O_14
REMARK   11  A    between atoms: C_15  and  O_16
REMARK   12  A    between atoms: C_17  and  C_18
REMARK                            x       y       z     vdW  Elec       q    Type
REMARK                         _______ _______ _______ _____ _____    ______ ____
ROOT
ATOM      1  C   UNL     1       3.726   6.404  17.771  0.00  0.00    +0.000 A 
ATOM      2  C   UNL     1       4.802   7.020  17.083  0.00  0.00    +0.000 A 
ATOM      3  C   UNL     1       6.060   6.432  16.975  0.00  0.00    +0.000 A 
ATOM      4  C   UNL     1       6.270   5.223  17.599  0.00  0.00    +0.000 A 
ATOM      5  C   UNL     1       5.237   4.595  18.308  0.00  0.00    +0.000 A 
ATOM      6  C   UNL     1       3.925   5.129  18.400  0.00  0.00    +0.000 A 
ENDROOT
BRANCH   6   7
ATOM      7  C   UNL     1       2.836   4.331  19.072  0.00  0.00    +0.000 A 
ATOM      8  C   UNL     1       1.986   3.437  18.398  0.00  0.00    +0.000 A 
ATOM      9  C   UNL     1       1.025   2.662  19.067  0.00  0.00    +0.000 A 
ATOM     10  C   UNL     1       0.824   2.820  20.432  0.00  0.00    +0.000 A 
ATOM     11  C   UNL     1       1.596   3.741  21.124  0.00  0.00    +0.000 A 
ATOM     12  C   UNL     1       2.598   4.458  20.460  0.00  0.00    +0.000 A 
ENDBRANCH   6   7
BRANCH   4  13
ATOM     13  O   UNL     1       7.482   4.591  17.539  0.00  0.00    +0.000 OA
ATOM     14  H   UNL     1       8.033   5.065  16.893  0.00  0.00    +0.000 HD
ENDBRANCH   4  13
BRANCH   5  15
ATOM     15  O   UNL     1       5.581   3.412  18.925  0.00  0.00    +0.000 OA
ATOM     16  H   UNL     1       5.549   3.615  19.882  0.00  0.00    +0.000 HD
ENDBRANCH   5  15
BRANCH   1  17
ATOM     17  C   UNL     1       2.388   7.138  17.805  0.00  0.00    +0.000 C 
BRANCH  17  18
ATOM     18  C   UNL     1       2.356   8.689  17.858  0.00  0.00    +0.000 C 
BRANCH  18  19
ATOM     19  N   UNL     1       1.913   9.339  19.117  0.00  0.00    +0.000 NA
BRANCH  19  20
ATOM     20  C   UNL     1       0.833  10.299  18.819  0.00  0.00    +0.000 C 
BRANCH  20  22
ATOM     21  C   UNL     1      -1.692  10.309  18.372  0.00  0.00    +0.000 C 
ATOM     22  C   UNL     1      -0.318   9.839  17.907  0.00  0.00    +0.000 C 
ENDBRANCH  20  22
ENDBRANCH  19  20
BRANCH  19  23
ATOM     23  C   UNL     1       1.506   8.318  20.111  0.00  0.00    +0.000 C 
BRANCH  23  24
ATOM     24  C   UNL     1       1.060   8.908  21.467  0.00  0.00    +0.000 C 
ATOM     25  C   UNL     1      -0.387   8.561  21.791  0.00  0.00    +0.000 C 
ENDBRANCH  23  24
ENDBRANCH  19  23
ENDBRANCH  18  19
ENDBRANCH  17  18
ENDBRANCH   1  17
TORSDOF 10
ENDMDL
MODEL 7
REMARK VINA RESULT:      -6.9      1.527      4.411
REMARK  Name = 
REMARK  12 active torsions:
REMARK  status: ('A' for Active; 'I' for Inactive)
REMARK    1  A    between atoms: C_1  and  C_2
REMARK    2  A    between atoms: C_2  and  C_3
REMARK    3  A    between atoms: C_3  and  N_4
REMARK    4  A    between atoms: N_4  and  C_5
REMARK    5  A    between atoms: N_4  and  C_8
REMARK    6  A    between atoms: C_5  and  C_6
REMARK    7  A    between atoms: C_6  and  C_7
REMARK    8  A    between atoms: C_8  and  C_9
REMARK    9  A    between atoms: C_9  and  C_10
REMARK   10  A    between atoms: C_13  and  O_14
REMARK   11  A    between atoms: C_15  and  O_16
REMARK   12  A    between atoms: C_17  and  C_18
REMARK                            x       y       z     vdW  Elec       q    Type
REMARK                         _______ _______ _______ _____ _____    ______ ____
ROOT
ATOM      1  C   UNL     1       2.764   5.887  18.127  0.00  0.00    +0.000 A 
ATOM      2  C   UNL     1       1.516   5.216  18.089  0.00  0.00    +0.000 A 
ATOM      3  C   UNL     1       1.406   3.841  17.907  0.00  0.00    +0.000 A 
ATOM      4  C   UNL     1       2.560   3.114  17.718  0.00  0.00    +0.000 A 
ATOM      5  C   UNL     1       3.812   3.746  17.726  0.00  0.00    +0.000 A 
ATOM      6  C   UNL     1       3.976   5.136  17.960  0.00  0.00    +0.000 A 
ENDROOT
BRANCH   6   7
ATOM      7  C   UNL     1       5.363   5.717  18.081  0.00  0.00    +0.000 A 
ATOM      8  C   UNL     1       5.916   6.629  17.166  0.00  0.00    +0.000 A 
ATOM      9  C   UNL     1       7.188   7.197  17.344  0.00  0.00    +0.000 A 
ATOM     10  C   UNL     1       7.987   6.805  18.409  0.00  0.00    +0.000 A 
ATOM     11  C   UNL     1       7.506   5.857  19.299  0.00  0.00    +0.000 A 
ATOM     12  C   UNL     1       6.210   5.347  19.150  0.00  0.00    +0.000 A 
ENDBRANCH   6   7
BRANCH   4  13
ATOM     13  O   UNL     1       2.527   1.760  17.528  0.00  0.00    +0.000 OA
ATOM     14  H   UNL     1       2.183   1.593  16.634  0.00  0.00    +0.000 HD
ENDBRANCH   4  13
BRANCH   5  15
ATOM     15  O   UNL     1       4.889   2.921  17.482  0.00  0.00    +0.000 OA
ATOM     16  H   UNL     1       5.528   3.485  17.002  0.00  0.00    +0.000 HD
ENDBRANCH   5  15
BRANCH   1  17
ATOM     17  C   UNL     1       2.757   7.397  18.350  0.00  0.00    +0.000 C 
BRANCH  17  18
ATOM     18  C   UNL     1       1.907   8.007  19.498  0.00  0.00    +0.000 C 
BRANCH  18  19
ATOM     19  N   UNL     1       1.454   9.414  19.364  0.00  0.00    +0.000 NA
BRANCH  19  20
ATOM     20  C   UNL     1       0.646   9.553  18.137  0.00  0.00    +0.000 C 
BRANCH  20  22
ATOM     21  C   UNL     1      -1.693   9.874  17.136  0.00  0.00    +0.000 C 
ATOM     22  C   UNL     1      -0.715  10.265  18.239  0.00  0.00    +0.000 C 
ENDBRANCH  20  22
ENDBRANCH  19  20
BRANCH  19  23
ATOM     23  C   UNL     1       0.718   9.837  20.579  0.00  0.00    +0.000 C 
BRANCH  23  24
ATOM     24  C   UNL     1       1.054   9.004  21.835  0.00  0.00    +0.000 C 
ATOM     25  C   UNL     1       0.200   9.405  23.030  0.00  0.00    +0.000 C 
ENDBRANCH  23  24
ENDBRANCH  19  23
ENDBRANCH  18  19
ENDBRANCH  17  18
ENDBRANCH   1  17
TORSDOF 10
ENDMDL
MODEL 8
REMARK VINA RESULT:      -6.9      1.518      4.451
REMARK  Name = 
REMARK  12 active torsions:
REMARK  status: ('A' for Active; 'I' for Inactive)
REMARK    1  A    between atoms: C_1  and  C_2
REMARK    2  A    between atoms: C_2  and  C_3
REMARK    3  A    between atoms: C_3  and  N_4
REMARK    4  A    between atoms: N_4  and  C_5
REMARK    5  A    between atoms: N_4  and  C_8
REMARK    6  A    between atoms: C_5  and  C_6
REMARK    7  A    between atoms: C_6  and  C_7
REMARK    8  A    between atoms: C_8  and  C_9
REMARK    9  A    between atoms: C_9  and  C_10
REMARK   10  A    between atoms: C_13  and  O_14
REMARK   11  A    between atoms: C_15  and  O_16
REMARK   12  A    between atoms: C_17  and  C_18
REMARK                            x       y       z     vdW  Elec       q    Type
REMARK                         _______ _______ _______ _____ _____    ______ ____
ROOT
ATOM      1  C   UNL     1       2.542   5.312  19.366  0.00  0.00    +0.000 A 
ATOM      2  C   UNL     1       1.423   4.505  19.693  0.00  0.00    +0.000 A 
ATOM      3  C   UNL     1       1.360   3.148  19.391  0.00  0.00    +0.000 A 
ATOM      4  C   UNL     1       2.415   2.582  18.711  0.00  0.00    +0.000 A 
ATOM      5  C   UNL     1       3.529   3.353  18.351  0.00  0.00    +0.000 A 
ATOM      6  C   UNL     1       3.661   4.726  18.684  0.00  0.00    +0.000 A 
ENDROOT
BRANCH   6   7
ATOM      7  C   UNL     1       4.946   5.452  18.373  0.00  0.00    +0.000 A 
ATOM      8  C   UNL     1       5.120   6.306  17.269  0.00  0.00    +0.000 A 
ATOM      9  C   UNL     1       6.311   7.015  17.046  0.00  0.00    +0.000 A 
ATOM     10  C   UNL     1       7.404   6.828  17.881  0.00  0.00    +0.000 A 
ATOM     11  C   UNL     1       7.298   5.943  18.943  0.00  0.00    +0.000 A 
ATOM     12  C   UNL     1       6.083   5.293  19.196  0.00  0.00    +0.000 A 
ENDBRANCH   6   7
BRANCH   4  13
ATOM     13  O   UNL     1       2.418   1.255  18.377  0.00  0.00    +0.000 OA
ATOM     14  H   UNL     1       3.060   1.132  17.657  0.00  0.00    +0.000 HD
ENDBRANCH   4  13
BRANCH   5  15
ATOM     15  O   UNL     1       4.500   2.685  17.636  0.00  0.00    +0.000 OA
ATOM     16  H   UNL     1       4.723   3.290  16.899  0.00  0.00    +0.000 HD
ENDBRANCH   5  15
BRANCH   1  17
ATOM     17  C   UNL     1       2.502   6.785  19.766  0.00  0.00    +0.000 C 
BRANCH  17  18
ATOM     18  C   UNL     1       1.467   7.276  20.814  0.00  0.00    +0.000 C 
BRANCH  18  19
ATOM     19  N   UNL     1       1.151   8.725  20.862  0.00  0.00    +0.000 NA
BRANCH  19  20
ATOM     20  C   UNL     1       1.158   9.273  19.492  0.00  0.00    +0.000 C 
BRANCH  20  22
ATOM     21  C   UNL     1      -0.808  10.051  18.042  0.00  0.00    +0.000 C 
ATOM     22  C   UNL     1       0.171  10.405  19.156  0.00  0.00    +0.000 C 
ENDBRANCH  20  22
ENDBRANCH  19  20
BRANCH  19  23
ATOM     23  C   UNL     1      -0.139   8.950  21.556  0.00  0.00    +0.000 C 
BRANCH  23  24
ATOM     24  C   UNL     1      -0.001   9.674  22.913  0.00  0.00    +0.000 C 
ATOM     25  C   UNL     1      -1.103  10.703  23.126  0.00  0.00    +0.000 C 
ENDBRANCH  23  24
ENDBRANCH  19  23
ENDBRANCH  18  19
ENDBRANCH  17  18
ENDBRANCH   1  17
TORSDOF 10
ENDMDL
MODEL 9
REMARK VINA RESULT:      -6.9      1.568      3.879
REMARK  Name = 
REMARK  12 active torsions:
REMARK  status: ('A' for Active; 'I' for Inactive)
REMARK    1  A    between atoms: C_1  and  C_2
REMARK    2  A    between atoms: C_2  and  C_3
REMARK    3  A    between atoms: C_3  and  N_4
REMARK    4  A    between atoms: N_4  and  C_5
REMARK    5  A    between atoms: N_4  and  C_8
REMARK    6  A    between atoms: C_5  and  C_6
REMARK    7  A    between atoms: C_6  and  C_7
REMARK    8  A    between atoms: C_8  and  C_9
REMARK    9  A    between atoms: C_9  and  C_10
REMARK   10  A    between atoms: C_13  and  O_14
REMARK   11  A    between atoms: C_15  and  O_16
REMARK   12  A    between atoms: C_17  and  C_18
REMARK                            x       y       z     vdW  Elec       q    Type
REMARK                         _______ _______ _______ _____ _____    ______ ____
ROOT
ATOM      1  C   UNL     1       2.767   5.188  19.036  0.00  0.00    +0.000 A 
ATOM      2  C   UNL     1       1.844   5.075  20.106  0.00  0.00    +0.000 A 
ATOM      3  C   UNL     1       1.936   4.082  21.077  0.00  0.00    +0.000 A 
ATOM      4  C   UNL     1       2.945   3.151  20.964  0.00  0.00    +0.000 A 
ATOM      5  C   UNL     1       3.862   3.217  19.906  0.00  0.00    +0.000 A 
ATOM      6  C   UNL     1       3.840   4.241  18.924  0.00  0.00    +0.000 A 
ENDROOT
BRANCH   6   7
ATOM      7  C   UNL     1       4.939   4.315  17.893  0.00  0.00    +0.000 A 
ATOM      8  C   UNL     1       4.809   3.859  16.570  0.00  0.00    +0.000 A 
ATOM      9  C   UNL     1       5.832   4.001  15.620  0.00  0.00    +0.000 A 
ATOM     10  C   UNL     1       7.060   4.535  15.988  0.00  0.00    +0.000 A 
ATOM     11  C   UNL     1       7.255   4.937  17.301  0.00  0.00    +0.000 A 
ATOM     12  C   UNL     1       6.204   4.853  18.223  0.00  0.00    +0.000 A 
ENDBRANCH   6   7
BRANCH   4  13
ATOM     13  O   UNL     1       3.092   2.145  21.878  0.00  0.00    +0.000 OA
ATOM     14  H   UNL     1       3.942   1.706  21.703  0.00  0.00    +0.000 HD
ENDBRANCH   4  13
BRANCH   5  15
ATOM     15  O   UNL     1       4.798   2.205  19.875  0.00  0.00    +0.000 OA
ATOM     16  H   UNL     1       4.694   1.747  20.734  0.00  0.00    +0.000 HD
ENDBRANCH   5  15
BRANCH   1  17
ATOM     17  C   UNL     1       2.573   6.331  18.043  0.00  0.00    +0.000 C 
BRANCH  17  18
ATOM     18  C   UNL     1       2.607   7.802  18.538  0.00  0.00    +0.000 C 
BRANCH  18  19
ATOM     19  N   UNL     1       1.330   8.433  18.955  0.00  0.00    +0.000 NA
BRANCH  19  20
ATOM     20  C   UNL     1       1.461   8.941  20.334  0.00  0.00    +0.000 C 
BRANCH  20  22
ATOM     21  C   UNL     1      -0.230   9.203  22.243  0.00  0.00    +0.000 C 
ATOM     22  C   UNL     1       0.652   8.249  21.445  0.00  0.00    +0.000 C 
ENDBRANCH  20  22
ENDBRANCH  19  20
BRANCH  19  23
ATOM     23  C   UNL     1       0.940   9.493  17.995  0.00  0.00    +0.000 C 
BRANCH  23  24
ATOM     24  C   UNL     1      -0.317  10.286  18.416  0.00  0.00    +0.000 C 
ATOM     25  C   UNL     1      -1.482  10.057  17.463  0.00  0.00    +0.000 C 
ENDBRANCH  23  24
ENDBRANCH  19  23
ENDBRANCH  18  19
ENDBRANCH  17  18
ENDBRANCH   1  17
TORSDOF 10
ENDMDL
