MODEL 1
REMARK VINA RESULT:      -7.1      0.000      0.000
REMARK  Name = 
REMARK  3 active torsions:
REMARK  status: ('A' for Active; 'I' for Inactive)
REMARK    1  A    between atoms: C_2  and  C_13
REMARK    2  A    between atoms: N_3  and  N_4
REMARK    3  A    between atoms: N_4  and  C_5
REMARK                            x       y       z     vdW  Elec       q    Type
REMARK                         _______ _______ _______ _____ _____    ______ ____
ROOT
ATOM      1  N   UNL     1       4.241   2.921  18.189  0.00  0.00    +0.000 N 
ATOM      2  H   UNL     1       4.651   1.981  18.068  0.00  0.00    +0.000 HD
ENDROOT
BRANCH   1   3
ATOM      3  C   UNL     1       3.265   2.906  19.237  0.00  0.00    +0.000 A 
ATOM      4  C   UNL     1       3.488   2.384  20.534  0.00  0.00    +0.000 A 
ATOM      5 CL   UNL     1       4.973   1.621  21.015  0.00  0.00    +0.000 Cl
ATOM      6  C   UNL     1       2.515   2.494  21.540  0.00  0.00    +0.000 A 
ATOM      7  C   UNL     1       1.314   3.154  21.297  0.00  0.00    +0.000 A 
ATOM      8  C   UNL     1       1.082   3.711  20.045  0.00  0.00    +0.000 A 
ATOM      9  C   UNL     1       2.045   3.594  19.035  0.00  0.00    +0.000 A 
ATOM     10 CL   UNL     1       1.681   4.323  17.505  0.00  0.00    +0.000 Cl
ENDBRANCH   1   3
BRANCH   1  13
ATOM     11  O   UNL     1       4.855   4.767  16.290  0.00  0.00    +0.000 OA
ATOM     12  C   UNL     1       5.453   4.831  17.364  0.00  0.00    +0.000 C 
ATOM     13  N   UNL     1       5.257   3.877  18.355  0.00  0.00    +0.000 N 
ATOM     14  H   UNL     1       5.559   4.064  19.307  0.00  0.00    +0.000 HD
BRANCH  12  15
ATOM     15  C   UNL     1       6.401   5.888  17.692  0.00  0.00    +0.000 A 
ATOM     16  C   UNL     1       6.537   7.109  17.055  0.00  0.00    +0.000 A 
ATOM     17  C   UNL     1       7.615   7.885  17.572  0.00  0.00    +0.000 A 
ATOM     18  C   UNL     1       8.264   7.242  18.601  0.00  0.00    +0.000 A 
ATOM     19  S   UNL     1       7.557   5.726  18.953  0.00  0.00    +0.000 S 
ENDBRANCH  12  15
ENDBRANCH   1  13
TORSDOF 3
ENDMDL
MODEL 2
REMARK VINA RESULT:      -7.1      0.231      2.234
REMARK  Name = 
REMARK  3 active torsions:
REMARK  status: ('A' for Active; 'I' for Inactive)
REMARK    1  A    between atoms: C_2  and  C_13
REMARK    2  A    between atoms: N_3  and  N_4
REMARK    3  A    between atoms: N_4  and  C_5
REMARK                            x       y       z     vdW  Elec       q    Type
REMARK                         _______ _______ _______ _____ _____    ______ ____
ROOT
ATOM      1  N   UNL     1       4.197   2.938  18.191  0.00  0.00    +0.000 N 
ATOM      2  H   UNL     1       4.551   1.968  18.169  0.00  0.00    +0.000 HD
ENDROOT
BRANCH   1   3
ATOM      3  C   UNL     1       3.209   3.084  19.217  0.00  0.00    +0.000 A 
ATOM      4  C   UNL     1       1.930   3.656  19.022  0.00  0.00    +0.000 A 
ATOM      5 CL   UNL     1       1.403   4.329  17.509  0.00  0.00    +0.000 Cl
ATOM      6  C   UNL     1       0.976   3.675  20.053  0.00  0.00    +0.000 A 
ATOM      7  C   UNL     1       1.254   3.097  21.287  0.00  0.00    +0.000 A 
ATOM      8  C   UNL     1       2.488   2.492  21.497  0.00  0.00    +0.000 A 
ATOM      9  C   UNL     1       3.446   2.481  20.476  0.00  0.00    +0.000 A 
ATOM     10 CL   UNL     1       4.956   1.700  20.814  0.00  0.00    +0.000 Cl
ENDBRANCH   1   3
BRANCH   1  13
ATOM     11  O   UNL     1       4.377   5.168  16.646  0.00  0.00    +0.000 OA
ATOM     12  C   UNL     1       5.241   4.997  17.507  0.00  0.00    +0.000 C 
ATOM     13  N   UNL     1       5.267   3.844  18.281  0.00  0.00    +0.000 N 
ATOM     14  H   UNL     1       5.820   3.816  19.134  0.00  0.00    +0.000 HD
BRANCH  12  15
ATOM     15  C   UNL     1       6.294   5.965  17.790  0.00  0.00    +0.000 A 
ATOM     16  C   UNL     1       6.550   7.138  17.102  0.00  0.00    +0.000 A 
ATOM     17  C   UNL     1       7.705   7.820  17.584  0.00  0.00    +0.000 A 
ATOM     18  C   UNL     1       8.290   7.158  18.640  0.00  0.00    +0.000 A 
ATOM     19  S   UNL     1       7.434   5.738  19.055  0.00  0.00    +0.000 S 
ENDBRANCH  12  15
ENDBRANCH   1  13
TORSDOF 3
ENDMDL
MODEL 3
REMARK VINA RESULT:      -6.8      0.810      2.447
REMARK  Name = 
REMARK  3 active torsions:
REMARK  status: ('A' for Active; 'I' for Inactive)
REMARK    1  A    between atoms: C_2  and  C_13
REMARK    2  A    between atoms: N_3  and  N_4
REMARK    3  A    between atoms: N_4  and  C_5
REMARK                            x       y       z     vdW  Elec       q    Type
REMARK                         _______ _______ _______ _____ _____    ______ ____
ROOT
ATOM      1  N   UNL     1       4.414   2.766  18.521  0.00  0.00    +0.000 N 
ATOM      2  H   UNL     1       4.827   1.828  18.646  0.00  0.00    +0.000 HD
ENDROOT
BRANCH   1   3
ATOM      3  C   UNL     1       3.327   2.956  19.434  0.00  0.00    +0.000 A 
ATOM      4  C   UNL     1       2.095   3.566  19.098  0.00  0.00    +0.000 A 
ATOM      5 CL   UNL     1       1.755   4.236  17.532  0.00  0.00    +0.000 Cl
ATOM      6  C   UNL     1       1.039   3.630  20.021  0.00  0.00    +0.000 A 
ATOM      7  C   UNL     1       1.164   3.059  21.284  0.00  0.00    +0.000 A 
ATOM      8  C   UNL     1       2.349   2.418  21.630  0.00  0.00    +0.000 A 
ATOM      9  C   UNL     1       3.409   2.363  20.717  0.00  0.00    +0.000 A 
ATOM     10 CL   UNL     1       4.848   1.539  21.221  0.00  0.00    +0.000 Cl
ENDBRANCH   1   3
BRANCH   1  13
ATOM     11  O   UNL     1       5.044   4.383  16.427  0.00  0.00    +0.000 OA
ATOM     12  C   UNL     1       5.617   4.583  17.499  0.00  0.00    +0.000 C 
ATOM     13  N   UNL     1       5.412   3.751  18.591  0.00  0.00    +0.000 N 
ATOM     14  H   UNL     1       5.691   4.055  19.521  0.00  0.00    +0.000 HD
BRANCH  12  15
ATOM     15  C   UNL     1       6.544   5.688  17.718  0.00  0.00    +0.000 A 
ATOM     16  C   UNL     1       7.593   5.725  18.619  0.00  0.00    +0.000 A 
ATOM     17  C   UNL     1       8.258   6.985  18.641  0.00  0.00    +0.000 A 
ATOM     18  C   UNL     1       7.709   7.871  17.742  0.00  0.00    +0.000 A 
ATOM     19  S   UNL     1       6.418   7.174  16.866  0.00  0.00    +0.000 S 
ENDBRANCH  12  15
ENDBRANCH   1  13
TORSDOF 3
ENDMDL
MODEL 4
REMARK VINA RESULT:      -6.7      0.800      1.020
REMARK  Name = 
REMARK  3 active torsions:
REMARK  status: ('A' for Active; 'I' for Inactive)
REMARK    1  A    between atoms: C_2  and  C_13
REMARK    2  A    between atoms: N_3  and  N_4
REMARK    3  A    between atoms: N_4  and  C_5
REMARK                            x       y       z     vdW  Elec       q    Type
REMARK                         _______ _______ _______ _____ _____    ______ ____
ROOT
ATOM      1  N   UNL     1       4.161   2.716  18.177  0.00  0.00    +0.000 N 
ATOM      2  H   UNL     1       4.516   1.753  18.065  0.00  0.00    +0.000 HD
ENDROOT
BRANCH   1   3
ATOM      3  C   UNL     1       3.212   2.775  19.248  0.00  0.00    +0.000 A 
ATOM      4  C   UNL     1       3.461   2.326  20.566  0.00  0.00    +0.000 A 
ATOM      5 CL   UNL     1       4.948   1.572  21.055  0.00  0.00    +0.000 Cl
ATOM      6  C   UNL     1       2.515   2.507  21.588  0.00  0.00    +0.000 A 
ATOM      7  C   UNL     1       1.317   3.168  21.337  0.00  0.00    +0.000 A 
ATOM      8  C   UNL     1       1.059   3.655  20.060  0.00  0.00    +0.000 A 
ATOM      9  C   UNL     1       1.995   3.466  19.035  0.00  0.00    +0.000 A 
ATOM     10 CL   UNL     1       1.602   4.110  17.475  0.00  0.00    +0.000 Cl
ENDBRANCH   1   3
BRANCH   1  13
ATOM     11  O   UNL     1       4.617   4.718  16.395  0.00  0.00    +0.000 OA
ATOM     12  C   UNL     1       5.346   4.656  17.385  0.00  0.00    +0.000 C 
ATOM     13  N   UNL     1       5.231   3.617  18.299  0.00  0.00    +0.000 N 
ATOM     14  H   UNL     1       5.658   3.700  19.219  0.00  0.00    +0.000 HD
BRANCH  12  15
ATOM     15  C   UNL     1       6.375   5.645  17.686  0.00  0.00    +0.000 A 
ATOM     16  C   UNL     1       7.359   5.550  18.655  0.00  0.00    +0.000 A 
ATOM     17  C   UNL     1       8.160   6.726  18.745  0.00  0.00    +0.000 A 
ATOM     18  C   UNL     1       7.776   7.681  17.830  0.00  0.00    +0.000 A 
ATOM     19  S   UNL     1       6.476   7.146  16.858  0.00  0.00    +0.000 S 
ENDBRANCH  12  15
ENDBRANCH   1  13
TORSDOF 3
ENDMDL
MODEL 5
REMARK VINA RESULT:      -6.6      2.364      6.244
REMARK  Name = 
REMARK  3 active torsions:
REMARK  status: ('A' for Active; 'I' for Inactive)
REMARK    1  A    between atoms: C_2  and  C_13
REMARK    2  A    between atoms: N_3  and  N_4
REMARK    3  A    between atoms: N_4  and  C_5
REMARK                            x       y       z     vdW  Elec       q    Type
REMARK                         _______ _______ _______ _____ _____    ______ ____
ROOT
ATOM      1  N   UNL     1       6.434   4.069  18.432  0.00  0.00    +0.000 N 
ATOM      2  H   UNL     1       6.351   3.468  17.597  0.00  0.00    +0.000 HD
ENDROOT
BRANCH   1   3
ATOM      3  C   UNL     1       6.917   5.366  18.065  0.00  0.00    +0.000 A 
ATOM      4  C   UNL     1       6.438   6.119  16.966  0.00  0.00    +0.000 A 
ATOM      5 CL   UNL     1       5.231   5.535  15.861  0.00  0.00    +0.000 Cl
ATOM      6  C   UNL     1       6.891   7.426  16.726  0.00  0.00    +0.000 A 
ATOM      7  C   UNL     1       7.800   8.032  17.587  0.00  0.00    +0.000 A 
ATOM      8  C   UNL     1       8.260   7.332  18.698  0.00  0.00    +0.000 A 
ATOM      9  C   UNL     1       7.820   6.024  18.935  0.00  0.00    +0.000 A 
ATOM     10 CL   UNL     1       8.434   5.223  20.344  0.00  0.00    +0.000 Cl
ENDBRANCH   1   3
BRANCH   1  13
ATOM     11  O   UNL     1       4.159   2.908  17.501  0.00  0.00    +0.000 OA
ATOM     12  C   UNL     1       4.131   3.398  18.630  0.00  0.00    +0.000 C 
ATOM     13  N   UNL     1       5.224   4.080  19.146  0.00  0.00    +0.000 N 
ATOM     14  H   UNL     1       5.283   4.266  20.144  0.00  0.00    +0.000 HD
BRANCH  12  15
ATOM     15  C   UNL     1       2.974   3.310  19.513  0.00  0.00    +0.000 A 
ATOM     16  C   UNL     1       1.728   3.876  19.308  0.00  0.00    +0.000 A 
ATOM     17  C   UNL     1       0.839   3.669  20.403  0.00  0.00    +0.000 A 
ATOM     18  C   UNL     1       1.426   2.936  21.409  0.00  0.00    +0.000 A 
ATOM     19  S   UNL     1       3.028   2.484  21.018  0.00  0.00    +0.000 S 
ENDBRANCH  12  15
ENDBRANCH   1  13
TORSDOF 3
ENDMDL
MODEL 6
REMARK VINA RESULT:      -6.6      2.509      6.399
REMARK  Name = 
REMARK  3 active torsions:
REMARK  status: ('A' for Active; 'I' for Inactive)
REMARK    1  A    between atoms: C_2  and  C_13
REMARK    2  A    between atoms: N_3  and  N_4
REMARK    3  A    between atoms: N_4  and  C_5
REMARK                            x       y       z     vdW  Elec       q    Type
REMARK                         _______ _______ _______ _____ _____    ______ ____
ROOT
ATOM      1  N   UNL     1       6.341   3.965  18.490  0.00  0.00    +0.000 N 
ATOM      2  H   UNL     1       6.535   3.250  17.772  0.00  0.00    +0.000 HD
ENDROOT
BRANCH   1   3
ATOM      3  C   UNL     1       6.840   5.240  18.071  0.00  0.00    +0.000 A 
ATOM      4  C   UNL     1       6.405   5.931  16.915  0.00  0.00    +0.000 A 
ATOM      5 CL   UNL     1       5.242   5.287  15.797  0.00  0.00    +0.000 Cl
ATOM      6  C   UNL     1       6.870   7.223  16.621  0.00  0.00    +0.000 A 
ATOM      7  C   UNL     1       7.746   7.875  17.482  0.00  0.00    +0.000 A 
ATOM      8  C   UNL     1       8.161   7.238  18.646  0.00  0.00    +0.000 A 
ATOM      9  C   UNL     1       7.710   5.945  18.937  0.00  0.00    +0.000 A 
ATOM     10 CL   UNL     1       8.267   5.224  20.412  0.00  0.00    +0.000 Cl
ENDBRANCH   1   3
BRANCH   1  13
ATOM     11  O   UNL     1       5.228   2.074  20.096  0.00  0.00    +0.000 OA
ATOM     12  C   UNL     1       4.508   2.998  19.716  0.00  0.00    +0.000 C 
ATOM     13  N   UNL     1       4.978   3.958  18.829  0.00  0.00    +0.000 N 
ATOM     14  H   UNL     1       4.472   4.832  18.710  0.00  0.00    +0.000 HD
BRANCH  12  15
ATOM     15  C   UNL     1       3.126   3.169  20.149  0.00  0.00    +0.000 A 
ATOM     16  C   UNL     1       2.544   2.647  21.291  0.00  0.00    +0.000 A 
ATOM     17  C   UNL     1       1.151   2.935  21.382  0.00  0.00    +0.000 A 
ATOM     18  C   UNL     1       0.711   3.684  20.314  0.00  0.00    +0.000 A 
ATOM     19  S   UNL     1       1.978   4.053  19.228  0.00  0.00    +0.000 S 
ENDBRANCH  12  15
ENDBRANCH   1  13
TORSDOF 3
ENDMDL
MODEL 7
REMARK VINA RESULT:      -6.5      2.588      6.349
REMARK  Name = 
REMARK  3 active torsions:
REMARK  status: ('A' for Active; 'I' for Inactive)
REMARK    1  A    between atoms: C_2  and  C_13
REMARK    2  A    between atoms: N_3  and  N_4
REMARK    3  A    between atoms: N_4  and  C_5
REMARK                            x       y       z     vdW  Elec       q    Type
REMARK                         _______ _______ _______ _____ _____    ______ ____
ROOT
ATOM      1  N   UNL     1       6.403   3.934  18.606  0.00  0.00    +0.000 N 
ATOM      2  H   UNL     1       6.861   3.188  18.058  0.00  0.00    +0.000 HD
ENDROOT
BRANCH   1   3
ATOM      3  C   UNL     1       6.825   5.222  18.143  0.00  0.00    +0.000 A 
ATOM      4  C   UNL     1       6.262   5.899  17.035  0.00  0.00    +0.000 A 
ATOM      5 CL   UNL     1       5.014   5.222  16.033  0.00  0.00    +0.000 Cl
ATOM      6  C   UNL     1       6.661   7.203  16.700  0.00  0.00    +0.000 A 
ATOM      7  C   UNL     1       7.598   7.880  17.474  0.00  0.00    +0.000 A 
ATOM      8  C   UNL     1       8.140   7.255  18.592  0.00  0.00    +0.000 A 
ATOM      9  C   UNL     1       7.754   5.950  18.923  0.00  0.00    +0.000 A 
ATOM     10 CL   UNL     1       8.470   5.246  20.336  0.00  0.00    +0.000 Cl
ENDBRANCH   1   3
BRANCH   1  13
ATOM     11  O   UNL     1       5.162   2.157  20.249  0.00  0.00    +0.000 OA
ATOM     12  C   UNL     1       4.454   2.873  19.539  0.00  0.00    +0.000 C 
ATOM     13  N   UNL     1       5.011   3.747  18.615  0.00  0.00    +0.000 N 
ATOM     14  H   UNL     1       4.446   4.491  18.215  0.00  0.00    +0.000 HD
BRANCH  12  15
ATOM     15  C   UNL     1       2.997   2.871  19.600  0.00  0.00    +0.000 A 
ATOM     16  C   UNL     1       2.128   2.324  18.671  0.00  0.00    +0.000 A 
ATOM     17  C   UNL     1       0.759   2.563  18.989  0.00  0.00    +0.000 A 
ATOM     18  C   UNL     1       0.619   3.271  20.161  0.00  0.00    +0.000 A 
ATOM     19  S   UNL     1       2.130   3.620  20.879  0.00  0.00    +0.000 S 
ENDBRANCH  12  15
ENDBRANCH   1  13
TORSDOF 3
ENDMDL
MODEL 8
REMARK VINA RESULT:      -6.5      2.567      6.091
REMARK  Name = 
REMARK  3 active torsions:
REMARK  status: ('A' for Active; 'I' for Inactive)
REMARK    1  A    between atoms: C_2  and  C_13
REMARK    2  A    between atoms: N_3  and  N_4
REMARK    3  A    between atoms: N_4  and  C_5
REMARK                            x       y       z     vdW  Elec       q    Type
REMARK                         _______ _______ _______ _____ _____    ______ ____
ROOT
ATOM      1  N   UNL     1       6.251   3.875  18.503  0.00  0.00    +0.000 N 
ATOM      2  H   UNL     1       6.485   3.256  17.711  0.00  0.00    +0.000 HD
ENDROOT
BRANCH   1   3
ATOM      3  C   UNL     1       6.710   5.207  18.245  0.00  0.00    +0.000 A 
ATOM      4  C   UNL     1       7.684   5.884  19.017  0.00  0.00    +0.000 A 
ATOM      5 CL   UNL     1       8.415   5.207  20.441  0.00  0.00    +0.000 Cl
ATOM      6  C   UNL     1       8.156   7.153  18.645  0.00  0.00    +0.000 A 
ATOM      7  C   UNL     1       7.702   7.765  17.482  0.00  0.00    +0.000 A 
ATOM      8  C   UNL     1       6.774   7.109  16.680  0.00  0.00    +0.000 A 
ATOM      9  C   UNL     1       6.292   5.849  17.054  0.00  0.00    +0.000 A 
ATOM     10 CL   UNL     1       5.143   5.094  15.998  0.00  0.00    +0.000 Cl
ENDBRANCH   1   3
BRANCH   1  13
ATOM     11  O   UNL     1       5.237   1.980  20.168  0.00  0.00    +0.000 OA
ATOM     12  C   UNL     1       4.462   2.829  19.727  0.00  0.00    +0.000 C 
ATOM     13  N   UNL     1       4.883   3.781  18.808  0.00  0.00    +0.000 N 
ATOM     14  H   UNL     1       4.318   4.608  18.636  0.00  0.00    +0.000 HD
BRANCH  12  15
ATOM     15  C   UNL     1       3.059   2.915  20.118  0.00  0.00    +0.000 A 
ATOM     16  C   UNL     1       2.544   2.781  21.395  0.00  0.00    +0.000 A 
ATOM     17  C   UNL     1       1.120   2.839  21.425  0.00  0.00    +0.000 A 
ATOM     18  C   UNL     1       0.587   3.033  20.171  0.00  0.00    +0.000 A 
ATOM     19  S   UNL     1       1.802   3.168  18.976  0.00  0.00    +0.000 S 
ENDBRANCH  12  15
ENDBRANCH   1  13
TORSDOF 3
ENDMDL
MODEL 9
REMARK VINA RESULT:      -6.4      2.400      2.818
REMARK  Name = 
REMARK  3 active torsions:
REMARK  status: ('A' for Active; 'I' for Inactive)
REMARK    1  A    between atoms: C_2  and  C_13
REMARK    2  A    between atoms: N_3  and  N_4
REMARK    3  A    between atoms: N_4  and  C_5
REMARK                            x       y       z     vdW  Elec       q    Type
REMARK                         _______ _______ _______ _____ _____    ______ ____
ROOT
ATOM      1  N   UNL     1       4.649   5.199  19.518  0.00  0.00    +0.000 N 
ATOM      2  H   UNL     1       4.628   6.169  19.871  0.00  0.00    +0.000 HD
ENDROOT
BRANCH   1   3
ATOM      3  C   UNL     1       3.428   4.525  19.844  0.00  0.00    +0.000 A 
ATOM      4  C   UNL     1       3.328   3.145  20.137  0.00  0.00    +0.000 A 
ATOM      5 CL   UNL     1       4.678   2.054  20.074  0.00  0.00    +0.000 Cl
ATOM      6  C   UNL     1       2.112   2.573  20.544  0.00  0.00    +0.000 A 
ATOM      7  C   UNL     1       0.976   3.360  20.706  0.00  0.00    +0.000 A 
ATOM      8  C   UNL     1       1.052   4.728  20.463  0.00  0.00    +0.000 A 
ATOM      9  C   UNL     1       2.260   5.300  20.045  0.00  0.00    +0.000 A 
ATOM     10 CL   UNL     1       2.274   7.012  19.771  0.00  0.00    +0.000 Cl
ENDBRANCH   1   3
BRANCH   1  13
ATOM     11  O   UNL     1       7.079   4.413  18.585  0.00  0.00    +0.000 OA
ATOM     12  C   UNL     1       6.213   4.698  17.758  0.00  0.00    +0.000 C 
ATOM     13  N   UNL     1       4.974   5.186  18.152  0.00  0.00    +0.000 N 
ATOM     14  H   UNL     1       4.197   5.188  17.496  0.00  0.00    +0.000 HD
BRANCH  12  15
ATOM     15  C   UNL     1       6.400   4.553  16.319  0.00  0.00    +0.000 A 
ATOM     16  C   UNL     1       7.376   5.155  15.544  0.00  0.00    +0.000 A 
ATOM     17  C   UNL     1       7.234   4.868  14.155  0.00  0.00    +0.000 A 
ATOM     18  C   UNL     1       6.162   4.041  13.909  0.00  0.00    +0.000 A 
ATOM     19  S   UNL     1       5.354   3.597  15.348  0.00  0.00    +0.000 S 
ENDBRANCH  12  15
ENDBRANCH   1  13
TORSDOF 3
ENDMDL
