MODEL 1
REMARK VINA RESULT:      -6.8      0.000      0.000
REMARK  Name = 
REMARK  9 active torsions:
REMARK  status: ('A' for Active; 'I' for Inactive)
REMARK    1  A    between atoms: C_1  and  C_2
REMARK    2  A    between atoms: C_2  and  C_3
REMARK    3  A    between atoms: C_3  and  C_4
REMARK    4  A    between atoms: C_4  and  C_5
REMARK    5  A    between atoms: C_4  and  C_8
REMARK    6  A    between atoms: C_5  and  O_7
REMARK    7  A    between atoms: C_9  and  C_10
REMARK    8  A    between atoms: C_18  and  C_19
REMARK    9  A    between atoms: C_22  and  C_23
REMARK                            x       y       z     vdW  Elec       q    Type
REMARK                         _______ _______ _______ _____ _____    ______ ____
ROOT
ATOM      1  C   UNL     1       3.818   5.804  17.918  0.00  0.00    +0.000 A 
ATOM      2  C   UNL     1       4.225   6.826  17.029  0.00  0.00    +0.000 A 
ATOM      3  C   UNL     1       5.160   6.673  15.865  0.00  0.00    +0.000 C 
ATOM      4  N   UNL     1       3.727   8.087  17.072  0.00  0.00    +0.000 NA
ATOM      5  C   UNL     1       2.777   8.415  17.938  0.00  0.00    +0.000 A 
ATOM      6  C   UNL     1       2.296   9.724  17.871  0.00  0.00    +0.000 A 
ATOM      7  C   UNL     1       1.278  10.148  18.707  0.00  0.00    +0.000 A 
ATOM      8  C   UNL     1       0.733   9.269  19.622  0.00  0.00    +0.000 A 
ATOM      9  C   UNL     1       1.182   7.959  19.691  0.00  0.00    +0.000 A 
ATOM     10  C   UNL     1       2.249   7.491  18.860  0.00  0.00    +0.000 A 
ATOM     11  C   UNL     1       2.799   6.148  18.875  0.00  0.00    +0.000 A 
ATOM     12  C   UNL     1      -0.328   9.905  20.459  0.00  0.00    +0.000 C 
ATOM     13  C   UNL     1      -0.480  11.293  19.822  0.00  0.00    +0.000 C 
ATOM     14  C   UNL     1       0.625  11.488  18.769  0.00  0.00    +0.000 C 
ENDROOT
BRANCH  11  15
ATOM     15  C   UNL     1       2.243   5.152  19.859  0.00  0.00    +0.000 A 
ATOM     16  C   UNL     1       2.903   4.861  21.063  0.00  0.00    +0.000 A 
ATOM     17  C   UNL     1       2.461   3.854  21.927  0.00  0.00    +0.000 A 
ATOM     18  C   UNL     1       1.411   3.018  21.557  0.00  0.00    +0.000 A 
ATOM     19  C   UNL     1       1.054   1.826  22.393  0.00  0.00    +0.000 C 
ATOM     20  C   UNL     1       0.724   3.293  20.373  0.00  0.00    +0.000 A 
ATOM     21  C   UNL     1       1.097   4.382  19.572  0.00  0.00    +0.000 A 
ENDBRANCH  11  15
BRANCH   1  22
ATOM     22  C   UNL     1       4.411   4.386  17.826  0.00  0.00    +0.000 C 
BRANCH  22  23
ATOM     23  C   UNL     1       5.940   4.368  17.795  0.00  0.00    +0.000 C 
ATOM     24  O   UNL     1       6.672   4.849  18.647  0.00  0.00    +0.000 OA
BRANCH  23  25
ATOM     25  O   UNL     1       6.445   3.793  16.674  0.00  0.00    +0.000 OA
ATOM     26  H   UNL     1       5.786   3.314  16.134  0.00  0.00    +0.000 HD
ENDBRANCH  23  25
ENDBRANCH  22  23
BRANCH  22  27
ATOM     27  C   UNL     1       3.762   3.546  16.695  0.00  0.00    +0.000 C 
BRANCH  27  29
ATOM     28  C   UNL     1       3.404   1.672  18.343  0.00  0.00    +0.000 C 
ATOM     29  C   UNL     1       2.789   2.472  17.201  0.00  0.00    +0.000 C 
ENDBRANCH  27  29
ENDBRANCH  22  27
ENDBRANCH   1  22
TORSDOF 6
ENDMDL
MODEL 2
REMARK VINA RESULT:      -6.5      1.191      1.958
REMARK  Name = 
REMARK  9 active torsions:
REMARK  status: ('A' for Active; 'I' for Inactive)
REMARK    1  A    between atoms: C_1  and  C_2
REMARK    2  A    between atoms: C_2  and  C_3
REMARK    3  A    between atoms: C_3  and  C_4
REMARK    4  A    between atoms: C_4  and  C_5
REMARK    5  A    between atoms: C_4  and  C_8
REMARK    6  A    between atoms: C_5  and  O_7
REMARK    7  A    between atoms: C_9  and  C_10
REMARK    8  A    between atoms: C_18  and  C_19
REMARK    9  A    between atoms: C_22  and  C_23
REMARK                            x       y       z     vdW  Elec       q    Type
REMARK                         _______ _______ _______ _____ _____    ______ ____
ROOT
ATOM      1  C   UNL     1       3.758   5.827  17.788  0.00  0.00    +0.000 A 
ATOM      2  C   UNL     1       4.144   6.857  16.898  0.00  0.00    +0.000 A 
ATOM      3  C   UNL     1       5.039   6.710  15.702  0.00  0.00    +0.000 C 
ATOM      4  N   UNL     1       3.658   8.121  16.971  0.00  0.00    +0.000 NA
ATOM      5  C   UNL     1       2.739   8.446  17.871  0.00  0.00    +0.000 A 
ATOM      6  C   UNL     1       2.266   9.759  17.835  0.00  0.00    +0.000 A 
ATOM      7  C   UNL     1       1.280  10.181  18.708  0.00  0.00    +0.000 A 
ATOM      8  C   UNL     1       0.759   9.296  19.631  0.00  0.00    +0.000 A 
ATOM      9  C   UNL     1       1.199   7.983  19.671  0.00  0.00    +0.000 A 
ATOM     10  C   UNL     1       2.235   7.515  18.800  0.00  0.00    +0.000 A 
ATOM     11  C   UNL     1       2.774   6.168  18.782  0.00  0.00    +0.000 A 
ATOM     12  C   UNL     1      -0.270   9.930  20.510  0.00  0.00    +0.000 C 
ATOM     13  C   UNL     1      -0.432  11.327  19.893  0.00  0.00    +0.000 C 
ATOM     14  C   UNL     1       0.639  11.526  18.807  0.00  0.00    +0.000 C 
ENDROOT
BRANCH  11  15
ATOM     15  C   UNL     1       2.243   5.166  19.773  0.00  0.00    +0.000 A 
ATOM     16  C   UNL     1       2.929   4.871  20.961  0.00  0.00    +0.000 A 
ATOM     17  C   UNL     1       2.510   3.858  21.830  0.00  0.00    +0.000 A 
ATOM     18  C   UNL     1       1.456   3.020  21.478  0.00  0.00    +0.000 A 
ATOM     19  C   UNL     1       1.121   1.823  22.316  0.00  0.00    +0.000 C 
ATOM     20  C   UNL     1       0.742   3.298  20.310  0.00  0.00    +0.000 A 
ATOM     21  C   UNL     1       1.093   4.393  19.507  0.00  0.00    +0.000 A 
ENDBRANCH  11  15
BRANCH   1  22
ATOM     22  C   UNL     1       4.337   4.406  17.661  0.00  0.00    +0.000 C 
BRANCH  22  23
ATOM     23  C   UNL     1       3.271   3.336  17.427  0.00  0.00    +0.000 C 
ATOM     24  O   UNL     1       2.320   3.434  16.665  0.00  0.00    +0.000 OA
BRANCH  23  25
ATOM     25  O   UNL     1       3.441   2.235  18.203  0.00  0.00    +0.000 OA
ATOM     26  H   UNL     1       3.117   2.332  19.120  0.00  0.00    +0.000 HD
ENDBRANCH  23  25
ENDBRANCH  22  23
BRANCH  22  27
ATOM     27  C   UNL     1       5.315   4.061  18.814  0.00  0.00    +0.000 C 
BRANCH  27  29
ATOM     28  C   UNL     1       7.475   5.257  18.302  0.00  0.00    +0.000 C 
ATOM     29  C   UNL     1       6.247   5.217  19.204  0.00  0.00    +0.000 C 
ENDBRANCH  27  29
ENDBRANCH  22  27
ENDBRANCH   1  22
TORSDOF 6
ENDMDL
MODEL 3
REMARK VINA RESULT:      -6.4      2.307      4.745
REMARK  Name = 
REMARK  9 active torsions:
REMARK  status: ('A' for Active; 'I' for Inactive)
REMARK    1  A    between atoms: C_1  and  C_2
REMARK    2  A    between atoms: C_2  and  C_3
REMARK    3  A    between atoms: C_3  and  C_4
REMARK    4  A    between atoms: C_4  and  C_5
REMARK    5  A    between atoms: C_4  and  C_8
REMARK    6  A    between atoms: C_5  and  O_7
REMARK    7  A    between atoms: C_9  and  C_10
REMARK    8  A    between atoms: C_18  and  C_19
REMARK    9  A    between atoms: C_22  and  C_23
REMARK                            x       y       z     vdW  Elec       q    Type
REMARK                         _______ _______ _______ _____ _____    ______ ____
ROOT
ATOM      1  C   UNL     1       3.314   4.108  19.683  0.00  0.00    +0.000 A 
ATOM      2  C   UNL     1       2.433   4.253  20.780  0.00  0.00    +0.000 A 
ATOM      3  C   UNL     1       2.229   3.268  21.893  0.00  0.00    +0.000 C 
ATOM      4  N   UNL     1       1.712   5.379  21.007  0.00  0.00    +0.000 NA
ATOM      5  C   UNL     1       1.841   6.441  20.222  0.00  0.00    +0.000 A 
ATOM      6  C   UNL     1       1.093   7.568  20.568  0.00  0.00    +0.000 A 
ATOM      7  C   UNL     1       1.191   8.735  19.832  0.00  0.00    +0.000 A 
ATOM      8  C   UNL     1       2.034   8.787  18.739  0.00  0.00    +0.000 A 
ATOM      9  C   UNL     1       2.800   7.686  18.391  0.00  0.00    +0.000 A 
ATOM     10  C   UNL     1       2.709   6.454  19.113  0.00  0.00    +0.000 A 
ATOM     11  C   UNL     1       3.454   5.245  18.811  0.00  0.00    +0.000 A 
ATOM     12  C   UNL     1       1.988  10.111  18.048  0.00  0.00    +0.000 C 
ATOM     13  C   UNL     1       1.093  10.949  18.972  0.00  0.00    +0.000 C 
ATOM     14  C   UNL     1       0.494  10.036  20.056  0.00  0.00    +0.000 C 
ENDROOT
BRANCH  11  15
ATOM     15  C   UNL     1       4.383   5.248  17.626  0.00  0.00    +0.000 A 
ATOM     16  C   UNL     1       4.121   4.476  16.483  0.00  0.00    +0.000 A 
ATOM     17  C   UNL     1       5.033   4.376  15.428  0.00  0.00    +0.000 A 
ATOM     18  C   UNL     1       6.297   4.951  15.533  0.00  0.00    +0.000 A 
ATOM     19  C   UNL     1       7.340   4.694  14.488  0.00  0.00    +0.000 C 
ATOM     20  C   UNL     1       6.581   5.739  16.650  0.00  0.00    +0.000 A 
ATOM     21  C   UNL     1       5.615   5.935  17.647  0.00  0.00    +0.000 A 
ENDBRANCH  11  15
BRANCH   1  22
ATOM     22  C   UNL     1       4.113   2.809  19.470  0.00  0.00    +0.000 C 
BRANCH  22  23
ATOM     23  C   UNL     1       3.357   1.757  18.658  0.00  0.00    +0.000 C 
ATOM     24  O   UNL     1       2.182   1.454  18.809  0.00  0.00    +0.000 OA
BRANCH  23  25
ATOM     25  O   UNL     1       4.137   1.123  17.747  0.00  0.00    +0.000 OA
ATOM     26  H   UNL     1       5.040   0.916  18.062  0.00  0.00    +0.000 HD
ENDBRANCH  23  25
ENDBRANCH  22  23
BRANCH  22  27
ATOM     27  C   UNL     1       4.708   2.257  20.792  0.00  0.00    +0.000 C 
BRANCH  27  29
ATOM     28  C   UNL     1       5.944   0.398  21.963  0.00  0.00    +0.000 C 
ATOM     29  C   UNL     1       5.235   0.819  20.682  0.00  0.00    +0.000 C 
ENDBRANCH  27  29
ENDBRANCH  22  27
ENDBRANCH   1  22
TORSDOF 6
ENDMDL
MODEL 4
REMARK VINA RESULT:      -6.4      2.337      4.846
REMARK  Name = 
REMARK  9 active torsions:
REMARK  status: ('A' for Active; 'I' for Inactive)
REMARK    1  A    between atoms: C_1  and  C_2
REMARK    2  A    between atoms: C_2  and  C_3
REMARK    3  A    between atoms: C_3  and  C_4
REMARK    4  A    between atoms: C_4  and  C_5
REMARK    5  A    between atoms: C_4  and  C_8
REMARK    6  A    between atoms: C_5  and  O_7
REMARK    7  A    between atoms: C_9  and  C_10
REMARK    8  A    between atoms: C_18  and  C_19
REMARK    9  A    between atoms: C_22  and  C_23
REMARK                            x       y       z     vdW  Elec       q    Type
REMARK                         _______ _______ _______ _____ _____    ______ ____
ROOT
ATOM      1  C   UNL     1       3.444   3.778  19.702  0.00  0.00    +0.000 A 
ATOM      2  C   UNL     1       2.527   4.005  20.755  0.00  0.00    +0.000 A 
ATOM      3  C   UNL     1       2.249   3.082  21.905  0.00  0.00    +0.000 C 
ATOM      4  N   UNL     1       1.837   5.163  20.900  0.00  0.00    +0.000 NA
ATOM      5  C   UNL     1       2.031   6.180  20.072  0.00  0.00    +0.000 A 
ATOM      6  C   UNL     1       1.309   7.346  20.334  0.00  0.00    +0.000 A 
ATOM      7  C   UNL     1       1.473   8.473  19.548  0.00  0.00    +0.000 A 
ATOM      8  C   UNL     1       2.358   8.445  18.488  0.00  0.00    +0.000 A 
ATOM      9  C   UNL     1       3.100   7.305  18.223  0.00  0.00    +0.000 A 
ATOM     10  C   UNL     1       2.940   6.112  18.998  0.00  0.00    +0.000 A 
ATOM     11  C   UNL     1       3.655   4.867  18.783  0.00  0.00    +0.000 A 
ATOM     12  C   UNL     1       2.383   9.734  17.734  0.00  0.00    +0.000 C 
ATOM     13  C   UNL     1       1.483  10.644  18.581  0.00  0.00    +0.000 C 
ATOM     14  C   UNL     1       0.813   9.804  19.683  0.00  0.00    +0.000 C 
ENDROOT
BRANCH  11  15
ATOM     15  C   UNL     1       4.627   4.783  17.637  0.00  0.00    +0.000 A 
ATOM     16  C   UNL     1       5.917   5.330  17.724  0.00  0.00    +0.000 A 
ATOM     17  C   UNL     1       6.785   5.364  16.628  0.00  0.00    +0.000 A 
ATOM     18  C   UNL     1       6.348   4.961  15.370  0.00  0.00    +0.000 A 
ATOM     19  C   UNL     1       7.210   5.166  14.160  0.00  0.00    +0.000 C 
ATOM     20  C   UNL     1       5.076   4.397  15.254  0.00  0.00    +0.000 A 
ATOM     21  C   UNL     1       4.257   4.253  16.383  0.00  0.00    +0.000 A 
ENDBRANCH  11  15
BRANCH   1  22
ATOM     22  C   UNL     1       4.207   2.446  19.582  0.00  0.00    +0.000 C 
BRANCH  22  23
ATOM     23  C   UNL     1       3.540   1.449  18.635  0.00  0.00    +0.000 C 
ATOM     24  O   UNL     1       4.113   0.785  17.784  0.00  0.00    +0.000 OA
BRANCH  23  25
ATOM     25  O   UNL     1       2.192   1.389  18.785  0.00  0.00    +0.000 OA
ATOM     26  H   UNL     1       1.747   0.748  18.196  0.00  0.00    +0.000 HD
ENDBRANCH  23  25
ENDBRANCH  22  23
BRANCH  22  27
ATOM     27  C   UNL     1       4.561   1.841  20.966  0.00  0.00    +0.000 C 
BRANCH  27  29
ATOM     28  C   UNL     1       6.128   0.322  22.227  0.00  0.00    +0.000 C 
ATOM     29  C   UNL     1       5.456   0.597  20.887  0.00  0.00    +0.000 C 
ENDBRANCH  27  29
ENDBRANCH  22  27
ENDBRANCH   1  22
TORSDOF 6
ENDMDL
MODEL 5
REMARK VINA RESULT:      -6.3      0.936      1.372
REMARK  Name = 
REMARK  9 active torsions:
REMARK  status: ('A' for Active; 'I' for Inactive)
REMARK    1  A    between atoms: C_1  and  C_2
REMARK    2  A    between atoms: C_2  and  C_3
REMARK    3  A    between atoms: C_3  and  C_4
REMARK    4  A    between atoms: C_4  and  C_5
REMARK    5  A    between atoms: C_4  and  C_8
REMARK    6  A    between atoms: C_5  and  O_7
REMARK    7  A    between atoms: C_9  and  C_10
REMARK    8  A    between atoms: C_18  and  C_19
REMARK    9  A    between atoms: C_22  and  C_23
REMARK                            x       y       z     vdW  Elec       q    Type
REMARK                         _______ _______ _______ _____ _____    ______ ____
ROOT
ATOM      1  C   UNL     1       3.754   5.998  17.744  0.00  0.00    +0.000 A 
ATOM      2  C   UNL     1       4.138   7.059  16.892  0.00  0.00    +0.000 A 
ATOM      3  C   UNL     1       5.055   6.962  15.708  0.00  0.00    +0.000 C 
ATOM      4  N   UNL     1       3.631   8.313  16.994  0.00  0.00    +0.000 NA
ATOM      5  C   UNL     1       2.692   8.597  17.888  0.00  0.00    +0.000 A 
ATOM      6  C   UNL     1       2.199   9.903  17.883  0.00  0.00    +0.000 A 
ATOM      7  C   UNL     1       1.192  10.284  18.751  0.00  0.00    +0.000 A 
ATOM      8  C   UNL     1       0.669   9.363  19.638  0.00  0.00    +0.000 A 
ATOM      9  C   UNL     1       1.130   8.056  19.646  0.00  0.00    +0.000 A 
ATOM     10  C   UNL     1       2.187   7.631  18.780  0.00  0.00    +0.000 A 
ATOM     11  C   UNL     1       2.748   6.294  18.731  0.00  0.00    +0.000 A 
ATOM     12  C   UNL     1      -0.384   9.955  20.517  0.00  0.00    +0.000 C 
ATOM     13  C   UNL     1      -0.558  11.367  19.940  0.00  0.00    +0.000 C 
ATOM     14  C   UNL     1       0.529  11.615  18.879  0.00  0.00    +0.000 C 
ENDROOT
BRANCH  11  15
ATOM     15  C   UNL     1       2.216   5.254  19.682  0.00  0.00    +0.000 A 
ATOM     16  C   UNL     1       2.749   5.094  20.971  0.00  0.00    +0.000 A 
ATOM     17  C   UNL     1       2.347   4.057  21.818  0.00  0.00    +0.000 A 
ATOM     18  C   UNL     1       1.483   3.067  21.358  0.00  0.00    +0.000 A 
ATOM     19  C   UNL     1       1.193   1.858  22.196  0.00  0.00    +0.000 C 
ATOM     20  C   UNL     1       0.923   3.206  20.087  0.00  0.00    +0.000 A 
ATOM     21  C   UNL     1       1.237   4.317  19.290  0.00  0.00    +0.000 A 
ENDBRANCH  11  15
BRANCH   1  22
ATOM     22  C   UNL     1       4.357   4.590  17.585  0.00  0.00    +0.000 C 
BRANCH  22  23
ATOM     23  C   UNL     1       5.632   4.380  18.402  0.00  0.00    +0.000 C 
ATOM     24  O   UNL     1       6.650   5.050  18.314  0.00  0.00    +0.000 OA
BRANCH  23  25
ATOM     25  O   UNL     1       5.560   3.313  19.238  0.00  0.00    +0.000 OA
ATOM     26  H   UNL     1       6.271   2.654  19.114  0.00  0.00    +0.000 HD
ENDBRANCH  23  25
ENDBRANCH  22  23
BRANCH  22  27
ATOM     27  C   UNL     1       4.502   4.174  16.098  0.00  0.00    +0.000 C 
BRANCH  27  29
ATOM     28  C   UNL     1       6.252   3.859  14.310  0.00  0.00    +0.000 C 
ATOM     29  C   UNL     1       5.869   3.564  15.756  0.00  0.00    +0.000 C 
ENDBRANCH  27  29
ENDBRANCH  22  27
ENDBRANCH   1  22
TORSDOF 6
ENDMDL
MODEL 6
REMARK VINA RESULT:      -6.2      1.168      2.181
REMARK  Name = 
REMARK  9 active torsions:
REMARK  status: ('A' for Active; 'I' for Inactive)
REMARK    1  A    between atoms: C_1  and  C_2
REMARK    2  A    between atoms: C_2  and  C_3
REMARK    3  A    between atoms: C_3  and  C_4
REMARK    4  A    between atoms: C_4  and  C_5
REMARK    5  A    between atoms: C_4  and  C_8
REMARK    6  A    between atoms: C_5  and  O_7
REMARK    7  A    between atoms: C_9  and  C_10
REMARK    8  A    between atoms: C_18  and  C_19
REMARK    9  A    between atoms: C_22  and  C_23
REMARK                            x       y       z     vdW  Elec       q    Type
REMARK                         _______ _______ _______ _____ _____    ______ ____
ROOT
ATOM      1  C   UNL     1       3.927   5.733  17.567  0.00  0.00    +0.000 A 
ATOM      2  C   UNL     1       4.222   6.852  16.754  0.00  0.00    +0.000 A 
ATOM      3  C   UNL     1       5.067   6.852  15.514  0.00  0.00    +0.000 C 
ATOM      4  N   UNL     1       3.682   8.079  16.957  0.00  0.00    +0.000 NA
ATOM      5  C   UNL     1       2.792   8.281  17.920  0.00  0.00    +0.000 A 
ATOM      6  C   UNL     1       2.257   9.567  18.018  0.00  0.00    +0.000 A 
ATOM      7  C   UNL     1       1.294   9.863  18.965  0.00  0.00    +0.000 A 
ATOM      8  C   UNL     1       0.857   8.878  19.829  0.00  0.00    +0.000 A 
ATOM      9  C   UNL     1       1.360   7.590  19.736  0.00  0.00    +0.000 A 
ATOM     10  C   UNL     1       2.374   7.250  18.785  0.00  0.00    +0.000 A 
ATOM     11  C   UNL     1       2.975   5.938  18.628  0.00  0.00    +0.000 A 
ATOM     12  C   UNL     1      -0.158   9.383  20.802  0.00  0.00    +0.000 C 
ATOM     13  C   UNL     1      -0.413  10.817  20.316  0.00  0.00    +0.000 C 
ATOM     14  C   UNL     1       0.596  11.160  19.207  0.00  0.00    +0.000 C 
ENDROOT
BRANCH  11  15
ATOM     15  C   UNL     1       2.537   4.830  19.549  0.00  0.00    +0.000 A 
ATOM     16  C   UNL     1       1.323   4.152  19.360  0.00  0.00    +0.000 A 
ATOM     17  C   UNL     1       0.850   3.206  20.275  0.00  0.00    +0.000 A 
ATOM     18  C   UNL     1       1.518   2.993  21.477  0.00  0.00    +0.000 A 
ATOM     19  C   UNL     1       0.920   2.119  22.538  0.00  0.00    +0.000 C 
ATOM     20  C   UNL     1       2.738   3.640  21.687  0.00  0.00    +0.000 A 
ATOM     21  C   UNL     1       3.267   4.494  20.709  0.00  0.00    +0.000 A 
ENDBRANCH  11  15
BRANCH   1  22
ATOM     22  C   UNL     1       4.564   4.359  17.293  0.00  0.00    +0.000 C 
BRANCH  22  23
ATOM     23  C   UNL     1       3.543   3.227  17.184  0.00  0.00    +0.000 C 
ATOM     24  O   UNL     1       2.492   3.276  16.561  0.00  0.00    +0.000 OA
BRANCH  23  25
ATOM     25  O   UNL     1       3.884   2.128  17.904  0.00  0.00    +0.000 OA
ATOM     26  H   UNL     1       4.370   1.447  17.398  0.00  0.00    +0.000 HD
ENDBRANCH  23  25
ENDBRANCH  22  23
BRANCH  22  27
ATOM     27  C   UNL     1       5.732   4.044  18.265  0.00  0.00    +0.000 C 
BRANCH  27  29
ATOM     28  C   UNL     1       7.448   5.803  18.826  0.00  0.00    +0.000 C 
ATOM     29  C   UNL     1       7.065   4.688  17.861  0.00  0.00    +0.000 C 
ENDBRANCH  27  29
ENDBRANCH  22  27
ENDBRANCH   1  22
TORSDOF 6
ENDMDL
MODEL 7
REMARK VINA RESULT:      -6.0      2.901      6.551
REMARK  Name = 
REMARK  9 active torsions:
REMARK  status: ('A' for Active; 'I' for Inactive)
REMARK    1  A    between atoms: C_1  and  C_2
REMARK    2  A    between atoms: C_2  and  C_3
REMARK    3  A    between atoms: C_3  and  C_4
REMARK    4  A    between atoms: C_4  and  C_5
REMARK    5  A    between atoms: C_4  and  C_8
REMARK    6  A    between atoms: C_5  and  O_7
REMARK    7  A    between atoms: C_9  and  C_10
REMARK    8  A    between atoms: C_18  and  C_19
REMARK    9  A    between atoms: C_22  and  C_23
REMARK                            x       y       z     vdW  Elec       q    Type
REMARK                         _______ _______ _______ _____ _____    ______ ____
ROOT
ATOM      1  C   UNL     1       5.541   5.930  17.401  0.00  0.00    +0.000 A 
ATOM      2  C   UNL     1       6.673   6.603  16.884  0.00  0.00    +0.000 A 
ATOM      3  C   UNL     1       7.512   7.616  17.606  0.00  0.00    +0.000 C 
ATOM      4  N   UNL     1       7.202   6.335  15.664  0.00  0.00    +0.000 NA
ATOM      5  C   UNL     1       6.702   5.371  14.902  0.00  0.00    +0.000 A 
ATOM      6  C   UNL     1       7.347   5.139  13.685  0.00  0.00    +0.000 A 
ATOM      7  C   UNL     1       6.922   4.130  12.840  0.00  0.00    +0.000 A 
ATOM      8  C   UNL     1       5.846   3.343  13.201  0.00  0.00    +0.000 A 
ATOM      9  C   UNL     1       5.205   3.543  14.412  0.00  0.00    +0.000 A 
ATOM     10  C   UNL     1       5.599   4.593  15.302  0.00  0.00    +0.000 A 
ATOM     11  C   UNL     1       4.976   4.891  16.579  0.00  0.00    +0.000 A 
ATOM     12  C   UNL     1       5.509   2.328  12.158  0.00  0.00    +0.000 C 
ATOM     13  C   UNL     1       6.647   2.492  11.140  0.00  0.00    +0.000 C 
ATOM     14  C   UNL     1       7.491   3.721  11.523  0.00  0.00    +0.000 C 
ENDROOT
BRANCH  11  15
ATOM     15  C   UNL     1       3.794   4.066  17.015  0.00  0.00    +0.000 A 
ATOM     16  C   UNL     1       2.500   4.607  17.072  0.00  0.00    +0.000 A 
ATOM     17  C   UNL     1       1.417   3.889  17.588  0.00  0.00    +0.000 A 
ATOM     18  C   UNL     1       1.615   2.644  18.180  0.00  0.00    +0.000 A 
ATOM     19  C   UNL     1       0.493   1.953  18.896  0.00  0.00    +0.000 C 
ATOM     20  C   UNL     1       2.887   2.072  18.124  0.00  0.00    +0.000 A 
ATOM     21  C   UNL     1       3.943   2.748  17.494  0.00  0.00    +0.000 A 
ENDBRANCH  11  15
BRANCH   1  22
ATOM     22  C   UNL     1       4.980   6.269  18.794  0.00  0.00    +0.000 C 
BRANCH  22  23
ATOM     23  C   UNL     1       5.072   5.108  19.784  0.00  0.00    +0.000 C 
ATOM     24  O   UNL     1       6.057   4.408  19.969  0.00  0.00    +0.000 OA
BRANCH  23  25
ATOM     25  O   UNL     1       3.906   4.871  20.438  0.00  0.00    +0.000 OA
ATOM     26  H   UNL     1       3.118   5.264  20.015  0.00  0.00    +0.000 HD
ENDBRANCH  23  25
ENDBRANCH  22  23
BRANCH  22  27
ATOM     27  C   UNL     1       3.569   6.909  18.723  0.00  0.00    +0.000 C 
BRANCH  27  29
ATOM     28  C   UNL     1       2.176   8.812  17.831  0.00  0.00    +0.000 C 
ATOM     29  C   UNL     1       3.419   7.957  17.612  0.00  0.00    +0.000 C 
ENDBRANCH  27  29
ENDBRANCH  22  27
ENDBRANCH   1  22
TORSDOF 6
ENDMDL
MODEL 8
REMARK VINA RESULT:      -6.0      5.831      9.032
REMARK  Name = 
REMARK  9 active torsions:
REMARK  status: ('A' for Active; 'I' for Inactive)
REMARK    1  A    between atoms: C_1  and  C_2
REMARK    2  A    between atoms: C_2  and  C_3
REMARK    3  A    between atoms: C_3  and  C_4
REMARK    4  A    between atoms: C_4  and  C_5
REMARK    5  A    between atoms: C_4  and  C_8
REMARK    6  A    between atoms: C_5  and  O_7
REMARK    7  A    between atoms: C_9  and  C_10
REMARK    8  A    between atoms: C_18  and  C_19
REMARK    9  A    between atoms: C_22  and  C_23
REMARK                            x       y       z     vdW  Elec       q    Type
REMARK                         _______ _______ _______ _____ _____    ______ ____
ROOT
ATOM      1  C   UNL     1      -1.136  11.426  20.003  0.00  0.00    +0.000 A 
ATOM      2  C   UNL     1      -1.290  10.816  18.736  0.00  0.00    +0.000 A 
ATOM      3  C   UNL     1      -0.339   9.850  18.092  0.00  0.00    +0.000 C 
ATOM      4  N   UNL     1      -2.398  10.969  17.969  0.00  0.00    +0.000 NA
ATOM      5  C   UNL     1      -3.435  11.673  18.404  0.00  0.00    +0.000 A 
ATOM      6  C   UNL     1      -4.548  11.731  17.562  0.00  0.00    +0.000 A 
ATOM      7  C   UNL     1      -5.691  12.409  17.946  0.00  0.00    +0.000 A 
ATOM      8  C   UNL     1      -5.733  13.040  19.173  0.00  0.00    +0.000 A 
ATOM      9  C   UNL     1      -4.648  12.978  20.032  0.00  0.00    +0.000 A 
ATOM     10  C   UNL     1      -3.439  12.308  19.662  0.00  0.00    +0.000 A 
ATOM     11  C   UNL     1      -2.247  12.208  20.483  0.00  0.00    +0.000 A 
ATOM     12  C   UNL     1      -7.029  13.746  19.406  0.00  0.00    +0.000 C 
ATOM     13  C   UNL     1      -7.868  13.331  18.189  0.00  0.00    +0.000 C 
ATOM     14  C   UNL     1      -6.974  12.563  17.199  0.00  0.00    +0.000 C 
ENDROOT
BRANCH  11  15
ATOM     15  C   UNL     1      -2.239  12.884  21.828  0.00  0.00    +0.000 A 
ATOM     16  C   UNL     1      -2.879  12.316  22.941  0.00  0.00    +0.000 A 
ATOM     17  C   UNL     1      -2.982  12.989  24.163  0.00  0.00    +0.000 A 
ATOM     18  C   UNL     1      -2.554  14.309  24.278  0.00  0.00    +0.000 A 
ATOM     19  C   UNL     1      -2.827  15.093  25.527  0.00  0.00    +0.000 C 
ATOM     20  C   UNL     1      -1.898  14.895  23.195  0.00  0.00    +0.000 A 
ATOM     21  C   UNL     1      -1.689  14.169  22.012  0.00  0.00    +0.000 A 
ENDBRANCH  11  15
BRANCH   1  22
ATOM     22  C   UNL     1       0.141  11.219  20.837  0.00  0.00    +0.000 C 
BRANCH  22  23
ATOM     23  C   UNL     1       1.234  12.245  20.538  0.00  0.00    +0.000 C 
ATOM     24  O   UNL     1       1.601  13.132  21.294  0.00  0.00    +0.000 OA
BRANCH  23  25
ATOM     25  O   UNL     1       1.757  12.119  19.292  0.00  0.00    +0.000 OA
ATOM     26  H   UNL     1       1.387  11.380  18.770  0.00  0.00    +0.000 HD
ENDBRANCH  23  25
ENDBRANCH  22  23
BRANCH  22  27
ATOM     27  C   UNL     1       0.644   9.752  20.794  0.00  0.00    +0.000 C 
BRANCH  27  29
ATOM     28  C   UNL     1      -0.215   9.644  23.162  0.00  0.00    +0.000 C 
ATOM     29  C   UNL     1       0.826   9.118  22.181  0.00  0.00    +0.000 C 
ENDBRANCH  27  29
ENDBRANCH  22  27
ENDBRANCH   1  22
TORSDOF 6
ENDMDL
MODEL 9
REMARK VINA RESULT:      -6.0      0.435      1.002
REMARK  Name = 
REMARK  9 active torsions:
REMARK  status: ('A' for Active; 'I' for Inactive)
REMARK    1  A    between atoms: C_1  and  C_2
REMARK    2  A    between atoms: C_2  and  C_3
REMARK    3  A    between atoms: C_3  and  C_4
REMARK    4  A    between atoms: C_4  and  C_5
REMARK    5  A    between atoms: C_4  and  C_8
REMARK    6  A    between atoms: C_5  and  O_7
REMARK    7  A    between atoms: C_9  and  C_10
REMARK    8  A    between atoms: C_18  and  C_19
REMARK    9  A    between atoms: C_22  and  C_23
REMARK                            x       y       z     vdW  Elec       q    Type
REMARK                         _______ _______ _______ _____ _____    ______ ____
ROOT
ATOM      1  C   UNL     1       3.914   5.673  17.682  0.00  0.00    +0.000 A 
ATOM      2  C   UNL     1       4.234   6.780  16.862  0.00  0.00    +0.000 A 
ATOM      3  C   UNL     1       5.091   6.757  15.631  0.00  0.00    +0.000 C 
ATOM      4  N   UNL     1       3.710   8.017  17.050  0.00  0.00    +0.000 NA
ATOM      5  C   UNL     1       2.814   8.240  18.002  0.00  0.00    +0.000 A 
ATOM      6  C   UNL     1       2.298   9.535  18.084  0.00  0.00    +0.000 A 
ATOM      7  C   UNL     1       1.331   9.854  19.019  0.00  0.00    +0.000 A 
ATOM      8  C   UNL     1       0.871   8.883  19.887  0.00  0.00    +0.000 A 
ATOM      9  C   UNL     1       1.355   7.587  19.810  0.00  0.00    +0.000 A 
ATOM     10  C   UNL     1       2.373   7.224  18.872  0.00  0.00    +0.000 A 
ATOM     11  C   UNL     1       2.955   5.902  18.732  0.00  0.00    +0.000 A 
ATOM     12  C   UNL     1      -0.146   9.412  20.845  0.00  0.00    +0.000 C 
ATOM     13  C   UNL     1      -0.375  10.845  20.345  0.00  0.00    +0.000 C 
ATOM     14  C   UNL     1       0.651  11.164  19.243  0.00  0.00    +0.000 C 
ENDROOT
BRANCH  11  15
ATOM     15  C   UNL     1       2.492   4.809  19.659  0.00  0.00    +0.000 A 
ATOM     16  C   UNL     1       1.273   4.142  19.459  0.00  0.00    +0.000 A 
ATOM     17  C   UNL     1       0.777   3.211  20.376  0.00  0.00    +0.000 A 
ATOM     18  C   UNL     1       1.425   3.004  21.591  0.00  0.00    +0.000 A 
ATOM     19  C   UNL     1       0.802   2.147  22.652  0.00  0.00    +0.000 C 
ATOM     20  C   UNL     1       2.649   3.639  21.812  0.00  0.00    +0.000 A 
ATOM     21  C   UNL     1       3.201   4.478  20.832  0.00  0.00    +0.000 A 
ENDBRANCH  11  15
BRANCH   1  22
ATOM     22  C   UNL     1       4.534   4.287  17.426  0.00  0.00    +0.000 C 
BRANCH  22  23
ATOM     23  C   UNL     1       6.038   4.335  17.160  0.00  0.00    +0.000 C 
ATOM     24  O   UNL     1       6.866   4.896  17.862  0.00  0.00    +0.000 OA
BRANCH  23  25
ATOM     25  O   UNL     1       6.396   3.719  16.004  0.00  0.00    +0.000 OA
ATOM     26  H   UNL     1       7.252   4.014  15.636  0.00  0.00    +0.000 HD
ENDBRANCH  23  25
ENDBRANCH  22  23
BRANCH  22  27
ATOM     27  C   UNL     1       3.745   3.474  16.366  0.00  0.00    +0.000 C 
BRANCH  27  29
ATOM     28  C   UNL     1       3.611   1.690  18.143  0.00  0.00    +0.000 C 
ATOM     29  C   UNL     1       2.901   2.337  16.960  0.00  0.00    +0.000 C 
ENDBRANCH  27  29
ENDBRANCH  22  27
ENDBRANCH   1  22
TORSDOF 6
ENDMDL
