MODEL 1
REMARK VINA RESULT:      -6.1      0.000      0.000
REMARK  Name = 
REMARK  9 active torsions:
REMARK  status: ('A' for Active; 'I' for Inactive)
REMARK    1  A    between atoms: C_1  and  O_2
REMARK    2  A    between atoms: O_2  and  C_3
REMARK    3  A    between atoms: C_3  and  C_4
REMARK    4  A    between atoms: C_4  and  C_5
REMARK    5  A    between atoms: C_4  and  N_8
REMARK    6  A    between atoms: C_10  and  C_11
REMARK    7  A    between atoms: N_14  and  C_15
REMARK    8  A    between atoms: C_19  and  O_20
REMARK    9  A    between atoms: O_20  and  C_21
REMARK                            x       y       z     vdW  Elec       q    Type
REMARK                         _______ _______ _______ _____ _____    ______ ____
ROOT
ATOM      1  N   UNL     1       2.098   7.816  19.181  0.00  0.00    +0.000 N 
ATOM      2  N   UNL     1       1.957   7.831  20.551  0.00  0.00    +0.000 NA
ATOM      3  C   UNL     1       1.330   8.820  21.105  0.00  0.00    +0.000 A 
ATOM      4  C   UNL     1       1.064   8.808  22.582  0.00  0.00    +0.000 C 
ATOM      5  N   UNL     1       0.815   9.907  20.462  0.00  0.00    +0.000 NA
ATOM      6  C   UNL     1       0.882   9.939  19.166  0.00  0.00    +0.000 A 
ATOM      7  N   UNL     1       0.296  10.934  18.406  0.00  0.00    +0.000 N 
ATOM      8  C   UNL     1       1.623   8.849  18.395  0.00  0.00    +0.000 A 
ATOM      9  O   UNL     1       1.711   8.975  17.178  0.00  0.00    +0.000 OA
ATOM     10  H   UNL     1       0.421  10.797  17.402  0.00  0.00    +0.000 HD
ENDROOT
BRANCH   7  11
ATOM     11  C   UNL     1      -0.960  11.532  18.703  0.00  0.00    +0.000 A 
ATOM     12  C   UNL     1      -2.122  11.012  18.096  0.00  0.00    +0.000 A 
ATOM     13 CL   UNL     1      -2.023   9.738  16.924  0.00  0.00    +0.000 Cl
ATOM     14  C   UNL     1      -3.399  11.495  18.410  0.00  0.00    +0.000 A 
ATOM     15  C   UNL     1      -3.556  12.487  19.374  0.00  0.00    +0.000 A 
ATOM     16  C   UNL     1      -2.429  13.026  19.983  0.00  0.00    +0.000 A 
ATOM     17  C   UNL     1      -1.148  12.543  19.672  0.00  0.00    +0.000 A 
ATOM     18 CL   UNL     1       0.139  13.204  20.628  0.00  0.00    +0.000 Cl
BRANCH  15  19
ATOM     19  O   UNL     1      -4.842  12.877  19.630  0.00  0.00    +0.000 OA
ATOM     20  C   UNL     1      -5.848  11.924  19.290  0.00  0.00    +0.000 C 
ENDBRANCH  15  19
ENDBRANCH   7  11
BRANCH   1  21
ATOM     21  C   UNL     1       2.712   6.634  18.557  0.00  0.00    +0.000 C 
BRANCH  21  22
ATOM     22  C   UNL     1       4.124   6.955  18.116  0.00  0.00    +0.000 C 
ATOM     23  C   UNL     1       4.525   6.911  16.661  0.00  0.00    +0.000 C 
ATOM     24  C   UNL     1       5.026   5.854  17.603  0.00  0.00    +0.000 C 
ENDBRANCH  21  22
BRANCH  21  25
ATOM     25  C   UNL     1       2.705   5.398  19.486  0.00  0.00    +0.000 C 
BRANCH  25  27
ATOM     26  C   UNL     1       0.968   3.984  20.231  0.00  0.00    +0.000 C 
ATOM     27  O   UNL     1       1.669   4.484  19.100  0.00  0.00    +0.000 OA
ENDBRANCH  25  27
ENDBRANCH  21  25
ENDBRANCH   1  21
TORSDOF 6
ENDMDL
MODEL 2
REMARK VINA RESULT:      -6.1      1.211      2.118
REMARK  Name = 
REMARK  9 active torsions:
REMARK  status: ('A' for Active; 'I' for Inactive)
REMARK    1  A    between atoms: C_1  and  O_2
REMARK    2  A    between atoms: O_2  and  C_3
REMARK    3  A    between atoms: C_3  and  C_4
REMARK    4  A    between atoms: C_4  and  C_5
REMARK    5  A    between atoms: C_4  and  N_8
REMARK    6  A    between atoms: C_10  and  C_11
REMARK    7  A    between atoms: N_14  and  C_15
REMARK    8  A    between atoms: C_19  and  O_20
REMARK    9  A    between atoms: O_20  and  C_21
REMARK                            x       y       z     vdW  Elec       q    Type
REMARK                         _______ _______ _______ _____ _____    ______ ____
ROOT
ATOM      1  N   UNL     1       2.242   7.749  19.159  0.00  0.00    +0.000 N 
ATOM      2  N   UNL     1       1.948   7.715  20.504  0.00  0.00    +0.000 NA
ATOM      3  C   UNL     1       1.178   8.632  20.999  0.00  0.00    +0.000 A 
ATOM      4  C   UNL     1       0.750   8.559  22.436  0.00  0.00    +0.000 C 
ATOM      5  N   UNL     1       0.643   9.687  20.319  0.00  0.00    +0.000 NA
ATOM      6  C   UNL     1       0.853   9.758  19.040  0.00  0.00    +0.000 A 
ATOM      7  N   UNL     1       0.269  10.719  18.234  0.00  0.00    +0.000 N 
ATOM      8  C   UNL     1       1.769   8.756  18.341  0.00  0.00    +0.000 A 
ATOM      9  O   UNL     1       1.981   8.921  17.144  0.00  0.00    +0.000 OA
ATOM     10  H   UNL     1       0.517  10.619  17.249  0.00  0.00    +0.000 HD
ENDROOT
BRANCH   7  11
ATOM     11  C   UNL     1      -1.060  11.198  18.396  0.00  0.00    +0.000 A 
ATOM     12  C   UNL     1      -2.091  10.619  17.628  0.00  0.00    +0.000 A 
ATOM     13 CL   UNL     1      -1.742   9.418  16.426  0.00  0.00    +0.000 Cl
ATOM     14  C   UNL     1      -3.434  10.981  17.798  0.00  0.00    +0.000 A 
ATOM     15  C   UNL     1      -3.790  11.907  18.776  0.00  0.00    +0.000 A 
ATOM     16  C   UNL     1      -2.796  12.502  19.542  0.00  0.00    +0.000 A 
ATOM     17  C   UNL     1      -1.450  12.140  19.374  0.00  0.00    +0.000 A 
ATOM     18 CL   UNL     1      -0.350  12.852  20.510  0.00  0.00    +0.000 Cl
BRANCH  15  19
ATOM     19  O   UNL     1      -5.126  12.179  18.884  0.00  0.00    +0.000 OA
ATOM     20  C   UNL     1      -5.998  11.096  18.564  0.00  0.00    +0.000 C 
ENDBRANCH  15  19
ENDBRANCH   7  11
BRANCH   1  21
ATOM     21  C   UNL     1       3.024   6.641  18.590  0.00  0.00    +0.000 C 
BRANCH  21  22
ATOM     22  C   UNL     1       2.098   5.620  17.962  0.00  0.00    +0.000 C 
ATOM     23  C   UNL     1       1.517   4.482  18.766  0.00  0.00    +0.000 C 
ATOM     24  C   UNL     1       2.576   4.202  17.738  0.00  0.00    +0.000 C 
ENDBRANCH  21  22
BRANCH  21  25
ATOM     25  C   UNL     1       4.077   7.119  17.563  0.00  0.00    +0.000 C 
BRANCH  25  27
ATOM     26  C   UNL     1       6.406   7.096  17.177  0.00  0.00    +0.000 C 
ATOM     27  O   UNL     1       5.299   6.384  17.716  0.00  0.00    +0.000 OA
ENDBRANCH  25  27
ENDBRANCH  21  25
ENDBRANCH   1  21
TORSDOF 6
ENDMDL
MODEL 3
REMARK VINA RESULT:      -5.9      1.253      2.772
REMARK  Name = 
REMARK  9 active torsions:
REMARK  status: ('A' for Active; 'I' for Inactive)
REMARK    1  A    between atoms: C_1  and  O_2
REMARK    2  A    between atoms: O_2  and  C_3
REMARK    3  A    between atoms: C_3  and  C_4
REMARK    4  A    between atoms: C_4  and  C_5
REMARK    5  A    between atoms: C_4  and  N_8
REMARK    6  A    between atoms: C_10  and  C_11
REMARK    7  A    between atoms: N_14  and  C_15
REMARK    8  A    between atoms: C_19  and  O_20
REMARK    9  A    between atoms: O_20  and  C_21
REMARK                            x       y       z     vdW  Elec       q    Type
REMARK                         _______ _______ _______ _____ _____    ______ ____
ROOT
ATOM      1  N   UNL     1       2.065   7.982  19.171  0.00  0.00    +0.000 N 
ATOM      2  N   UNL     1       1.765   7.921  20.514  0.00  0.00    +0.000 NA
ATOM      3  C   UNL     1       0.888   8.742  20.997  0.00  0.00    +0.000 A 
ATOM      4  C   UNL     1       0.459   8.625  22.431  0.00  0.00    +0.000 C 
ATOM      5  N   UNL     1       0.237   9.722  20.307  0.00  0.00    +0.000 NA
ATOM      6  C   UNL     1       0.447   9.812  19.029  0.00  0.00    +0.000 A 
ATOM      7  N   UNL     1      -0.240  10.692  18.213  0.00  0.00    +0.000 N 
ATOM      8  C   UNL     1       1.482   8.922  18.343  0.00  0.00    +0.000 A 
ATOM      9  O   UNL     1       1.684   9.105  17.147  0.00  0.00    +0.000 OA
ATOM     10  H   UNL     1       0.027  10.617  17.230  0.00  0.00    +0.000 HD
ENDROOT
BRANCH   7  11
ATOM     11  C   UNL     1      -1.618  11.009  18.361  0.00  0.00    +0.000 A 
ATOM     12  C   UNL     1      -1.992  11.997  19.295  0.00  0.00    +0.000 A 
ATOM     13 CL   UNL     1      -0.814  12.743  20.326  0.00  0.00    +0.000 Cl
ATOM     14  C   UNL     1      -3.321  12.421  19.431  0.00  0.00    +0.000 A 
ATOM     15  C   UNL     1      -4.311  11.896  18.605  0.00  0.00    +0.000 A 
ATOM     16  C   UNL     1      -3.975  10.914  17.681  0.00  0.00    +0.000 A 
ATOM     17  C   UNL     1      -2.645  10.489  17.542  0.00  0.00    +0.000 A 
ATOM     18 CL   UNL     1      -2.361   9.376  16.242  0.00  0.00    +0.000 Cl
BRANCH  15  19
ATOM     19  O   UNL     1      -5.573  12.388  18.796  0.00  0.00    +0.000 OA
ATOM     20  C   UNL     1      -6.625  11.611  18.226  0.00  0.00    +0.000 C 
ENDBRANCH  15  19
ENDBRANCH   7  11
BRANCH   1  21
ATOM     21  C   UNL     1       2.979   6.973  18.616  0.00  0.00    +0.000 C 
BRANCH  21  22
ATOM     22  C   UNL     1       2.195   5.764  18.148  0.00  0.00    +0.000 C 
ATOM     23  C   UNL     1       1.742   4.696  19.114  0.00  0.00    +0.000 C 
ATOM     24  C   UNL     1       2.845   4.398  18.139  0.00  0.00    +0.000 C 
ENDBRANCH  21  22
BRANCH  21  25
ATOM     25  C   UNL     1       3.853   7.526  17.466  0.00  0.00    +0.000 C 
BRANCH  25  27
ATOM     26  C   UNL     1       5.352   6.287  16.129  0.00  0.00    +0.000 C 
ATOM     27  O   UNL     1       5.111   6.841  17.416  0.00  0.00    +0.000 OA
ENDBRANCH  25  27
ENDBRANCH  21  25
ENDBRANCH   1  21
TORSDOF 6
ENDMDL
MODEL 4
REMARK VINA RESULT:      -5.9      2.517      8.121
REMARK  Name = 
REMARK  9 active torsions:
REMARK  status: ('A' for Active; 'I' for Inactive)
REMARK    1  A    between atoms: C_1  and  O_2
REMARK    2  A    between atoms: O_2  and  C_3
REMARK    3  A    between atoms: C_3  and  C_4
REMARK    4  A    between atoms: C_4  and  C_5
REMARK    5  A    between atoms: C_4  and  N_8
REMARK    6  A    between atoms: C_10  and  C_11
REMARK    7  A    between atoms: N_14  and  C_15
REMARK    8  A    between atoms: C_19  and  O_20
REMARK    9  A    between atoms: O_20  and  C_21
REMARK                            x       y       z     vdW  Elec       q    Type
REMARK                         _______ _______ _______ _____ _____    ______ ____
ROOT
ATOM      1  N   UNL     1      -2.871  12.431  20.355  0.00  0.00    +0.000 N 
ATOM      2  N   UNL     1      -3.307  11.943  19.144  0.00  0.00    +0.000 NA
ATOM      3  C   UNL     1      -2.508  11.201  18.444  0.00  0.00    +0.000 A 
ATOM      4  C   UNL     1      -2.993  10.564  17.175  0.00  0.00    +0.000 C 
ATOM      5  N   UNL     1      -1.223  10.874  18.768  0.00  0.00    +0.000 NA
ATOM      6  C   UNL     1      -0.762  11.273  19.913  0.00  0.00    +0.000 A 
ATOM      7  N   UNL     1       0.483  10.908  20.392  0.00  0.00    +0.000 N 
ATOM      8  C   UNL     1      -1.593  12.181  20.817  0.00  0.00    +0.000 A 
ATOM      9  O   UNL     1      -1.072  12.579  21.854  0.00  0.00    +0.000 OA
ATOM     10  H   UNL     1       0.682  11.286  21.319  0.00  0.00    +0.000 HD
ENDROOT
BRANCH   7  11
ATOM     11  C   UNL     1       1.062   9.621  20.213  0.00  0.00    +0.000 A 
ATOM     12  C   UNL     1       0.841   8.633  21.193  0.00  0.00    +0.000 A 
ATOM     13 CL   UNL     1      -0.030   8.997  22.648  0.00  0.00    +0.000 Cl
ATOM     14  C   UNL     1       1.308   7.320  21.039  0.00  0.00    +0.000 A 
ATOM     15  C   UNL     1       1.976   6.947  19.876  0.00  0.00    +0.000 A 
ATOM     16  C   UNL     1       2.218   7.901  18.895  0.00  0.00    +0.000 A 
ATOM     17  C   UNL     1       1.750   9.216  19.047  0.00  0.00    +0.000 A 
ATOM     18 CL   UNL     1       1.991  10.245  17.672  0.00  0.00    +0.000 Cl
BRANCH  15  19
ATOM     19  O   UNL     1       2.373   5.640  19.806  0.00  0.00    +0.000 OA
ATOM     20  C   UNL     1       3.768   5.436  19.587  0.00  0.00    +0.000 C 
ENDBRANCH  15  19
ENDBRANCH   7  11
BRANCH   1  21
ATOM     21  C   UNL     1      -3.825  13.178  21.188  0.00  0.00    +0.000 C 
BRANCH  21  22
ATOM     22  C   UNL     1      -3.873  14.627  20.751  0.00  0.00    +0.000 C 
ATOM     23  C   UNL     1      -2.650  15.510  20.810  0.00  0.00    +0.000 C 
ATOM     24  C   UNL     1      -3.776  15.732  21.780  0.00  0.00    +0.000 C 
ENDBRANCH  21  22
BRANCH  21  25
ATOM     25  C   UNL     1      -5.244  12.562  21.170  0.00  0.00    +0.000 C 
BRANCH  25  27
ATOM     26  C   UNL     1      -7.001  12.816  22.725  0.00  0.00    +0.000 C 
ATOM     27  O   UNL     1      -5.695  12.298  22.505  0.00  0.00    +0.000 OA
ENDBRANCH  25  27
ENDBRANCH  21  25
ENDBRANCH   1  21
TORSDOF 6
ENDMDL
MODEL 5
REMARK VINA RESULT:      -5.8      3.000      7.859
REMARK  Name = 
REMARK  9 active torsions:
REMARK  status: ('A' for Active; 'I' for Inactive)
REMARK    1  A    between atoms: C_1  and  O_2
REMARK    2  A    between atoms: O_2  and  C_3
REMARK    3  A    between atoms: C_3  and  C_4
REMARK    4  A    between atoms: C_4  and  C_5
REMARK    5  A    between atoms: C_4  and  N_8
REMARK    6  A    between atoms: C_10  and  C_11
REMARK    7  A    between atoms: N_14  and  C_15
REMARK    8  A    between atoms: C_19  and  O_20
REMARK    9  A    between atoms: O_20  and  C_21
REMARK                            x       y       z     vdW  Elec       q    Type
REMARK                         _______ _______ _______ _____ _____    ______ ____
ROOT
ATOM      1  N   UNL     1       1.151  10.576  19.414  0.00  0.00    +0.000 N 
ATOM      2  N   UNL     1       1.103  10.431  20.782  0.00  0.00    +0.000 NA
ATOM      3  C   UNL     1       1.291   9.255  21.293  0.00  0.00    +0.000 A 
ATOM      4  C   UNL     1       1.354   9.086  22.783  0.00  0.00    +0.000 C 
ATOM      5  N   UNL     1       1.496   8.099  20.599  0.00  0.00    +0.000 NA
ATOM      6  C   UNL     1       1.588   8.172  19.306  0.00  0.00    +0.000 A 
ATOM      7  N   UNL     1       1.905   7.085  18.512  0.00  0.00    +0.000 N 
ATOM      8  C   UNL     1       1.354   9.494  18.579  0.00  0.00    +0.000 A 
ATOM      9  O   UNL     1       1.387   9.480  17.353  0.00  0.00    +0.000 OA
ATOM     10  H   UNL     1       1.963   7.318  17.520  0.00  0.00    +0.000 HD
ENDROOT
BRANCH   7  11
ATOM     11  C   UNL     1       2.844   6.079  18.871  0.00  0.00    +0.000 A 
ATOM     12  C   UNL     1       2.414   4.999  19.668  0.00  0.00    +0.000 A 
ATOM     13 CL   UNL     1       0.797   4.941  20.295  0.00  0.00    +0.000 Cl
ATOM     14  C   UNL     1       3.262   3.930  19.987  0.00  0.00    +0.000 A 
ATOM     15  C   UNL     1       4.559   3.891  19.482  0.00  0.00    +0.000 A 
ATOM     16  C   UNL     1       5.016   4.945  18.701  0.00  0.00    +0.000 A 
ATOM     17  C   UNL     1       4.167   6.016  18.379  0.00  0.00    +0.000 A 
ATOM     18 CL   UNL     1       4.832   7.173  17.270  0.00  0.00    +0.000 Cl
BRANCH  15  19
ATOM     19  O   UNL     1       5.304   2.797  19.828  0.00  0.00    +0.000 OA
ATOM     20  C   UNL     1       4.593   1.765  20.509  0.00  0.00    +0.000 C 
ENDBRANCH  15  19
ENDBRANCH   7  11
BRANCH   1  21
ATOM     21  C   UNL     1       1.047  11.932  18.854  0.00  0.00    +0.000 C 
BRANCH  21  22
ATOM     22  C   UNL     1      -0.353  12.472  19.058  0.00  0.00    +0.000 C 
ATOM     23  C   UNL     1      -1.546  11.551  19.162  0.00  0.00    +0.000 C 
ATOM     24  C   UNL     1      -1.364  12.398  17.934  0.00  0.00    +0.000 C 
ENDBRANCH  21  22
BRANCH  21  25
ATOM     25  C   UNL     1       2.092  12.905  19.449  0.00  0.00    +0.000 C 
BRANCH  25  27
ATOM     26  C   UNL     1       3.790  14.459  18.927  0.00  0.00    +0.000 C 
ATOM     27  O   UNL     1       2.809  13.574  18.402  0.00  0.00    +0.000 OA
ENDBRANCH  25  27
ENDBRANCH  21  25
ENDBRANCH   1  21
TORSDOF 6
ENDMDL
MODEL 6
REMARK VINA RESULT:      -5.8      2.496      7.430
REMARK  Name = 
REMARK  9 active torsions:
REMARK  status: ('A' for Active; 'I' for Inactive)
REMARK    1  A    between atoms: C_1  and  O_2
REMARK    2  A    between atoms: O_2  and  C_3
REMARK    3  A    between atoms: C_3  and  C_4
REMARK    4  A    between atoms: C_4  and  C_5
REMARK    5  A    between atoms: C_4  and  N_8
REMARK    6  A    between atoms: C_10  and  C_11
REMARK    7  A    between atoms: N_14  and  C_15
REMARK    8  A    between atoms: C_19  and  O_20
REMARK    9  A    between atoms: O_20  and  C_21
REMARK                            x       y       z     vdW  Elec       q    Type
REMARK                         _______ _______ _______ _____ _____    ______ ____
ROOT
ATOM      1  N   UNL     1      -0.469  12.369  19.272  0.00  0.00    +0.000 N 
ATOM      2  N   UNL     1      -1.493  11.801  18.547  0.00  0.00    +0.000 NA
ATOM      3  C   UNL     1      -1.340  10.602  18.082  0.00  0.00    +0.000 A 
ATOM      4  C   UNL     1      -2.479   9.916  17.384  0.00  0.00    +0.000 C 
ATOM      5  N   UNL     1      -0.221   9.830  18.199  0.00  0.00    +0.000 NA
ATOM      6  C   UNL     1       0.768  10.291  18.901  0.00  0.00    +0.000 A 
ATOM      7  N   UNL     1       1.903   9.551  19.180  0.00  0.00    +0.000 N 
ATOM      8  C   UNL     1       0.725  11.705  19.478  0.00  0.00    +0.000 A 
ATOM      9  O   UNL     1       1.721  12.105  20.071  0.00  0.00    +0.000 OA
ATOM     10  H   UNL     1       2.573  10.052  19.765  0.00  0.00    +0.000 HD
ENDROOT
BRANCH   7  11
ATOM     11  C   UNL     1       1.899   8.157  19.458  0.00  0.00    +0.000 A 
ATOM     12  C   UNL     1       2.565   7.284  18.573  0.00  0.00    +0.000 A 
ATOM     13 CL   UNL     1       3.287   7.875  17.111  0.00  0.00    +0.000 Cl
ATOM     14  C   UNL     1       2.675   5.911  18.831  0.00  0.00    +0.000 A 
ATOM     15  C   UNL     1       2.156   5.376  20.007  0.00  0.00    +0.000 A 
ATOM     16  C   UNL     1       1.486   6.209  20.895  0.00  0.00    +0.000 A 
ATOM     17  C   UNL     1       1.376   7.585  20.639  0.00  0.00    +0.000 A 
ATOM     18 CL   UNL     1       0.652   8.513  21.913  0.00  0.00    +0.000 Cl
BRANCH  15  19
ATOM     19  O   UNL     1       2.333   4.031  20.182  0.00  0.00    +0.000 OA
ATOM     20  C   UNL     1       1.314   3.373  20.933  0.00  0.00    +0.000 C 
ENDBRANCH  15  19
ENDBRANCH   7  11
BRANCH   1  21
ATOM     21  C   UNL     1      -0.698  13.684  19.888  0.00  0.00    +0.000 C 
BRANCH  21  22
ATOM     22  C   UNL     1      -0.368  14.784  18.901  0.00  0.00    +0.000 C 
ATOM     23  C   UNL     1       1.027  15.350  18.788  0.00  0.00    +0.000 C 
ATOM     24  C   UNL     1      -0.066  16.181  19.398  0.00  0.00    +0.000 C 
ENDBRANCH  21  22
BRANCH  21  25
ATOM     25  C   UNL     1      -2.141  13.851  20.419  0.00  0.00    +0.000 C 
BRANCH  25  27
ATOM     26  C   UNL     1      -2.546  12.441  22.268  0.00  0.00    +0.000 C 
ATOM     27  O   UNL     1      -2.166  13.745  21.849  0.00  0.00    +0.000 OA
ENDBRANCH  25  27
ENDBRANCH  21  25
ENDBRANCH   1  21
TORSDOF 6
ENDMDL
MODEL 7
REMARK VINA RESULT:      -5.7      3.019      8.243
REMARK  Name = 
REMARK  9 active torsions:
REMARK  status: ('A' for Active; 'I' for Inactive)
REMARK    1  A    between atoms: C_1  and  O_2
REMARK    2  A    between atoms: O_2  and  C_3
REMARK    3  A    between atoms: C_3  and  C_4
REMARK    4  A    between atoms: C_4  and  C_5
REMARK    5  A    between atoms: C_4  and  N_8
REMARK    6  A    between atoms: C_10  and  C_11
REMARK    7  A    between atoms: N_14  and  C_15
REMARK    8  A    between atoms: C_19  and  O_20
REMARK    9  A    between atoms: O_20  and  C_21
REMARK                            x       y       z     vdW  Elec       q    Type
REMARK                         _______ _______ _______ _____ _____    ______ ____
ROOT
ATOM      1  N   UNL     1      -3.261  12.981  21.288  0.00  0.00    +0.000 N 
ATOM      2  N   UNL     1      -3.824  12.612  20.087  0.00  0.00    +0.000 NA
ATOM      3  C   UNL     1      -3.113  11.931  19.246  0.00  0.00    +0.000 A 
ATOM      4  C   UNL     1      -3.734  11.419  17.979  0.00  0.00    +0.000 C 
ATOM      5  N   UNL     1      -1.809  11.563  19.407  0.00  0.00    +0.000 NA
ATOM      6  C   UNL     1      -1.229  11.849  20.532  0.00  0.00    +0.000 A 
ATOM      7  N   UNL     1       0.050  11.428  20.847  0.00  0.00    +0.000 N 
ATOM      8  C   UNL     1      -1.949  12.676  21.595  0.00  0.00    +0.000 A 
ATOM      9  O   UNL     1      -1.319  12.971  22.606  0.00  0.00    +0.000 OA
ATOM     10  H   UNL     1       0.347  11.716  21.781  0.00  0.00    +0.000 HD
ENDROOT
BRANCH   7  11
ATOM     11  C   UNL     1       0.584  10.158  20.494  0.00  0.00    +0.000 A 
ATOM     12  C   UNL     1       1.336  10.042  19.307  0.00  0.00    +0.000 A 
ATOM     13 CL   UNL     1       1.526  11.392  18.235  0.00  0.00    +0.000 Cl
ATOM     14  C   UNL     1       1.963   8.843  18.943  0.00  0.00    +0.000 A 
ATOM     15  C   UNL     1       1.889   7.732  19.779  0.00  0.00    +0.000 A 
ATOM     16  C   UNL     1       1.147   7.812  20.951  0.00  0.00    +0.000 A 
ATOM     17  C   UNL     1       0.519   9.013  21.318  0.00  0.00    +0.000 A 
ATOM     18 CL   UNL     1      -0.235   9.000  22.881  0.00  0.00    +0.000 Cl
BRANCH  15  19
ATOM     19  O   UNL     1       2.552   6.614  19.351  0.00  0.00    +0.000 OA
ATOM     20  C   UNL     1       2.427   5.470  20.193  0.00  0.00    +0.000 C 
ENDBRANCH  15  19
ENDBRANCH   7  11
BRANCH   1  21
ATOM     21  C   UNL     1      -4.113  13.657  22.278  0.00  0.00    +0.000 C 
BRANCH  21  22
ATOM     22  C   UNL     1      -4.370  15.087  21.853  0.00  0.00    +0.000 C 
ATOM     23  C   UNL     1      -3.241  16.003  21.444  0.00  0.00    +0.000 C 
ATOM     24  C   UNL     1      -3.948  16.231  22.749  0.00  0.00    +0.000 C 
ENDBRANCH  21  22
BRANCH  21  25
ATOM     25  C   UNL     1      -5.450  12.917  22.519  0.00  0.00    +0.000 C 
BRANCH  25  27
ATOM     26  C   UNL     1      -4.286  12.555  24.540  0.00  0.00    +0.000 C 
ATOM     27  O   UNL     1      -5.542  12.474  23.879  0.00  0.00    +0.000 OA
ENDBRANCH  25  27
ENDBRANCH  21  25
ENDBRANCH   1  21
TORSDOF 6
ENDMDL
MODEL 8
REMARK VINA RESULT:      -5.7      3.689      8.736
REMARK  Name = 
REMARK  9 active torsions:
REMARK  status: ('A' for Active; 'I' for Inactive)
REMARK    1  A    between atoms: C_1  and  O_2
REMARK    2  A    between atoms: O_2  and  C_3
REMARK    3  A    between atoms: C_3  and  C_4
REMARK    4  A    between atoms: C_4  and  C_5
REMARK    5  A    between atoms: C_4  and  N_8
REMARK    6  A    between atoms: C_10  and  C_11
REMARK    7  A    between atoms: N_14  and  C_15
REMARK    8  A    between atoms: C_19  and  O_20
REMARK    9  A    between atoms: O_20  and  C_21
REMARK                            x       y       z     vdW  Elec       q    Type
REMARK                         _______ _______ _______ _____ _____    ______ ____
ROOT
ATOM      1  N   UNL     1      -4.412  13.494  22.017  0.00  0.00    +0.000 N 
ATOM      2  N   UNL     1      -5.012  13.045  20.862  0.00  0.00    +0.000 NA
ATOM      3  C   UNL     1      -4.266  12.595  19.904  0.00  0.00    +0.000 A 
ATOM      4  C   UNL     1      -4.895  11.996  18.679  0.00  0.00    +0.000 C 
ATOM      5  N   UNL     1      -2.902  12.554  19.897  0.00  0.00    +0.000 NA
ATOM      6  C   UNL     1      -2.275  12.929  20.970  0.00  0.00    +0.000 A 
ATOM      7  N   UNL     1      -0.903  12.825  21.115  0.00  0.00    +0.000 N 
ATOM      8  C   UNL     1      -3.037  13.511  22.158  0.00  0.00    +0.000 A 
ATOM      9  O   UNL     1      -2.379  13.912  23.113  0.00  0.00    +0.000 OA
ATOM     10  H   UNL     1      -0.573  13.141  22.028  0.00  0.00    +0.000 HD
ENDROOT
BRANCH   7  11
ATOM     11  C   UNL     1      -0.127  11.742  20.619  0.00  0.00    +0.000 A 
ATOM     12  C   UNL     1      -0.071  10.547  21.366  0.00  0.00    +0.000 A 
ATOM     13 CL   UNL     1      -0.843  10.425  22.914  0.00  0.00    +0.000 Cl
ATOM     14  C   UNL     1       0.602   9.412  20.896  0.00  0.00    +0.000 A 
ATOM     15  C   UNL     1       1.207   9.426  19.641  0.00  0.00    +0.000 A 
ATOM     16  C   UNL     1       1.177  10.591  18.886  0.00  0.00    +0.000 A 
ATOM     17  C   UNL     1       0.502  11.730  19.355  0.00  0.00    +0.000 A 
ATOM     18 CL   UNL     1       0.420  13.050  18.232  0.00  0.00    +0.000 Cl
BRANCH  15  19
ATOM     19  O   UNL     1       1.819   8.264  19.259  0.00  0.00    +0.000 OA
ATOM     20  C   UNL     1       2.353   8.262  17.936  0.00  0.00    +0.000 C 
ENDBRANCH  15  19
ENDBRANCH   7  11
BRANCH   1  21
ATOM     21  C   UNL     1      -5.274  13.898  23.138  0.00  0.00    +0.000 C 
BRANCH  21  22
ATOM     22  C   UNL     1      -5.852  15.274  22.879  0.00  0.00    +0.000 C 
ATOM     23  C   UNL     1      -4.962  16.472  22.647  0.00  0.00    +0.000 C 
ATOM     24  C   UNL     1      -5.734  16.354  23.931  0.00  0.00    +0.000 C 
ENDBRANCH  21  22
BRANCH  21  25
ATOM     25  C   UNL     1      -6.407  12.882  23.416  0.00  0.00    +0.000 C 
BRANCH  25  27
ATOM     26  C   UNL     1      -4.801  12.325  25.055  0.00  0.00    +0.000 C 
ATOM     27  O   UNL     1      -5.985  11.912  24.385  0.00  0.00    +0.000 OA
ENDBRANCH  25  27
ENDBRANCH  21  25
ENDBRANCH   1  21
TORSDOF 6
ENDMDL
MODEL 9
REMARK VINA RESULT:      -5.7      2.901      8.043
REMARK  Name = 
REMARK  9 active torsions:
REMARK  status: ('A' for Active; 'I' for Inactive)
REMARK    1  A    between atoms: C_1  and  O_2
REMARK    2  A    between atoms: O_2  and  C_3
REMARK    3  A    between atoms: C_3  and  C_4
REMARK    4  A    between atoms: C_4  and  C_5
REMARK    5  A    between atoms: C_4  and  N_8
REMARK    6  A    between atoms: C_10  and  C_11
REMARK    7  A    between atoms: N_14  and  C_15
REMARK    8  A    between atoms: C_19  and  O_20
REMARK    9  A    between atoms: O_20  and  C_21
REMARK                            x       y       z     vdW  Elec       q    Type
REMARK                         _______ _______ _______ _____ _____    ______ ____
ROOT
ATOM      1  N   UNL     1      -2.257  13.026  21.122  0.00  0.00    +0.000 N 
ATOM      2  N   UNL     1      -2.952  12.563  20.027  0.00  0.00    +0.000 NA
ATOM      3  C   UNL     1      -2.369  11.733  19.222  0.00  0.00    +0.000 A 
ATOM      4  C   UNL     1      -3.136  11.125  18.084  0.00  0.00    +0.000 C 
ATOM      5  N   UNL     1      -1.084  11.285  19.319  0.00  0.00    +0.000 NA
ATOM      6  C   UNL     1      -0.385  11.656  20.348  0.00  0.00    +0.000 A 
ATOM      7  N   UNL     1       0.887  11.176  20.607  0.00  0.00    +0.000 N 
ATOM      8  C   UNL     1      -0.946  12.658  21.355  0.00  0.00    +0.000 A 
ATOM      9  O   UNL     1      -0.209  13.020  22.266  0.00  0.00    +0.000 OA
ATOM     10  H   UNL     1       1.287  11.549  21.469  0.00  0.00    +0.000 HD
ENDROOT
BRANCH   7  11
ATOM     11  C   UNL     1       1.298   9.836  20.371  0.00  0.00    +0.000 A 
ATOM     12  C   UNL     1       1.077   8.870  21.374  0.00  0.00    +0.000 A 
ATOM     13 CL   UNL     1       0.414   9.316  22.913  0.00  0.00    +0.000 Cl
ATOM     14  C   UNL     1       1.378   7.516  21.176  0.00  0.00    +0.000 A 
ATOM     15  C   UNL     1       1.872   7.080  19.949  0.00  0.00    +0.000 A 
ATOM     16  C   UNL     1       2.109   8.010  18.944  0.00  0.00    +0.000 A 
ATOM     17  C   UNL     1       1.808   9.367  19.140  0.00  0.00    +0.000 A 
ATOM     18 CL   UNL     1       2.011  10.374  17.742  0.00  0.00    +0.000 Cl
BRANCH  15  19
ATOM     19  O   UNL     1       2.113   5.738  19.843  0.00  0.00    +0.000 OA
ATOM     20  C   UNL     1       3.483   5.375  19.679  0.00  0.00    +0.000 C 
ENDBRANCH  15  19
ENDBRANCH   7  11
BRANCH   1  21
ATOM     21  C   UNL     1      -2.968  13.879  22.087  0.00  0.00    +0.000 C 
BRANCH  21  22
ATOM     22  C   UNL     1      -3.346  15.193  21.438  0.00  0.00    +0.000 C 
ATOM     23  C   UNL     1      -2.334  16.019  20.681  0.00  0.00    +0.000 C 
ATOM     24  C   UNL     1      -2.836  16.496  22.014  0.00  0.00    +0.000 C 
ENDBRANCH  21  22
BRANCH  21  25
ATOM     25  C   UNL     1      -4.219  13.192  22.683  0.00  0.00    +0.000 C 
BRANCH  25  27
ATOM     26  C   UNL     1      -4.626  12.301  24.831  0.00  0.00    +0.000 C 
ATOM     27  O   UNL     1      -3.838  12.205  23.651  0.00  0.00    +0.000 OA
ENDBRANCH  25  27
ENDBRANCH  21  25
ENDBRANCH   1  21
TORSDOF 6
ENDMDL
