MODEL 1
REMARK VINA RESULT:      -7.8      0.000      0.000
REMARK  Name = 
REMARK  2 active torsions:
REMARK  status: ('A' for Active; 'I' for Inactive)
REMARK    1  A    between atoms: C_1  and  N_2
REMARK    2  A    between atoms: N_5  and  C_6
REMARK                            x       y       z     vdW  Elec       q    Type
REMARK                         _______ _______ _______ _____ _____    ______ ____
ROOT
ATOM      1  C   UNL     1       5.614   5.168  18.102  0.00  0.00    +0.000 A 
ATOM      2  C   UNL     1       6.519   6.127  18.565  0.00  0.00    +0.000 A 
ATOM      3  C   UNL     1       7.471   6.630  17.705  0.00  0.00    +0.000 A 
ATOM      4  N   UNL     1       7.593   6.253  16.421  0.00  0.00    +0.000 NA
ATOM      5  C   UNL     1       6.736   5.334  15.920  0.00  0.00    +0.000 A 
ATOM      6  C   UNL     1       5.717   4.771  16.734  0.00  0.00    +0.000 A 
ATOM      7  C   UNL     1       4.812   3.873  16.130  0.00  0.00    +0.000 A 
ATOM      8  C   UNL     1       4.942   3.447  14.815  0.00  0.00    +0.000 A 
ATOM      9  C   UNL     1       5.950   3.974  14.022  0.00  0.00    +0.000 A 
ATOM     10  C   UNL     1       6.060   3.564  12.684  0.00  0.00    +0.000 A 
ATOM     11  C   UNL     1       7.022   4.121  11.849  0.00  0.00    +0.000 A 
ATOM     12  C   UNL     1       7.886   5.090  12.347  0.00  0.00    +0.000 A 
ATOM     13  C   UNL     1       7.797   5.486  13.686  0.00  0.00    +0.000 A 
ATOM     14  C   UNL     1       6.834   4.939  14.562  0.00  0.00    +0.000 A 
ENDROOT
BRANCH   1  19
ATOM     15  C   UNL     1       1.040   2.905  20.300  0.00  0.00    +0.000 C 
ATOM     16  N   UNL     1       2.365   3.523  20.363  0.00  0.00    +0.000 NA
ATOM     17  C   UNL     1       2.320   4.885  19.772  0.00  0.00    +0.000 C 
ATOM     18  C   UNL     1       3.711   5.564  19.678  0.00  0.00    +0.000 C 
ATOM     19  N   UNL     1       4.615   4.674  18.937  0.00  0.00    +0.000 N 
ATOM     20  C   UNL     1       4.758   3.358  19.586  0.00  0.00    +0.000 C 
ATOM     21  C   UNL     1       3.358   2.693  19.636  0.00  0.00    +0.000 C 
ENDBRANCH   1  19
TORSDOF 1
ENDMDL
MODEL 2
REMARK VINA RESULT:      -7.6      2.875      7.096
REMARK  Name = 
REMARK  2 active torsions:
REMARK  status: ('A' for Active; 'I' for Inactive)
REMARK    1  A    between atoms: C_1  and  N_2
REMARK    2  A    between atoms: N_5  and  C_6
REMARK                            x       y       z     vdW  Elec       q    Type
REMARK                         _______ _______ _______ _____ _____    ______ ____
ROOT
ATOM      1  C   UNL     1       3.760   5.044  18.911  0.00  0.00    +0.000 A 
ATOM      2  C   UNL     1       3.433   4.152  19.937  0.00  0.00    +0.000 A 
ATOM      3  C   UNL     1       2.517   4.529  20.895  0.00  0.00    +0.000 A 
ATOM      4  N   UNL     1       1.899   5.722  20.911  0.00  0.00    +0.000 NA
ATOM      5  C   UNL     1       2.172   6.618  19.936  0.00  0.00    +0.000 A 
ATOM      6  C   UNL     1       3.098   6.310  18.903  0.00  0.00    +0.000 A 
ATOM      7  C   UNL     1       3.282   7.260  17.876  0.00  0.00    +0.000 A 
ATOM      8  C   UNL     1       2.678   8.510  17.895  0.00  0.00    +0.000 A 
ATOM      9  C   UNL     1       1.793   8.828  18.913  0.00  0.00    +0.000 A 
ATOM     10  C   UNL     1       1.162  10.082  18.912  0.00  0.00    +0.000 A 
ATOM     11  C   UNL     1       0.223  10.403  19.886  0.00  0.00    +0.000 A 
ATOM     12  C   UNL     1      -0.087   9.476  20.874  0.00  0.00    +0.000 A 
ATOM     13  C   UNL     1       0.556   8.234  20.895  0.00  0.00    +0.000 A 
ATOM     14  C   UNL     1       1.516   7.875  19.922  0.00  0.00    +0.000 A 
ENDROOT
BRANCH   1  19
ATOM     15  C   UNL     1       7.155   4.812  14.520  0.00  0.00    +0.000 C 
ATOM     16  N   UNL     1       6.500   4.266  15.708  0.00  0.00    +0.000 NA
ATOM     17  C   UNL     1       5.026   4.258  15.521  0.00  0.00    +0.000 C 
ATOM     18  C   UNL     1       4.246   3.817  16.785  0.00  0.00    +0.000 C 
ATOM     19  N   UNL     1       4.651   4.675  17.907  0.00  0.00    +0.000 N 
ATOM     20  C   UNL     1       6.098   4.594  18.176  0.00  0.00    +0.000 C 
ATOM     21  C   UNL     1       6.850   5.071  16.906  0.00  0.00    +0.000 C 
ENDBRANCH   1  19
TORSDOF 1
ENDMDL
MODEL 3
REMARK VINA RESULT:      -7.2      0.618      1.228
REMARK  Name = 
REMARK  2 active torsions:
REMARK  status: ('A' for Active; 'I' for Inactive)
REMARK    1  A    between atoms: C_1  and  N_2
REMARK    2  A    between atoms: N_5  and  C_6
REMARK                            x       y       z     vdW  Elec       q    Type
REMARK                         _______ _______ _______ _____ _____    ______ ____
ROOT
ATOM      1  C   UNL     1       5.466   4.914  18.029  0.00  0.00    +0.000 A 
ATOM      2  C   UNL     1       6.322   5.850  18.618  0.00  0.00    +0.000 A 
ATOM      3  C   UNL     1       7.315   6.431  17.859  0.00  0.00    +0.000 A 
ATOM      4  N   UNL     1       7.522   6.156  16.560  0.00  0.00    +0.000 NA
ATOM      5  C   UNL     1       6.716   5.264  15.940  0.00  0.00    +0.000 A 
ATOM      6  C   UNL     1       5.661   4.624  16.644  0.00  0.00    +0.000 A 
ATOM      7  C   UNL     1       4.812   3.762  15.919  0.00  0.00    +0.000 A 
ATOM      8  C   UNL     1       5.031   3.440  14.586  0.00  0.00    +0.000 A 
ATOM      9  C   UNL     1       6.074   4.041  13.899  0.00  0.00    +0.000 A 
ATOM     10  C   UNL     1       6.274   3.736  12.544  0.00  0.00    +0.000 A 
ATOM     11  C   UNL     1       7.274   4.371  11.815  0.00  0.00    +0.000 A 
ATOM     12  C   UNL     1       8.086   5.312  12.437  0.00  0.00    +0.000 A 
ATOM     13  C   UNL     1       7.908   5.603  13.794  0.00  0.00    +0.000 A 
ATOM     14  C   UNL     1       6.904   4.975  14.564  0.00  0.00    +0.000 A 
ENDROOT
BRANCH   1  19
ATOM     15  C   UNL     1       2.002   3.093  21.972  0.00  0.00    +0.000 C 
ATOM     16  N   UNL     1       2.429   3.303  20.589  0.00  0.00    +0.000 NA
ATOM     17  C   UNL     1       3.720   2.609  20.342  0.00  0.00    +0.000 C 
ATOM     18  C   UNL     1       4.312   2.888  18.937  0.00  0.00    +0.000 C 
ATOM     19  N   UNL     1       4.429   4.342  18.760  0.00  0.00    +0.000 N 
ATOM     20  C   UNL     1       3.129   5.025  18.885  0.00  0.00    +0.000 C 
ATOM     21  C   UNL     1       2.578   4.754  20.309  0.00  0.00    +0.000 C 
ENDBRANCH   1  19
TORSDOF 1
ENDMDL
MODEL 4
REMARK VINA RESULT:      -7.0      4.541      8.253
REMARK  Name = 
REMARK  2 active torsions:
REMARK  status: ('A' for Active; 'I' for Inactive)
REMARK    1  A    between atoms: C_1  and  N_2
REMARK    2  A    between atoms: N_5  and  C_6
REMARK                            x       y       z     vdW  Elec       q    Type
REMARK                         _______ _______ _______ _____ _____    ______ ____
ROOT
ATOM      1  C   UNL     1       2.377   7.630  18.661  0.00  0.00    +0.000 A 
ATOM      2  C   UNL     1       2.637   8.491  17.591  0.00  0.00    +0.000 A 
ATOM      3  C   UNL     1       2.155   9.782  17.629  0.00  0.00    +0.000 A 
ATOM      4  N   UNL     1       1.438  10.283  18.649  0.00  0.00    +0.000 NA
ATOM      5  C   UNL     1       1.167   9.494  19.714  0.00  0.00    +0.000 A 
ATOM      6  C   UNL     1       1.632   8.153  19.762  0.00  0.00    +0.000 A 
ATOM      7  C   UNL     1       1.377   7.409  20.933  0.00  0.00    +0.000 A 
ATOM      8  C   UNL     1       0.610   7.899  21.981  0.00  0.00    +0.000 A 
ATOM      9  C   UNL     1       0.132   9.199  21.930  0.00  0.00    +0.000 A 
ATOM     10  C   UNL     1      -0.618   9.700  23.005  0.00  0.00    +0.000 A 
ATOM     11  C   UNL     1      -1.058  11.020  23.007  0.00  0.00    +0.000 A 
ATOM     12  C   UNL     1      -0.756  11.846  21.931  0.00  0.00    +0.000 A 
ATOM     13  C   UNL     1      -0.030  11.346  20.846  0.00  0.00    +0.000 A 
ATOM     14  C   UNL     1       0.430  10.011  20.809  0.00  0.00    +0.000 A 
ENDROOT
BRANCH   1  19
ATOM     15  C   UNL     1       4.135   2.524  19.970  0.00  0.00    +0.000 C 
ATOM     16  N   UNL     1       3.845   3.621  19.046  0.00  0.00    +0.000 NA
ATOM     17  C   UNL     1       4.664   4.811  19.393  0.00  0.00    +0.000 C 
ATOM     18  C   UNL     1       4.325   6.063  18.545  0.00  0.00    +0.000 C 
ATOM     19  N   UNL     1       2.886   6.334  18.668  0.00  0.00    +0.000 N 
ATOM     20  C   UNL     1       2.064   5.199  18.212  0.00  0.00    +0.000 C 
ATOM     21  C   UNL     1       2.403   3.972  19.098  0.00  0.00    +0.000 C 
ENDBRANCH   1  19
TORSDOF 1
ENDMDL
MODEL 5
REMARK VINA RESULT:      -6.7      3.451      7.409
REMARK  Name = 
REMARK  2 active torsions:
REMARK  status: ('A' for Active; 'I' for Inactive)
REMARK    1  A    between atoms: C_1  and  N_2
REMARK    2  A    between atoms: N_5  and  C_6
REMARK                            x       y       z     vdW  Elec       q    Type
REMARK                         _______ _______ _______ _____ _____    ______ ____
ROOT
ATOM      1  C   UNL     1       3.358   5.798  18.981  0.00  0.00    +0.000 A 
ATOM      2  C   UNL     1       3.049   4.944  20.044  0.00  0.00    +0.000 A 
ATOM      3  C   UNL     1       2.149   5.356  21.003  0.00  0.00    +0.000 A 
ATOM      4  N   UNL     1       1.532   6.549  20.987  0.00  0.00    +0.000 NA
ATOM      5  C   UNL     1       1.788   7.409  19.975  0.00  0.00    +0.000 A 
ATOM      6  C   UNL     1       2.696   7.063  18.939  0.00  0.00    +0.000 A 
ATOM      7  C   UNL     1       2.862   7.975  17.876  0.00  0.00    +0.000 A 
ATOM      8  C   UNL     1       2.258   9.225  17.859  0.00  0.00    +0.000 A 
ATOM      9  C   UNL     1       1.391   9.580  18.880  0.00  0.00    +0.000 A 
ATOM     10  C   UNL     1       0.760  10.833  18.844  0.00  0.00    +0.000 A 
ATOM     11  C   UNL     1      -0.162  11.190  19.823  0.00  0.00    +0.000 A 
ATOM     12  C   UNL     1      -0.455  10.299  20.848  0.00  0.00    +0.000 A 
ATOM     13  C   UNL     1       0.188   9.058  20.903  0.00  0.00    +0.000 A 
ATOM     14  C   UNL     1       1.131   8.665  19.928  0.00  0.00    +0.000 A 
ENDROOT
BRANCH   1  19
ATOM     15  C   UNL     1       5.785   4.310  14.211  0.00  0.00    +0.000 C 
ATOM     16  N   UNL     1       5.769   4.609  15.642  0.00  0.00    +0.000 NA
ATOM     17  C   UNL     1       4.861   3.670  16.350  0.00  0.00    +0.000 C 
ATOM     18  C   UNL     1       4.682   3.998  17.854  0.00  0.00    +0.000 C 
ATOM     19  N   UNL     1       4.232   5.392  17.976  0.00  0.00    +0.000 N 
ATOM     20  C   UNL     1       5.189   6.341  17.381  0.00  0.00    +0.000 C 
ATOM     21  C   UNL     1       5.323   6.007  15.873  0.00  0.00    +0.000 C 
ENDBRANCH   1  19
TORSDOF 1
ENDMDL
MODEL 6
REMARK VINA RESULT:      -6.5      4.868      8.464
REMARK  Name = 
REMARK  2 active torsions:
REMARK  status: ('A' for Active; 'I' for Inactive)
REMARK    1  A    between atoms: C_1  and  N_2
REMARK    2  A    between atoms: N_5  and  C_6
REMARK                            x       y       z     vdW  Elec       q    Type
REMARK                         _______ _______ _______ _____ _____    ______ ____
ROOT
ATOM      1  C   UNL     1       2.095   7.587  19.214  0.00  0.00    +0.000 A 
ATOM      2  C   UNL     1       2.417   8.165  17.982  0.00  0.00    +0.000 A 
ATOM      3  C   UNL     1       2.023   9.459  17.719  0.00  0.00    +0.000 A 
ATOM      4  N   UNL     1       1.336  10.223  18.584  0.00  0.00    +0.000 NA
ATOM      5  C   UNL     1       1.007   9.714  19.794  0.00  0.00    +0.000 A 
ATOM      6  C   UNL     1       1.381   8.392  20.153  0.00  0.00    +0.000 A 
ATOM      7  C   UNL     1       1.071   7.950  21.456  0.00  0.00    +0.000 A 
ATOM      8  C   UNL     1       0.333   8.712  22.351  0.00  0.00    +0.000 A 
ATOM      9  C   UNL     1      -0.058   9.995  21.998  0.00  0.00    +0.000 A 
ATOM     10  C   UNL     1      -0.778  10.774  22.917  0.00  0.00    +0.000 A 
ATOM     11  C   UNL     1      -1.129  12.084  22.613  0.00  0.00    +0.000 A 
ATOM     12  C   UNL     1      -0.767  12.625  21.385  0.00  0.00    +0.000 A 
ATOM     13  C   UNL     1      -0.070  11.847  20.455  0.00  0.00    +0.000 A 
ATOM     14  C   UNL     1       0.300  10.511  20.730  0.00  0.00    +0.000 A 
ENDROOT
BRANCH   1  19
ATOM     15  C   UNL     1       3.359   2.177  19.233  0.00  0.00    +0.000 C 
ATOM     16  N   UNL     1       3.310   3.519  19.811  0.00  0.00    +0.000 NA
ATOM     17  C   UNL     1       1.899   3.963  19.952  0.00  0.00    +0.000 C 
ATOM     18  C   UNL     1       1.758   5.429  20.436  0.00  0.00    +0.000 C 
ATOM     19  N   UNL     1       2.516   6.296  19.523  0.00  0.00    +0.000 N 
ATOM     20  C   UNL     1       3.944   5.936  19.470  0.00  0.00    +0.000 C 
ATOM     21  C   UNL     1       4.053   4.478  18.954  0.00  0.00    +0.000 C 
ENDBRANCH   1  19
TORSDOF 1
ENDMDL
MODEL 7
REMARK VINA RESULT:      -6.5      3.413      7.590
REMARK  Name = 
REMARK  2 active torsions:
REMARK  status: ('A' for Active; 'I' for Inactive)
REMARK    1  A    between atoms: C_1  and  N_2
REMARK    2  A    between atoms: N_5  and  C_6
REMARK                            x       y       z     vdW  Elec       q    Type
REMARK                         _______ _______ _______ _____ _____    ______ ____
ROOT
ATOM      1  C   UNL     1       3.244   5.825  18.757  0.00  0.00    +0.000 A 
ATOM      2  C   UNL     1       3.105   4.839  19.738  0.00  0.00    +0.000 A 
ATOM      3  C   UNL     1       2.330   5.095  20.849  0.00  0.00    +0.000 A 
ATOM      4  N   UNL     1       1.682   6.253  21.059  0.00  0.00    +0.000 NA
ATOM      5  C   UNL     1       1.776   7.237  20.135  0.00  0.00    +0.000 A 
ATOM      6  C   UNL     1       2.546   7.056  18.955  0.00  0.00    +0.000 A 
ATOM      7  C   UNL     1       2.542   8.093  17.999  0.00  0.00    +0.000 A 
ATOM      8  C   UNL     1       1.907   9.309  18.214  0.00  0.00    +0.000 A 
ATOM      9  C   UNL     1       1.174   9.502  19.374  0.00  0.00    +0.000 A 
ATOM     10  C   UNL     1       0.508  10.722  19.574  0.00  0.00    +0.000 A 
ATOM     11  C   UNL     1      -0.283  10.920  20.700  0.00  0.00    +0.000 A 
ATOM     12  C   UNL     1      -0.411   9.903  21.638  0.00  0.00    +0.000 A 
ATOM     13  C   UNL     1       0.269   8.693  21.457  0.00  0.00    +0.000 A 
ATOM     14  C   UNL     1       1.083   8.459  20.327  0.00  0.00    +0.000 A 
ENDROOT
BRANCH   1  19
ATOM     15  C   UNL     1       7.144   4.525  15.019  0.00  0.00    +0.000 C 
ATOM     16  N   UNL     1       5.804   4.940  15.434  0.00  0.00    +0.000 NA
ATOM     17  C   UNL     1       5.876   6.222  16.181  0.00  0.00    +0.000 C 
ATOM     18  C   UNL     1       4.514   6.669  16.773  0.00  0.00    +0.000 C 
ATOM     19  N   UNL     1       3.987   5.579  17.605  0.00  0.00    +0.000 N 
ATOM     20  C   UNL     1       3.799   4.334  16.838  0.00  0.00    +0.000 C 
ATOM     21  C   UNL     1       5.181   3.897  16.287  0.00  0.00    +0.000 C 
ENDBRANCH   1  19
TORSDOF 1
ENDMDL
MODEL 8
REMARK VINA RESULT:      -6.5      3.623      5.498
REMARK  Name = 
REMARK  2 active torsions:
REMARK  status: ('A' for Active; 'I' for Inactive)
REMARK    1  A    between atoms: C_1  and  N_2
REMARK    2  A    between atoms: N_5  and  C_6
REMARK                            x       y       z     vdW  Elec       q    Type
REMARK                         _______ _______ _______ _____ _____    ______ ____
ROOT
ATOM      1  C   UNL     1       1.852   6.838  20.127  0.00  0.00    +0.000 A 
ATOM      2  C   UNL     1       1.498   5.705  20.865  0.00  0.00    +0.000 A 
ATOM      3  C   UNL     1       1.983   4.472  20.484  0.00  0.00    +0.000 A 
ATOM      4  N   UNL     1       2.793   4.279  19.429  0.00  0.00    +0.000 NA
ATOM      5  C   UNL     1       3.172   5.344  18.688  0.00  0.00    +0.000 A 
ATOM      6  C   UNL     1       2.728   6.653  19.014  0.00  0.00    +0.000 A 
ATOM      7  C   UNL     1       3.220   7.728  18.244  0.00  0.00    +0.000 A 
ATOM      8  C   UNL     1       4.030   7.545  17.131  0.00  0.00    +0.000 A 
ATOM      9  C   UNL     1       4.448   6.267  16.792  0.00  0.00    +0.000 A 
ATOM     10  C   UNL     1       5.291   6.089  15.684  0.00  0.00    +0.000 A 
ATOM     11  C   UNL     1       5.774   4.827  15.358  0.00  0.00    +0.000 A 
ATOM     12  C   UNL     1       5.415   3.731  16.134  0.00  0.00    +0.000 A 
ATOM     13  C   UNL     1       4.555   3.898  17.225  0.00  0.00    +0.000 A 
ATOM     14  C   UNL     1       4.043   5.165  17.583  0.00  0.00    +0.000 A 
ENDROOT
BRANCH   1  19
ATOM     15  C   UNL     1      -1.041  11.251  21.866  0.00  0.00    +0.000 C 
ATOM     16  N   UNL     1       0.168  10.565  21.411  0.00  0.00    +0.000 NA
ATOM     17  C   UNL     1      -0.038  10.022  20.043  0.00  0.00    +0.000 C 
ATOM     18  C   UNL     1       1.150   9.166  19.534  0.00  0.00    +0.000 C 
ATOM     19  N   UNL     1       1.411   8.101  20.513  0.00  0.00    +0.000 N 
ATOM     20  C   UNL     1       1.734   8.638  21.847  0.00  0.00    +0.000 C 
ATOM     21  C   UNL     1       0.518   9.462  22.341  0.00  0.00    +0.000 C 
ENDBRANCH   1  19
TORSDOF 1
ENDMDL
MODEL 9
REMARK VINA RESULT:      -6.4      6.100      8.561
REMARK  Name = 
REMARK  2 active torsions:
REMARK  status: ('A' for Active; 'I' for Inactive)
REMARK    1  A    between atoms: C_1  and  N_2
REMARK    2  A    between atoms: N_5  and  C_6
REMARK                            x       y       z     vdW  Elec       q    Type
REMARK                         _______ _______ _______ _____ _____    ______ ____
ROOT
ATOM      1  C   UNL     1       0.752  10.505  20.271  0.00  0.00    +0.000 A 
ATOM      2  C   UNL     1       0.347  10.360  21.601  0.00  0.00    +0.000 A 
ATOM      3  C   UNL     1       0.526   9.149  22.233  0.00  0.00    +0.000 A 
ATOM      4  N   UNL     1       1.078   8.072  21.648  0.00  0.00    +0.000 NA
ATOM      5  C   UNL     1       1.495   8.163  20.365  0.00  0.00    +0.000 A 
ATOM      6  C   UNL     1       1.358   9.376  19.639  0.00  0.00    +0.000 A 
ATOM      7  C   UNL     1       1.880   9.425  18.330  0.00  0.00    +0.000 A 
ATOM      8  C   UNL     1       2.423   8.314  17.697  0.00  0.00    +0.000 A 
ATOM      9  C   UNL     1       2.537   7.119  18.391  0.00  0.00    +0.000 A 
ATOM     10  C   UNL     1       3.113   6.007  17.758  0.00  0.00    +0.000 A 
ATOM     11  C   UNL     1       3.297   4.815  18.449  0.00  0.00    +0.000 A 
ATOM     12  C   UNL     1       2.900   4.723  19.778  0.00  0.00    +0.000 A 
ATOM     13  C   UNL     1       2.303   5.820  20.408  0.00  0.00    +0.000 A 
ATOM     14  C   UNL     1       2.099   7.045  19.735  0.00  0.00    +0.000 A 
ENDROOT
BRANCH   1  19
ATOM     15  C   UNL     1      -0.222  15.784  18.837  0.00  0.00    +0.000 C 
ATOM     16  N   UNL     1       0.248  14.419  18.597  0.00  0.00    +0.000 NA
ATOM     17  C   UNL     1      -0.877  13.460  18.743  0.00  0.00    +0.000 C 
ATOM     18  C   UNL     1      -0.441  11.976  18.635  0.00  0.00    +0.000 C 
ATOM     19  N   UNL     1       0.621  11.729  19.619  0.00  0.00    +0.000 N 
ATOM     20  C   UNL     1       1.792  12.598  19.405  0.00  0.00    +0.000 C 
ATOM     21  C   UNL     1       1.331  14.071  19.551  0.00  0.00    +0.000 C 
ENDBRANCH   1  19
TORSDOF 1
ENDMDL
