MODEL 1
REMARK VINA RESULT:      -8.4      0.000      0.000
REMARK  Name = 
REMARK  8 active torsions:
REMARK  status: ('A' for Active; 'I' for Inactive)
REMARK    1  A    between atoms: C_1  and  C_2
REMARK    2  A    between atoms: C_2  and  C_3
REMARK    3  A    between atoms: C_6  and  C_7
REMARK    4  A    between atoms: C_10  and  N_11
REMARK    5  A    between atoms: N_11  and  C_12
REMARK    6  A    between atoms: C_12  and  N_14
REMARK    7  A    between atoms: N_14  and  C_15
REMARK    8  A    between atoms: C_19  and  C_20
REMARK                            x       y       z     vdW  Elec       q    Type
REMARK                         _______ _______ _______ _____ _____    ______ ____
ROOT
ATOM      1  N   UNL     1       3.057   6.218  20.144  0.00  0.00    +0.000 N 
ATOM      2  H   UNL     1       3.664   6.332  20.947  0.00  0.00    +0.000 HD
ENDROOT
BRANCH   1   6
ATOM      3  C   UNL     1       0.624   9.490  19.075  0.00  0.00    +0.000 A 
ATOM      4  C   UNL     1       0.692   9.061  20.402  0.00  0.00    +0.000 A 
ATOM      5  C   UNL     1       1.529   7.993  20.760  0.00  0.00    +0.000 A 
ATOM      6  C   UNL     1       2.269   7.323  19.783  0.00  0.00    +0.000 A 
ATOM      7  C   UNL     1       2.273   7.806  18.480  0.00  0.00    +0.000 A 
ATOM      8  C   UNL     1       1.459   8.876  18.128  0.00  0.00    +0.000 A 
BRANCH   3  12
ATOM      9  C   UNL     1      -3.219  11.403  18.526  0.00  0.00    +0.000 C 
ATOM     10  C   UNL     1      -2.477  10.979  17.251  0.00  0.00    +0.000 C 
ATOM     11  C   UNL     1      -1.349  10.000  17.575  0.00  0.00    +0.000 C 
ATOM     12  C   UNL     1      -0.369  10.554  18.625  0.00  0.00    +0.000 C 
ATOM     13  C   UNL     1      -1.099  11.134  19.857  0.00  0.00    +0.000 C 
ATOM     14  C   UNL     1      -2.237  12.085  19.487  0.00  0.00    +0.000 C 
BRANCH   9  16
ATOM     15  C   UNL     1      -5.209  11.936  16.951  0.00  0.00    +0.000 C 
ATOM     16  C   UNL     1      -4.470  12.251  18.241  0.00  0.00    +0.000 C 
ENDBRANCH   9  16
ENDBRANCH   3  12
ENDBRANCH   1   6
BRANCH   1  17
ATOM     17  C   UNL     1       2.968   4.918  19.684  0.00  0.00    +0.000 C 
ATOM     18  S   UNL     1       1.578   4.012  19.473  0.00  0.00    +0.000 S 
BRANCH  17  19
ATOM     19  N   UNL     1       4.181   4.296  19.513  0.00  0.00    +0.000 N 
ATOM     20  H   UNL     1       4.222   3.326  19.812  0.00  0.00    +0.000 HD
BRANCH  19  21
ATOM     21  C   UNL     1       5.232   4.743  18.694  0.00  0.00    +0.000 A 
ATOM     22  C   UNL     1       6.332   5.349  19.290  0.00  0.00    +0.000 A 
ATOM     23  C   UNL     1       7.386   5.808  18.496  0.00  0.00    +0.000 A 
ATOM     24  C   UNL     1       7.368   5.603  17.114  0.00  0.00    +0.000 A 
ATOM     25  C   UNL     1       6.291   4.941  16.508  0.00  0.00    +0.000 A 
ATOM     26  C   UNL     1       5.221   4.532  17.309  0.00  0.00    +0.000 A 
BRANCH  25  27
ATOM     27  C   UNL     1       6.265   4.638  15.032  0.00  0.00    +0.000 C 
ATOM     28  F   UNL     1       5.224   5.218  14.371  0.00  0.00    +0.000 F 
ATOM     29  F   UNL     1       7.392   5.065  14.396  0.00  0.00    +0.000 F 
ATOM     30  F   UNL     1       6.174   3.305  14.776  0.00  0.00    +0.000 F 
ENDBRANCH  25  27
ENDBRANCH  19  21
ENDBRANCH  17  19
ENDBRANCH   1  17
TORSDOF 7
ENDMDL
MODEL 2
REMARK VINA RESULT:      -8.2      1.527      2.300
REMARK  Name = 
REMARK  8 active torsions:
REMARK  status: ('A' for Active; 'I' for Inactive)
REMARK    1  A    between atoms: C_1  and  C_2
REMARK    2  A    between atoms: C_2  and  C_3
REMARK    3  A    between atoms: C_6  and  C_7
REMARK    4  A    between atoms: C_10  and  N_11
REMARK    5  A    between atoms: N_11  and  C_12
REMARK    6  A    between atoms: C_12  and  N_14
REMARK    7  A    between atoms: N_14  and  C_15
REMARK    8  A    between atoms: C_19  and  C_20
REMARK                            x       y       z     vdW  Elec       q    Type
REMARK                         _______ _______ _______ _____ _____    ______ ____
ROOT
ATOM      1  N   UNL     1       2.685   5.461  20.265  0.00  0.00    +0.000 N 
ATOM      2  H   UNL     1       2.600   5.252  21.253  0.00  0.00    +0.000 HD
ENDROOT
BRANCH   1   6
ATOM      3  C   UNL     1       1.421   9.288  19.030  0.00  0.00    +0.000 A 
ATOM      4  C   UNL     1       1.213   8.862  20.344  0.00  0.00    +0.000 A 
ATOM      5  C   UNL     1       1.666   7.601  20.761  0.00  0.00    +0.000 A 
ATOM      6  C   UNL     1       2.291   6.744  19.852  0.00  0.00    +0.000 A 
ATOM      7  C   UNL     1       2.580   7.201  18.572  0.00  0.00    +0.000 A 
ATOM      8  C   UNL     1       2.150   8.458  18.163  0.00  0.00    +0.000 A 
BRANCH   3  12
ATOM      9  C   UNL     1       0.038  13.387  19.136  0.00  0.00    +0.000 C 
ATOM     10  C   UNL     1      -1.020  12.316  18.837  0.00  0.00    +0.000 C 
ATOM     11  C   UNL     1      -0.503  10.923  19.197  0.00  0.00    +0.000 C 
ATOM     12  C   UNL     1       0.831  10.589  18.504  0.00  0.00    +0.000 C 
ATOM     13  C   UNL     1       1.866  11.726  18.655  0.00  0.00    +0.000 C 
ATOM     14  C   UNL     1       1.300  13.104  18.313  0.00  0.00    +0.000 C 
BRANCH   9  16
ATOM     15  C   UNL     1       0.563  15.913  18.865  0.00  0.00    +0.000 C 
ATOM     16  C   UNL     1      -0.491  14.821  18.955  0.00  0.00    +0.000 C 
ENDBRANCH   9  16
ENDBRANCH   3  12
ENDBRANCH   1   6
BRANCH   1  17
ATOM     17  C   UNL     1       2.978   4.363  19.479  0.00  0.00    +0.000 C 
ATOM     18  S   UNL     1       1.892   3.344  18.717  0.00  0.00    +0.000 S 
BRANCH  17  19
ATOM     19  N   UNL     1       4.311   4.031  19.449  0.00  0.00    +0.000 N 
ATOM     20  H   UNL     1       4.549   3.135  19.866  0.00  0.00    +0.000 HD
BRANCH  19  21
ATOM     21  C   UNL     1       5.293   4.624  18.639  0.00  0.00    +0.000 A 
ATOM     22  C   UNL     1       6.291   5.380  19.244  0.00  0.00    +0.000 A 
ATOM     23  C   UNL     1       7.275   5.986  18.459  0.00  0.00    +0.000 A 
ATOM     24  C   UNL     1       7.298   5.782  17.077  0.00  0.00    +0.000 A 
ATOM     25  C   UNL     1       6.331   4.974  16.462  0.00  0.00    +0.000 A 
ATOM     26  C   UNL     1       5.324   4.415  17.254  0.00  0.00    +0.000 A 
BRANCH  25  27
ATOM     27  C   UNL     1       6.360   4.673  14.985  0.00  0.00    +0.000 C 
ATOM     28  F   UNL     1       7.529   5.021  14.379  0.00  0.00    +0.000 F 
ATOM     29  F   UNL     1       6.186   3.348  14.723  0.00  0.00    +0.000 F 
ATOM     30  F   UNL     1       5.378   5.322  14.303  0.00  0.00    +0.000 F 
ENDBRANCH  25  27
ENDBRANCH  19  21
ENDBRANCH  17  19
ENDBRANCH   1  17
TORSDOF 7
ENDMDL
MODEL 3
REMARK VINA RESULT:      -8.2      3.749      4.968
REMARK  Name = 
REMARK  8 active torsions:
REMARK  status: ('A' for Active; 'I' for Inactive)
REMARK    1  A    between atoms: C_1  and  C_2
REMARK    2  A    between atoms: C_2  and  C_3
REMARK    3  A    between atoms: C_6  and  C_7
REMARK    4  A    between atoms: C_10  and  N_11
REMARK    5  A    between atoms: N_11  and  C_12
REMARK    6  A    between atoms: C_12  and  N_14
REMARK    7  A    between atoms: N_14  and  C_15
REMARK    8  A    between atoms: C_19  and  C_20
REMARK                            x       y       z     vdW  Elec       q    Type
REMARK                         _______ _______ _______ _____ _____    ______ ____
ROOT
ATOM      1  N   UNL     1       3.697   7.341  17.475  0.00  0.00    +0.000 N 
ATOM      2  H   UNL     1       4.118   7.893  16.736  0.00  0.00    +0.000 HD
ENDROOT
BRANCH   1   6
ATOM      3  C   UNL     1       0.867   9.238  19.957  0.00  0.00    +0.000 A 
ATOM      4  C   UNL     1       1.519   8.079  20.382  0.00  0.00    +0.000 A 
ATOM      5  C   UNL     1       2.486   7.470  19.568  0.00  0.00    +0.000 A 
ATOM      6  C   UNL     1       2.772   7.994  18.305  0.00  0.00    +0.000 A 
ATOM      7  C   UNL     1       2.191   9.196  17.919  0.00  0.00    +0.000 A 
ATOM      8  C   UNL     1       1.248   9.812  18.733  0.00  0.00    +0.000 A 
BRANCH   3  12
ATOM      9  C   UNL     1      -1.142  12.045  22.567  0.00  0.00    +0.000 C 
ATOM     10  C   UNL     1      -1.035  10.599  23.071  0.00  0.00    +0.000 C 
ATOM     11  C   UNL     1      -0.000   9.814  22.263  0.00  0.00    +0.000 C 
ATOM     12  C   UNL     1      -0.279   9.853  20.749  0.00  0.00    +0.000 C 
ATOM     13  C   UNL     1      -0.549  11.287  20.241  0.00  0.00    +0.000 C 
ATOM     14  C   UNL     1      -1.566  12.044  21.094  0.00  0.00    +0.000 C 
BRANCH   9  16
ATOM     15  C   UNL     1      -3.437  12.391  23.725  0.00  0.00    +0.000 C 
ATOM     16  C   UNL     1      -2.040  12.925  23.453  0.00  0.00    +0.000 C 
ENDBRANCH   9  16
ENDBRANCH   3  12
ENDBRANCH   1   6
BRANCH   1  17
ATOM     17  C   UNL     1       4.279   6.101  17.653  0.00  0.00    +0.000 C 
ATOM     18  S   UNL     1       5.796   5.773  18.278  0.00  0.00    +0.000 S 
BRANCH  17  19
ATOM     19  N   UNL     1       3.552   5.057  17.132  0.00  0.00    +0.000 N 
ATOM     20  H   UNL     1       3.644   4.918  16.129  0.00  0.00    +0.000 HD
BRANCH  19  21
ATOM     21  C   UNL     1       2.981   4.001  17.861  0.00  0.00    +0.000 A 
ATOM     22  C   UNL     1       2.675   2.819  17.196  0.00  0.00    +0.000 A 
ATOM     23  C   UNL     1       2.100   1.756  17.897  0.00  0.00    +0.000 A 
ATOM     24  C   UNL     1       1.891   1.853  19.276  0.00  0.00    +0.000 A 
ATOM     25  C   UNL     1       2.249   3.019  19.967  0.00  0.00    +0.000 A 
ATOM     26  C   UNL     1       2.777   4.092  19.244  0.00  0.00    +0.000 A 
BRANCH  25  27
ATOM     27  C   UNL     1       2.104   3.139  21.463  0.00  0.00    +0.000 C 
ATOM     28  F   UNL     1       0.863   2.815  21.921  0.00  0.00    +0.000 F 
ATOM     29  F   UNL     1       2.970   2.328  22.134  0.00  0.00    +0.000 F 
ATOM     30  F   UNL     1       2.351   4.400  21.910  0.00  0.00    +0.000 F 
ENDBRANCH  25  27
ENDBRANCH  19  21
ENDBRANCH  17  19
ENDBRANCH   1  17
TORSDOF 7
ENDMDL
MODEL 4
REMARK VINA RESULT:      -8.2      0.840      1.081
REMARK  Name = 
REMARK  8 active torsions:
REMARK  status: ('A' for Active; 'I' for Inactive)
REMARK    1  A    between atoms: C_1  and  C_2
REMARK    2  A    between atoms: C_2  and  C_3
REMARK    3  A    between atoms: C_6  and  C_7
REMARK    4  A    between atoms: C_10  and  N_11
REMARK    5  A    between atoms: N_11  and  C_12
REMARK    6  A    between atoms: C_12  and  N_14
REMARK    7  A    between atoms: N_14  and  C_15
REMARK    8  A    between atoms: C_19  and  C_20
REMARK                            x       y       z     vdW  Elec       q    Type
REMARK                         _______ _______ _______ _____ _____    ______ ____
ROOT
ATOM      1  N   UNL     1       2.802   7.051  20.162  0.00  0.00    +0.000 N 
ATOM      2  H   UNL     1       3.337   7.279  20.993  0.00  0.00    +0.000 HD
ENDROOT
BRANCH   1   6
ATOM      3  C   UNL     1       0.046   9.928  18.786  0.00  0.00    +0.000 A 
ATOM      4  C   UNL     1       0.110   9.599  20.142  0.00  0.00    +0.000 A 
ATOM      5  C   UNL     1       1.052   8.666  20.601  0.00  0.00    +0.000 A 
ATOM      6  C   UNL     1       1.905   8.027  19.699  0.00  0.00    +0.000 A 
ATOM      7  C   UNL     1       1.905   8.420  18.365  0.00  0.00    +0.000 A 
ATOM      8  C   UNL     1       0.986   9.358  17.912  0.00  0.00    +0.000 A 
BRANCH   3  12
ATOM      9  C   UNL     1      -3.968  11.258  17.869  0.00  0.00    +0.000 C 
ATOM     10  C   UNL     1      -3.064  10.935  16.671  0.00  0.00    +0.000 C 
ATOM     11  C   UNL     1      -1.840  10.133  17.111  0.00  0.00    +0.000 C 
ATOM     12  C   UNL     1      -1.045  10.833  18.229  0.00  0.00    +0.000 C 
ATOM     13  C   UNL     1      -1.957  11.312  19.381  0.00  0.00    +0.000 C 
ATOM     14  C   UNL     1      -3.183  12.084  18.895  0.00  0.00    +0.000 C 
BRANCH   9  16
ATOM     15  C   UNL     1      -6.545  11.378  18.145  0.00  0.00    +0.000 C 
ATOM     16  C   UNL     1      -5.299  11.914  17.459  0.00  0.00    +0.000 C 
ENDBRANCH   9  16
ENDBRANCH   3  12
ENDBRANCH   1   6
BRANCH   1  17
ATOM     17  C   UNL     1       2.909   5.731  19.767  0.00  0.00    +0.000 C 
ATOM     18  S   UNL     1       1.665   4.702  19.329  0.00  0.00    +0.000 S 
BRANCH  17  19
ATOM     19  N   UNL     1       4.175   5.209  19.881  0.00  0.00    +0.000 N 
ATOM     20  H   UNL     1       4.286   4.478  20.578  0.00  0.00    +0.000 HD
BRANCH  19  21
ATOM     21  C   UNL     1       5.212   5.342  18.942  0.00  0.00    +0.000 A 
ATOM     22  C   UNL     1       6.522   5.427  19.401  0.00  0.00    +0.000 A 
ATOM     23  C   UNL     1       7.569   5.566  18.488  0.00  0.00    +0.000 A 
ATOM     24  C   UNL     1       7.313   5.555  17.114  0.00  0.00    +0.000 A 
ATOM     25  C   UNL     1       6.002   5.411  16.638  0.00  0.00    +0.000 A 
ATOM     26  C   UNL     1       4.959   5.323  17.564  0.00  0.00    +0.000 A 
BRANCH  25  27
ATOM     27  C   UNL     1       5.690   5.325  15.166  0.00  0.00    +0.000 C 
ATOM     28  F   UNL     1       4.982   4.214  14.820  0.00  0.00    +0.000 F 
ATOM     29  F   UNL     1       4.954   6.385  14.729  0.00  0.00    +0.000 F 
ATOM     30  F   UNL     1       6.813   5.308  14.397  0.00  0.00    +0.000 F 
ENDBRANCH  25  27
ENDBRANCH  19  21
ENDBRANCH  17  19
ENDBRANCH   1  17
TORSDOF 7
ENDMDL
MODEL 5
REMARK VINA RESULT:      -8.0      4.358      9.458
REMARK  Name = 
REMARK  8 active torsions:
REMARK  status: ('A' for Active; 'I' for Inactive)
REMARK    1  A    between atoms: C_1  and  C_2
REMARK    2  A    between atoms: C_2  and  C_3
REMARK    3  A    between atoms: C_6  and  C_7
REMARK    4  A    between atoms: C_10  and  N_11
REMARK    5  A    between atoms: N_11  and  C_12
REMARK    6  A    between atoms: C_12  and  N_14
REMARK    7  A    between atoms: N_14  and  C_15
REMARK    8  A    between atoms: C_19  and  C_20
REMARK                            x       y       z     vdW  Elec       q    Type
REMARK                         _______ _______ _______ _____ _____    ______ ____
ROOT
ATOM      1  N   UNL     1       0.233  10.213  20.043  0.00  0.00    +0.000 N 
ATOM      2  H   UNL     1      -0.421   9.972  20.778  0.00  0.00    +0.000 HD
ENDROOT
BRANCH   1   6
ATOM      3  C   UNL     1       2.809   7.160  18.697  0.00  0.00    +0.000 A 
ATOM      4  C   UNL     1       2.284   7.126  19.990  0.00  0.00    +0.000 A 
ATOM      5  C   UNL     1       1.400   8.126  20.424  0.00  0.00    +0.000 A 
ATOM      6  C   UNL     1       1.071   9.188  19.578  0.00  0.00    +0.000 A 
ATOM      7  C   UNL     1       1.520   9.175  18.262  0.00  0.00    +0.000 A 
ATOM      8  C   UNL     1       2.380   8.174  17.825  0.00  0.00    +0.000 A 
BRANCH   3  12
ATOM      9  C   UNL     1       5.019   4.656  15.946  0.00  0.00    +0.000 C 
ATOM     10  C   UNL     1       4.262   3.935  17.069  0.00  0.00    +0.000 C 
ATOM     11  C   UNL     1       3.240   4.865  17.723  0.00  0.00    +0.000 C 
ATOM     12  C   UNL     1       3.872   6.172  18.234  0.00  0.00    +0.000 C 
ATOM     13  C   UNL     1       4.772   6.841  17.171  0.00  0.00    +0.000 C 
ATOM     14  C   UNL     1       5.758   5.870  16.523  0.00  0.00    +0.000 C 
BRANCH   9  16
ATOM     15  C   UNL     1       6.289   4.176  13.735  0.00  0.00    +0.000 C 
ATOM     16  C   UNL     1       5.937   3.719  15.141  0.00  0.00    +0.000 C 
ENDBRANCH   9  16
ENDBRANCH   3  12
ENDBRANCH   1   6
BRANCH   1  17
ATOM     17  C   UNL     1       0.318  11.569  19.786  0.00  0.00    +0.000 C 
ATOM     18  S   UNL     1       1.690  12.441  19.393  0.00  0.00    +0.000 S 
BRANCH  17  19
ATOM     19  N   UNL     1      -0.848  12.259  20.013  0.00  0.00    +0.000 N 
ATOM     20  H   UNL     1      -0.745  13.145  20.501  0.00  0.00    +0.000 HD
BRANCH  19  21
ATOM     21  C   UNL     1      -2.079  12.037  19.373  0.00  0.00    +0.000 A 
ATOM     22  C   UNL     1      -3.239  12.515  19.971  0.00  0.00    +0.000 A 
ATOM     23  C   UNL     1      -4.476  12.301  19.358  0.00  0.00    +0.000 A 
ATOM     24  C   UNL     1      -4.545  11.665  18.115  0.00  0.00    +0.000 A 
ATOM     25  C   UNL     1      -3.376  11.230  17.474  0.00  0.00    +0.000 A 
ATOM     26  C   UNL     1      -2.151  11.407  18.123  0.00  0.00    +0.000 A 
BRANCH  25  27
ATOM     27  C   UNL     1      -3.400  10.603  16.103  0.00  0.00    +0.000 C 
ATOM     28  F   UNL     1      -2.526  11.170  15.226  0.00  0.00    +0.000 F 
ATOM     29  F   UNL     1      -3.089   9.278  16.134  0.00  0.00    +0.000 F 
ATOM     30  F   UNL     1      -4.625  10.686  15.516  0.00  0.00    +0.000 F 
ENDBRANCH  25  27
ENDBRANCH  19  21
ENDBRANCH  17  19
ENDBRANCH   1  17
TORSDOF 7
ENDMDL
MODEL 6
REMARK VINA RESULT:      -8.0      1.425      2.025
REMARK  Name = 
REMARK  8 active torsions:
REMARK  status: ('A' for Active; 'I' for Inactive)
REMARK    1  A    between atoms: C_1  and  C_2
REMARK    2  A    between atoms: C_2  and  C_3
REMARK    3  A    between atoms: C_6  and  C_7
REMARK    4  A    between atoms: C_10  and  N_11
REMARK    5  A    between atoms: N_11  and  C_12
REMARK    6  A    between atoms: C_12  and  N_14
REMARK    7  A    between atoms: N_14  and  C_15
REMARK    8  A    between atoms: C_19  and  C_20
REMARK                            x       y       z     vdW  Elec       q    Type
REMARK                         _______ _______ _______ _____ _____    ______ ____
ROOT
ATOM      1  N   UNL     1       2.785   4.295  18.954  0.00  0.00    +0.000 N 
ATOM      2  H   UNL     1       2.597   3.952  18.019  0.00  0.00    +0.000 HD
ENDROOT
BRANCH   1   6
ATOM      3  C   UNL     1       1.677   8.284  19.750  0.00  0.00    +0.000 A 
ATOM      4  C   UNL     1       1.496   7.291  20.715  0.00  0.00    +0.000 A 
ATOM      5  C   UNL     1       1.897   5.971  20.460  0.00  0.00    +0.000 A 
ATOM      6  C   UNL     1       2.442   5.631  19.220  0.00  0.00    +0.000 A 
ATOM      7  C   UNL     1       2.707   6.632  18.293  0.00  0.00    +0.000 A 
ATOM      8  C   UNL     1       2.329   7.944  18.553  0.00  0.00    +0.000 A 
BRANCH   3  12
ATOM      9  C   UNL     1      -1.250  11.381  20.499  0.00  0.00    +0.000 C 
ATOM     10  C   UNL     1      -0.592  11.383  19.112  0.00  0.00    +0.000 C 
ATOM     11  C   UNL     1       0.115  10.055  18.841  0.00  0.00    +0.000 C 
ATOM     12  C   UNL     1       1.136   9.695  19.936  0.00  0.00    +0.000 C 
ATOM     13  C   UNL     1       0.544   9.839  21.356  0.00  0.00    +0.000 C 
ATOM     14  C   UNL     1      -0.178  11.168  21.574  0.00  0.00    +0.000 C 
BRANCH   9  16
ATOM     15  C   UNL     1      -3.471  12.648  20.058  0.00  0.00    +0.000 C 
ATOM     16  C   UNL     1      -2.120  12.625  20.754  0.00  0.00    +0.000 C 
ENDBRANCH   9  16
ENDBRANCH   3  12
ENDBRANCH   1   6
BRANCH   1  17
ATOM     17  C   UNL     1       3.541   3.437  19.728  0.00  0.00    +0.000 C 
ATOM     18  S   UNL     1       3.084   2.686  21.152  0.00  0.00    +0.000 S 
BRANCH  17  19
ATOM     19  N   UNL     1       4.847   3.311  19.318  0.00  0.00    +0.000 N 
ATOM     20  H   UNL     1       5.247   2.382  19.410  0.00  0.00    +0.000 HD
BRANCH  19  21
ATOM     21  C   UNL     1       5.551   4.218  18.509  0.00  0.00    +0.000 A 
ATOM     22  C   UNL     1       6.275   5.236  19.120  0.00  0.00    +0.000 A 
ATOM     23  C   UNL     1       6.978   6.155  18.337  0.00  0.00    +0.000 A 
ATOM     24  C   UNL     1       7.008   6.017  16.946  0.00  0.00    +0.000 A 
ATOM     25  C   UNL     1       6.329   4.961  16.323  0.00  0.00    +0.000 A 
ATOM     26  C   UNL     1       5.590   4.079  17.115  0.00  0.00    +0.000 A 
BRANCH  25  27
ATOM     27  C   UNL     1       6.393   4.736  14.833  0.00  0.00    +0.000 C 
ATOM     28  F   UNL     1       6.373   3.422  14.476  0.00  0.00    +0.000 F 
ATOM     29  F   UNL     1       5.350   5.316  14.176  0.00  0.00    +0.000 F 
ATOM     30  F   UNL     1       7.521   5.257  14.277  0.00  0.00    +0.000 F 
ENDBRANCH  25  27
ENDBRANCH  19  21
ENDBRANCH  17  19
ENDBRANCH   1  17
TORSDOF 7
ENDMDL
MODEL 7
REMARK VINA RESULT:      -8.0      3.785      4.862
REMARK  Name = 
REMARK  8 active torsions:
REMARK  status: ('A' for Active; 'I' for Inactive)
REMARK    1  A    between atoms: C_1  and  C_2
REMARK    2  A    between atoms: C_2  and  C_3
REMARK    3  A    between atoms: C_6  and  C_7
REMARK    4  A    between atoms: C_10  and  N_11
REMARK    5  A    between atoms: N_11  and  C_12
REMARK    6  A    between atoms: C_12  and  N_14
REMARK    7  A    between atoms: N_14  and  C_15
REMARK    8  A    between atoms: C_19  and  C_20
REMARK                            x       y       z     vdW  Elec       q    Type
REMARK                         _______ _______ _______ _____ _____    ______ ____
ROOT
ATOM      1  N   UNL     1       3.753   6.577  17.407  0.00  0.00    +0.000 N 
ATOM      2  H   UNL     1       3.443   6.357  16.467  0.00  0.00    +0.000 HD
ENDROOT
BRANCH   1   6
ATOM      3  C   UNL     1       1.127   8.898  19.749  0.00  0.00    +0.000 A 
ATOM      4  C   UNL     1       1.746   7.768  20.287  0.00  0.00    +0.000 A 
ATOM      5  C   UNL     1       2.647   7.017  19.516  0.00  0.00    +0.000 A 
ATOM      6  C   UNL     1       2.897   7.370  18.188  0.00  0.00    +0.000 A 
ATOM      7  C   UNL     1       2.353   8.544  17.680  0.00  0.00    +0.000 A 
ATOM      8  C   UNL     1       1.477   9.300  18.450  0.00  0.00    +0.000 A 
BRANCH   3  12
ATOM      9  C   UNL     1      -0.580  11.964  22.280  0.00  0.00    +0.000 C 
ATOM     10  C   UNL     1      -0.668  10.522  22.799  0.00  0.00    +0.000 C 
ATOM     11  C   UNL     1       0.281   9.606  22.026  0.00  0.00    +0.000 C 
ATOM     12  C   UNL     1       0.047   9.660  20.506  0.00  0.00    +0.000 C 
ATOM     13  C   UNL     1      -0.029  11.110  19.978  0.00  0.00    +0.000 C 
ATOM     14  C   UNL     1      -0.965  11.999  20.796  0.00  0.00    +0.000 C 
BRANCH   9  16
ATOM     15  C   UNL     1      -1.714  14.289  22.474  0.00  0.00    +0.000 C 
ATOM     16  C   UNL     1      -1.384  12.960  23.134  0.00  0.00    +0.000 C 
ENDBRANCH   9  16
ENDBRANCH   3  12
ENDBRANCH   1   6
BRANCH   1  17
ATOM     17  C   UNL     1       5.064   6.225  17.666  0.00  0.00    +0.000 C 
ATOM     18  S   UNL     1       6.428   7.167  17.445  0.00  0.00    +0.000 S 
BRANCH  17  19
ATOM     19  N   UNL     1       5.234   4.908  18.021  0.00  0.00    +0.000 N 
ATOM     20  H   UNL     1       6.173   4.651  18.313  0.00  0.00    +0.000 HD
BRANCH  19  21
ATOM     21  C   UNL     1       4.212   3.996  18.331  0.00  0.00    +0.000 A 
ATOM     22  C   UNL     1       4.027   2.894  17.503  0.00  0.00    +0.000 A 
ATOM     23  C   UNL     1       3.012   1.976  17.786  0.00  0.00    +0.000 A 
ATOM     24  C   UNL     1       2.225   2.126  18.931  0.00  0.00    +0.000 A 
ATOM     25  C   UNL     1       2.441   3.202  19.804  0.00  0.00    +0.000 A 
ATOM     26  C   UNL     1       3.427   4.139  19.483  0.00  0.00    +0.000 A 
BRANCH  25  27
ATOM     27  C   UNL     1       1.662   3.362  21.085  0.00  0.00    +0.000 C 
ATOM     28  F   UNL     1       0.620   4.233  20.987  0.00  0.00    +0.000 F 
ATOM     29  F   UNL     1       1.124   2.186  21.514  0.00  0.00    +0.000 F 
ATOM     30  F   UNL     1       2.434   3.815  22.110  0.00  0.00    +0.000 F 
ENDBRANCH  25  27
ENDBRANCH  19  21
ENDBRANCH  17  19
ENDBRANCH   1  17
TORSDOF 7
ENDMDL
MODEL 8
REMARK VINA RESULT:      -8.0      2.233      2.704
REMARK  Name = 
REMARK  8 active torsions:
REMARK  status: ('A' for Active; 'I' for Inactive)
REMARK    1  A    between atoms: C_1  and  C_2
REMARK    2  A    between atoms: C_2  and  C_3
REMARK    3  A    between atoms: C_6  and  C_7
REMARK    4  A    between atoms: C_10  and  N_11
REMARK    5  A    between atoms: N_11  and  C_12
REMARK    6  A    between atoms: C_12  and  N_14
REMARK    7  A    between atoms: N_14  and  C_15
REMARK    8  A    between atoms: C_19  and  C_20
REMARK                            x       y       z     vdW  Elec       q    Type
REMARK                         _______ _______ _______ _____ _____    ______ ____
ROOT
ATOM      1  N   UNL     1       2.971   4.603  18.873  0.00  0.00    +0.000 N 
ATOM      2  H   UNL     1       3.021   4.566  17.861  0.00  0.00    +0.000 HD
ENDROOT
BRANCH   1   6
ATOM      3  C   UNL     1       1.472   8.151  20.585  0.00  0.00    +0.000 A 
ATOM      4  C   UNL     1       2.114   8.178  19.345  0.00  0.00    +0.000 A 
ATOM      5  C   UNL     1       2.581   6.990  18.762  0.00  0.00    +0.000 A 
ATOM      6  C   UNL     1       2.446   5.776  19.438  0.00  0.00    +0.000 A 
ATOM      7  C   UNL     1       1.728   5.734  20.628  0.00  0.00    +0.000 A 
ATOM      8  C   UNL     1       1.247   6.907  21.196  0.00  0.00    +0.000 A 
BRANCH   3  12
ATOM      9  C   UNL     1      -1.118  11.349  21.923  0.00  0.00    +0.000 C 
ATOM     10  C   UNL     1       0.054  11.752  21.018  0.00  0.00    +0.000 C 
ATOM     11  C   UNL     1       0.650  10.530  20.320  0.00  0.00    +0.000 C 
ATOM     12  C   UNL     1       1.071   9.429  21.310  0.00  0.00    +0.000 C 
ATOM     13  C   UNL     1      -0.039   9.113  22.337  0.00  0.00    +0.000 C 
ATOM     14  C   UNL     1      -0.627  10.364  22.990  0.00  0.00    +0.000 C 
BRANCH   9  16
ATOM     15  C   UNL     1      -3.379  12.446  22.568  0.00  0.00    +0.000 C 
ATOM     16  C   UNL     1      -1.864  12.557  22.516  0.00  0.00    +0.000 C 
ENDBRANCH   9  16
ENDBRANCH   3  12
ENDBRANCH   1   6
BRANCH   1  17
ATOM     17  C   UNL     1       3.631   3.569  19.508  0.00  0.00    +0.000 C 
ATOM     18  S   UNL     1       2.985   2.468  20.590  0.00  0.00    +0.000 S 
BRANCH  17  19
ATOM     19  N   UNL     1       4.989   3.554  19.300  0.00  0.00    +0.000 N 
ATOM     20  H   UNL     1       5.471   2.714  19.609  0.00  0.00    +0.000 HD
BRANCH  19  21
ATOM     21  C   UNL     1       5.703   4.403  18.439  0.00  0.00    +0.000 A 
ATOM     22  C   UNL     1       6.478   5.418  18.991  0.00  0.00    +0.000 A 
ATOM     23  C   UNL     1       7.191   6.280  18.155  0.00  0.00    +0.000 A 
ATOM     24  C   UNL     1       7.181   6.087  16.770  0.00  0.00    +0.000 A 
ATOM     25  C   UNL     1       6.450   5.032  16.206  0.00  0.00    +0.000 A 
ATOM     26  C   UNL     1       5.702   4.208  17.051  0.00  0.00    +0.000 A 
BRANCH  25  27
ATOM     27  C   UNL     1       6.469   4.747  14.726  0.00  0.00    +0.000 C 
ATOM     28  F   UNL     1       5.382   5.230  14.061  0.00  0.00    +0.000 F 
ATOM     29  F   UNL     1       7.554   5.291  14.107  0.00  0.00    +0.000 F 
ATOM     30  F   UNL     1       6.512   3.414  14.453  0.00  0.00    +0.000 F 
ENDBRANCH  25  27
ENDBRANCH  19  21
ENDBRANCH  17  19
ENDBRANCH   1  17
TORSDOF 7
ENDMDL
MODEL 9
REMARK VINA RESULT:      -8.0      1.932      2.780
REMARK  Name = 
REMARK  8 active torsions:
REMARK  status: ('A' for Active; 'I' for Inactive)
REMARK    1  A    between atoms: C_1  and  C_2
REMARK    2  A    between atoms: C_2  and  C_3
REMARK    3  A    between atoms: C_6  and  C_7
REMARK    4  A    between atoms: C_10  and  N_11
REMARK    5  A    between atoms: N_11  and  C_12
REMARK    6  A    between atoms: C_12  and  N_14
REMARK    7  A    between atoms: N_14  and  C_15
REMARK    8  A    between atoms: C_19  and  C_20
REMARK                            x       y       z     vdW  Elec       q    Type
REMARK                         _______ _______ _______ _____ _____    ______ ____
ROOT
ATOM      1  N   UNL     1       4.036   4.938  18.688  0.00  0.00    +0.000 N 
ATOM      2  H   UNL     1       4.858   4.868  19.276  0.00  0.00    +0.000 HD
ENDROOT
BRANCH   1   6
ATOM      3  C   UNL     1       1.853   8.532  18.988  0.00  0.00    +0.000 A 
ATOM      4  C   UNL     1       2.586   8.241  17.835  0.00  0.00    +0.000 A 
ATOM      5  C   UNL     1       3.284   7.029  17.725  0.00  0.00    +0.000 A 
ATOM      6  C   UNL     1       3.286   6.121  18.786  0.00  0.00    +0.000 A 
ATOM      7  C   UNL     1       2.484   6.367  19.895  0.00  0.00    +0.000 A 
ATOM      8  C   UNL     1       1.776   7.558  19.997  0.00  0.00    +0.000 A 
BRANCH   3  12
ATOM      9  C   UNL     1      -1.267  11.348  20.016  0.00  0.00    +0.000 C 
ATOM     10  C   UNL     1      -0.792  11.357  18.556  0.00  0.00    +0.000 C 
ATOM     11  C   UNL     1       0.012  10.097  18.236  0.00  0.00    +0.000 C 
ATOM     12  C   UNL     1       1.194   9.888  19.200  0.00  0.00    +0.000 C 
ATOM     13  C   UNL     1       0.772  10.031  20.680  0.00  0.00    +0.000 C 
ATOM     14  C   UNL     1      -0.053  11.289  20.950  0.00  0.00    +0.000 C 
BRANCH   9  16
ATOM     15  C   UNL     1      -2.770  12.541  21.762  0.00  0.00    +0.000 C 
ATOM     16  C   UNL     1      -2.224  12.508  20.344  0.00  0.00    +0.000 C 
ENDBRANCH   9  16
ENDBRANCH   3  12
ENDBRANCH   1   6
BRANCH   1  17
ATOM     17  C   UNL     1       3.694   3.759  18.054  0.00  0.00    +0.000 C 
ATOM     18  S   UNL     1       2.236   2.943  18.150  0.00  0.00    +0.000 S 
BRANCH  17  19
ATOM     19  N   UNL     1       4.732   3.158  17.383  0.00  0.00    +0.000 N 
ATOM     20  H   UNL     1       4.785   2.147  17.474  0.00  0.00    +0.000 HD
BRANCH  19  21
ATOM     21  C   UNL     1       5.498   3.735  16.357  0.00  0.00    +0.000 A 
ATOM     22  C   UNL     1       6.541   4.589  16.701  0.00  0.00    +0.000 A 
ATOM     23  C   UNL     1       7.312   5.180  15.698  0.00  0.00    +0.000 A 
ATOM     24  C   UNL     1       7.083   4.868  14.355  0.00  0.00    +0.000 A 
ATOM     25  C   UNL     1       6.071   3.964  14.000  0.00  0.00    +0.000 A 
ATOM     26  C   UNL     1       5.275   3.418  15.010  0.00  0.00    +0.000 A 
BRANCH  25  27
ATOM     27  C   UNL     1       5.837   3.547  12.570  0.00  0.00    +0.000 C 
ATOM     28  F   UNL     1       5.966   2.207  12.362  0.00  0.00    +0.000 F 
ATOM     29  F   UNL     1       4.587   3.872  12.134  0.00  0.00    +0.000 F 
ATOM     30  F   UNL     1       6.701   4.145  11.706  0.00  0.00    +0.000 F 
ENDBRANCH  25  27
ENDBRANCH  19  21
ENDBRANCH  17  19
ENDBRANCH   1  17
TORSDOF 7
ENDMDL
