MODEL 1
REMARK VINA RESULT:      -7.7      0.000      0.000
REMARK  Name = 
REMARK  9 active torsions:
REMARK  status: ('A' for Active; 'I' for Inactive)
REMARK    1  A    between atoms: C_1  and  O_2
REMARK    2  A    between atoms: O_2  and  C_3
REMARK    3  A    between atoms: C_6  and  C_7
REMARK    4  A    between atoms: N_9  and  C_10
REMARK    5  A    between atoms: C_14  and  O_15
REMARK    6  A    between atoms: O_15  and  C_16
REMARK    7  A    between atoms: C_16  and  C_17
REMARK    8  A    between atoms: C_17  and  C_18
REMARK    9  A    between atoms: C_18  and  N_19
REMARK                            x       y       z     vdW  Elec       q    Type
REMARK                         _______ _______ _______ _____ _____    ______ ____
ROOT
ATOM      1  C   UNL     1       5.007   4.084  17.125  0.00  0.00    +0.000 C 
ATOM      2  C   UNL     1       4.804   4.344  15.578  0.00  0.00    +0.000 C 
ATOM      3  N   UNL     1       5.584   5.397  14.953  0.00  0.00    +0.000 NA
ATOM      4  C   UNL     1       7.013   5.061  15.033  0.00  0.00    +0.000 C 
ATOM      5  C   UNL     1       5.197   6.619  15.667  0.00  0.00    +0.000 C 
ATOM      6  C   UNL     1       5.727   6.566  17.074  0.00  0.00    +0.000 A 
ATOM      7  C   UNL     1       6.748   7.545  17.301  0.00  0.00    +0.000 A 
ATOM      8  C   UNL     1       7.767   7.347  18.219  0.00  0.00    +0.000 A 
ATOM      9  C   UNL     1       7.610   6.279  19.085  0.00  0.00    +0.000 A 
ATOM     10  C   UNL     1       6.505   5.335  18.947  0.00  0.00    +0.000 A 
ATOM     11  C   UNL     1       5.569   5.392  17.870  0.00  0.00    +0.000 A 
ENDROOT
BRANCH   1  15
ATOM     12  C   UNL     1       1.825   2.360  19.373  0.00  0.00    +0.000 A 
ATOM     13  C   UNL     1       1.596   3.356  18.439  0.00  0.00    +0.000 A 
ATOM     14  C   UNL     1       2.535   3.671  17.429  0.00  0.00    +0.000 A 
ATOM     15  C   UNL     1       3.794   3.048  17.338  0.00  0.00    +0.000 A 
ATOM     16  C   UNL     1       3.949   1.915  18.188  0.00  0.00    +0.000 A 
ATOM     17  C   UNL     1       2.978   1.595  19.216  0.00  0.00    +0.000 A 
BRANCH  12  19
ATOM     18  C   UNL     1       1.177   2.690  21.703  0.00  0.00    +0.000 C 
ATOM     19  O   UNL     1       0.878   2.305  20.371  0.00  0.00    +0.000 OA
ENDBRANCH  12  19
ENDBRANCH   1  15
BRANCH   8  20
ATOM     20  O   UNL     1       8.764   8.272  18.065  0.00  0.00    +0.000 OA
BRANCH  20  21
ATOM     21  C   UNL     1       8.691   9.709  18.184  0.00  0.00    +0.000 C 
BRANCH  21  22
ATOM     22  C   UNL     1       9.401  10.368  19.375  0.00  0.00    +0.000 C 
BRANCH  22  23
ATOM     23  C   UNL     1       9.772  11.868  19.175  0.00  0.00    +0.000 C 
BRANCH  23  24
ATOM     24  N   UNL     1      10.200  12.223  17.816  0.00  0.00    +0.000 NA
ATOM     25  C   UNL     1      10.178  13.698  17.602  0.00  0.00    +0.000 C 
ATOM     26  C   UNL     1      11.480  13.536  16.806  0.00  0.00    +0.000 C 
ATOM     27  C   UNL     1      11.696  12.301  17.704  0.00  0.00    +0.000 C 
ENDBRANCH  23  24
ENDBRANCH  22  23
ENDBRANCH  21  22
ENDBRANCH  20  21
ENDBRANCH   8  20
TORSDOF 7
ENDMDL
MODEL 2
REMARK VINA RESULT:      -7.5      4.930      7.686
REMARK  Name = 
REMARK  9 active torsions:
REMARK  status: ('A' for Active; 'I' for Inactive)
REMARK    1  A    between atoms: C_1  and  O_2
REMARK    2  A    between atoms: O_2  and  C_3
REMARK    3  A    between atoms: C_6  and  C_7
REMARK    4  A    between atoms: N_9  and  C_10
REMARK    5  A    between atoms: C_14  and  O_15
REMARK    6  A    between atoms: O_15  and  C_16
REMARK    7  A    between atoms: C_16  and  C_17
REMARK    8  A    between atoms: C_17  and  C_18
REMARK    9  A    between atoms: C_18  and  N_19
REMARK                            x       y       z     vdW  Elec       q    Type
REMARK                         _______ _______ _______ _____ _____    ______ ____
ROOT
ATOM      1  C   UNL     1       4.016   4.390  17.397  0.00  0.00    +0.000 C 
ATOM      2  C   UNL     1       3.520   2.981  17.918  0.00  0.00    +0.000 C 
ATOM      3  N   UNL     1       2.512   2.954  18.962  0.00  0.00    +0.000 NA
ATOM      4  C   UNL     1       1.271   3.561  18.459  0.00  0.00    +0.000 C 
ATOM      5  C   UNL     1       3.129   3.657  20.092  0.00  0.00    +0.000 C 
ATOM      6  C   UNL     1       3.263   5.119  19.759  0.00  0.00    +0.000 A 
ATOM      7  C   UNL     1       2.409   5.934  20.570  0.00  0.00    +0.000 A 
ATOM      8  C   UNL     1       1.896   7.140  20.117  0.00  0.00    +0.000 A 
ATOM      9  C   UNL     1       2.448   7.640  18.951  0.00  0.00    +0.000 A 
ATOM     10  C   UNL     1       3.415   6.873  18.171  0.00  0.00    +0.000 A 
ATOM     11  C   UNL     1       3.789   5.536  18.501  0.00  0.00    +0.000 A 
ENDROOT
BRANCH   1  15
ATOM     12  C   UNL     1       7.165   4.948  14.583  0.00  0.00    +0.000 A 
ATOM     13  C   UNL     1       7.405   4.943  15.946  0.00  0.00    +0.000 A 
ATOM     14  C   UNL     1       6.485   4.392  16.870  0.00  0.00    +0.000 A 
ATOM     15  C   UNL     1       5.235   3.873  16.482  0.00  0.00    +0.000 A 
ATOM     16  C   UNL     1       5.074   3.725  15.075  0.00  0.00    +0.000 A 
ATOM     17  C   UNL     1       6.025   4.286  14.136  0.00  0.00    +0.000 A 
BRANCH  12  19
ATOM     18  C   UNL     1       8.074   5.685  12.441  0.00  0.00    +0.000 C 
ATOM     19  O   UNL     1       8.090   5.666  13.859  0.00  0.00    +0.000 OA
ENDBRANCH  12  19
ENDBRANCH   1  15
BRANCH   8  20
ATOM     20  O   UNL     1       0.901   7.597  20.938  0.00  0.00    +0.000 OA
BRANCH  20  21
ATOM     21  C   UNL     1       0.808   8.861  21.630  0.00  0.00    +0.000 C 
BRANCH  21  22
ATOM     22  C   UNL     1      -0.079   9.953  21.016  0.00  0.00    +0.000 C 
BRANCH  22  23
ATOM     23  C   UNL     1       0.626  10.866  19.969  0.00  0.00    +0.000 C 
BRANCH  23  24
ATOM     24  N   UNL     1      -0.142  11.105  18.740  0.00  0.00    +0.000 NA
ATOM     25  C   UNL     1      -0.177   9.895  17.872  0.00  0.00    +0.000 C 
ATOM     26  C   UNL     1      -1.641  10.236  17.566  0.00  0.00    +0.000 C 
ATOM     27  C   UNL     1      -1.615  10.906  18.956  0.00  0.00    +0.000 C 
ENDBRANCH  23  24
ENDBRANCH  22  23
ENDBRANCH  21  22
ENDBRANCH  20  21
ENDBRANCH   8  20
TORSDOF 7
ENDMDL
MODEL 3
REMARK VINA RESULT:      -7.3      4.970      7.514
REMARK  Name = 
REMARK  9 active torsions:
REMARK  status: ('A' for Active; 'I' for Inactive)
REMARK    1  A    between atoms: C_1  and  O_2
REMARK    2  A    between atoms: O_2  and  C_3
REMARK    3  A    between atoms: C_6  and  C_7
REMARK    4  A    between atoms: N_9  and  C_10
REMARK    5  A    between atoms: C_14  and  O_15
REMARK    6  A    between atoms: O_15  and  C_16
REMARK    7  A    between atoms: C_16  and  C_17
REMARK    8  A    between atoms: C_17  and  C_18
REMARK    9  A    between atoms: C_18  and  N_19
REMARK                            x       y       z     vdW  Elec       q    Type
REMARK                         _______ _______ _______ _____ _____    ______ ____
ROOT
ATOM      1  C   UNL     1       3.897   4.502  17.396  0.00  0.00    +0.000 C 
ATOM      2  C   UNL     1       3.442   3.129  18.037  0.00  0.00    +0.000 C 
ATOM      3  N   UNL     1       2.472   3.166  19.116  0.00  0.00    +0.000 NA
ATOM      4  C   UNL     1       1.204   3.718  18.617  0.00  0.00    +0.000 C 
ATOM      5  C   UNL     1       3.118   3.958  20.168  0.00  0.00    +0.000 C 
ATOM      6  C   UNL     1       3.217   5.393  19.725  0.00  0.00    +0.000 A 
ATOM      7  C   UNL     1       2.381   6.255  20.505  0.00  0.00    +0.000 A 
ATOM      8  C   UNL     1       1.833   7.417  19.985  0.00  0.00    +0.000 A 
ATOM      9  C   UNL     1       2.334   7.837  18.766  0.00  0.00    +0.000 A 
ATOM     10  C   UNL     1       3.285   7.028  18.008  0.00  0.00    +0.000 A 
ATOM     11  C   UNL     1       3.691   5.723  18.421  0.00  0.00    +0.000 A 
ENDROOT
BRANCH   1  15
ATOM     12  C   UNL     1       7.140   4.946  14.670  0.00  0.00    +0.000 A 
ATOM     13  C   UNL     1       7.349   4.853  16.035  0.00  0.00    +0.000 A 
ATOM     14  C   UNL     1       6.369   4.333  16.912  0.00  0.00    +0.000 A 
ATOM     15  C   UNL     1       5.090   3.936  16.477  0.00  0.00    +0.000 A 
ATOM     16  C   UNL     1       4.948   3.872  15.061  0.00  0.00    +0.000 A 
ATOM     17  C   UNL     1       5.960   4.401  14.169  0.00  0.00    +0.000 A 
BRANCH  12  19
ATOM     18  C   UNL     1       8.212   5.620  12.583  0.00  0.00    +0.000 C 
ATOM     19  O   UNL     1       8.134   5.623  13.999  0.00  0.00    +0.000 OA
ENDBRANCH  12  19
ENDBRANCH   1  15
BRANCH   8  20
ATOM     20  O   UNL     1       0.861   7.920  20.806  0.00  0.00    +0.000 OA
BRANCH  20  21
ATOM     21  C   UNL     1       0.902   9.098  21.641  0.00  0.00    +0.000 C 
BRANCH  21  22
ATOM     22  C   UNL     1       0.171  10.355  21.147  0.00  0.00    +0.000 C 
BRANCH  22  23
ATOM     23  C   UNL     1      -0.593  10.189  19.799  0.00  0.00    +0.000 C 
BRANCH  23  24
ATOM     24  N   UNL     1      -0.210  11.142  18.750  0.00  0.00    +0.000 NA
ATOM     25  C   UNL     1      -1.277  12.155  18.515  0.00  0.00    +0.000 C 
ATOM     26  C   UNL     1      -0.162  13.199  18.362  0.00  0.00    +0.000 C 
ATOM     27  C   UNL     1       0.633  12.260  19.293  0.00  0.00    +0.000 C 
ENDBRANCH  23  24
ENDBRANCH  22  23
ENDBRANCH  21  22
ENDBRANCH  20  21
ENDBRANCH   8  20
TORSDOF 7
ENDMDL
MODEL 4
REMARK VINA RESULT:      -7.3      0.822      1.105
REMARK  Name = 
REMARK  9 active torsions:
REMARK  status: ('A' for Active; 'I' for Inactive)
REMARK    1  A    between atoms: C_1  and  O_2
REMARK    2  A    between atoms: O_2  and  C_3
REMARK    3  A    between atoms: C_6  and  C_7
REMARK    4  A    between atoms: N_9  and  C_10
REMARK    5  A    between atoms: C_14  and  O_15
REMARK    6  A    between atoms: O_15  and  C_16
REMARK    7  A    between atoms: C_16  and  C_17
REMARK    8  A    between atoms: C_17  and  C_18
REMARK    9  A    between atoms: C_18  and  N_19
REMARK                            x       y       z     vdW  Elec       q    Type
REMARK                         _______ _______ _______ _____ _____    ______ ____
ROOT
ATOM      1  C   UNL     1       5.169   4.178  17.120  0.00  0.00    +0.000 C 
ATOM      2  C   UNL     1       4.879   4.460  15.591  0.00  0.00    +0.000 C 
ATOM      3  N   UNL     1       5.580   5.559  14.953  0.00  0.00    +0.000 NA
ATOM      4  C   UNL     1       7.024   5.285  14.956  0.00  0.00    +0.000 C 
ATOM      5  C   UNL     1       5.176   6.748  15.712  0.00  0.00    +0.000 C 
ATOM      6  C   UNL     1       5.776   6.690  17.090  0.00  0.00    +0.000 A 
ATOM      7  C   UNL     1       6.763   7.709  17.289  0.00  0.00    +0.000 A 
ATOM      8  C   UNL     1       7.834   7.539  18.152  0.00  0.00    +0.000 A 
ATOM      9  C   UNL     1       7.767   6.448  19.001  0.00  0.00    +0.000 A 
ATOM     10  C   UNL     1       6.698   5.459  18.895  0.00  0.00    +0.000 A 
ATOM     11  C   UNL     1       5.709   5.495  17.867  0.00  0.00    +0.000 A 
ENDROOT
BRANCH   1  15
ATOM     12  C   UNL     1       1.941   2.486  19.326  0.00  0.00    +0.000 A 
ATOM     13  C   UNL     1       1.720   3.349  18.267  0.00  0.00    +0.000 A 
ATOM     14  C   UNL     1       2.714   3.617  17.295  0.00  0.00    +0.000 A 
ATOM     15  C   UNL     1       4.015   3.085  17.369  0.00  0.00    +0.000 A 
ATOM     16  C   UNL     1       4.177   2.071  18.357  0.00  0.00    +0.000 A 
ATOM     17  C   UNL     1       3.151   1.797  19.343  0.00  0.00    +0.000 A 
BRANCH  12  19
ATOM     18  C   UNL     1       1.177   2.642  21.639  0.00  0.00    +0.000 C 
ATOM     19  O   UNL     1       0.924   2.473  20.254  0.00  0.00    +0.000 OA
ENDBRANCH  12  19
ENDBRANCH   1  15
BRANCH   8  20
ATOM     20  O   UNL     1       8.780   8.510  17.971  0.00  0.00    +0.000 OA
BRANCH  20  21
ATOM     21  C   UNL     1       9.090   9.640  18.815  0.00  0.00    +0.000 C 
BRANCH  21  22
ATOM     22  C   UNL     1       9.138  11.030  18.166  0.00  0.00    +0.000 C 
BRANCH  22  23
ATOM     23  C   UNL     1      10.570  11.593  17.914  0.00  0.00    +0.000 C 
BRANCH  23  24
ATOM     24  N   UNL     1      10.960  12.704  18.791  0.00  0.00    +0.000 NA
ATOM     25  C   UNL     1       9.770  13.419  19.332  0.00  0.00    +0.000 C 
ATOM     26  C   UNL     1      10.522  13.526  20.666  0.00  0.00    +0.000 C 
ATOM     27  C   UNL     1      11.230  12.239  20.194  0.00  0.00    +0.000 C 
ENDBRANCH  23  24
ENDBRANCH  22  23
ENDBRANCH  21  22
ENDBRANCH  20  21
ENDBRANCH   8  20
TORSDOF 7
ENDMDL
MODEL 5
REMARK VINA RESULT:      -7.1      5.498      8.008
REMARK  Name = 
REMARK  9 active torsions:
REMARK  status: ('A' for Active; 'I' for Inactive)
REMARK    1  A    between atoms: C_1  and  O_2
REMARK    2  A    between atoms: O_2  and  C_3
REMARK    3  A    between atoms: C_6  and  C_7
REMARK    4  A    between atoms: N_9  and  C_10
REMARK    5  A    between atoms: C_14  and  O_15
REMARK    6  A    between atoms: O_15  and  C_16
REMARK    7  A    between atoms: C_16  and  C_17
REMARK    8  A    between atoms: C_17  and  C_18
REMARK    9  A    between atoms: C_18  and  N_19
REMARK                            x       y       z     vdW  Elec       q    Type
REMARK                         _______ _______ _______ _____ _____    ______ ____
ROOT
ATOM      1  C   UNL     1       3.912   4.587  17.384  0.00  0.00    +0.000 C 
ATOM      2  C   UNL     1       3.461   3.234  18.069  0.00  0.00    +0.000 C 
ATOM      3  N   UNL     1       2.504   3.304  19.158  0.00  0.00    +0.000 NA
ATOM      4  C   UNL     1       1.232   3.845  18.658  0.00  0.00    +0.000 C 
ATOM      5  C   UNL     1       3.164   4.124  20.179  0.00  0.00    +0.000 C 
ATOM      6  C   UNL     1       3.262   5.545  19.695  0.00  0.00    +0.000 A 
ATOM      7  C   UNL     1       2.436   6.431  20.461  0.00  0.00    +0.000 A 
ATOM      8  C   UNL     1       1.885   7.579  19.914  0.00  0.00    +0.000 A 
ATOM      9  C   UNL     1       2.374   7.963  18.678  0.00  0.00    +0.000 A 
ATOM     10  C   UNL     1       3.313   7.131  17.932  0.00  0.00    +0.000 A 
ATOM     11  C   UNL     1       3.722   5.837  18.377  0.00  0.00    +0.000 A 
ENDROOT
BRANCH   1  15
ATOM     12  C   UNL     1       7.160   4.950  14.653  0.00  0.00    +0.000 A 
ATOM     13  C   UNL     1       7.369   4.861  16.018  0.00  0.00    +0.000 A 
ATOM     14  C   UNL     1       6.379   4.365  16.900  0.00  0.00    +0.000 A 
ATOM     15  C   UNL     1       5.093   3.992  16.468  0.00  0.00    +0.000 A 
ATOM     16  C   UNL     1       4.948   3.922  15.052  0.00  0.00    +0.000 A 
ATOM     17  C   UNL     1       5.970   4.426  14.156  0.00  0.00    +0.000 A 
BRANCH  12  19
ATOM     18  C   UNL     1       8.189   5.676  12.562  0.00  0.00    +0.000 C 
ATOM     19  O   UNL     1       8.167   5.603  13.978  0.00  0.00    +0.000 OA
ENDBRANCH  12  19
ENDBRANCH   1  15
BRANCH   8  20
ATOM     20  O   UNL     1       0.924   8.108  20.732  0.00  0.00    +0.000 OA
BRANCH  20  21
ATOM     21  C   UNL     1       1.012   9.251  21.610  0.00  0.00    +0.000 C 
BRANCH  21  22
ATOM     22  C   UNL     1      -0.291   9.966  21.993  0.00  0.00    +0.000 C 
BRANCH  22  23
ATOM     23  C   UNL     1      -0.788  11.029  20.968  0.00  0.00    +0.000 C 
BRANCH  23  24
ATOM     24  N   UNL     1      -1.428  12.209  21.562  0.00  0.00    +0.000 NA
ATOM     25  C   UNL     1      -1.890  11.939  22.953  0.00  0.00    +0.000 C 
ATOM     26  C   UNL     1      -1.418  13.354  23.314  0.00  0.00    +0.000 C 
ATOM     27  C   UNL     1      -0.420  13.151  22.154  0.00  0.00    +0.000 C 
ENDBRANCH  23  24
ENDBRANCH  22  23
ENDBRANCH  21  22
ENDBRANCH  20  21
ENDBRANCH   8  20
TORSDOF 7
ENDMDL
MODEL 6
REMARK VINA RESULT:      -7.1      5.108      8.150
REMARK  Name = 
REMARK  9 active torsions:
REMARK  status: ('A' for Active; 'I' for Inactive)
REMARK    1  A    between atoms: C_1  and  O_2
REMARK    2  A    between atoms: O_2  and  C_3
REMARK    3  A    between atoms: C_6  and  C_7
REMARK    4  A    between atoms: N_9  and  C_10
REMARK    5  A    between atoms: C_14  and  O_15
REMARK    6  A    between atoms: O_15  and  C_16
REMARK    7  A    between atoms: C_16  and  C_17
REMARK    8  A    between atoms: C_17  and  C_18
REMARK    9  A    between atoms: C_18  and  N_19
REMARK                            x       y       z     vdW  Elec       q    Type
REMARK                         _______ _______ _______ _____ _____    ______ ____
ROOT
ATOM      1  C   UNL     1       3.873   5.056  17.420  0.00  0.00    +0.000 C 
ATOM      2  C   UNL     1       3.422   3.840  18.326  0.00  0.00    +0.000 C 
ATOM      3  N   UNL     1       2.404   4.077  19.332  0.00  0.00    +0.000 NA
ATOM      4  C   UNL     1       1.147   4.465  18.674  0.00  0.00    +0.000 C 
ATOM      5  C   UNL     1       2.981   5.100  20.211  0.00  0.00    +0.000 C 
ATOM      6  C   UNL     1       3.065   6.407  19.470  0.00  0.00    +0.000 A 
ATOM      7  C   UNL     1       2.173   7.389  20.010  0.00  0.00    +0.000 A 
ATOM      8  C   UNL     1       1.622   8.391  19.227  0.00  0.00    +0.000 A 
ATOM      9  C   UNL     1       2.169   8.553  17.966  0.00  0.00    +0.000 A 
ATOM     10  C   UNL     1       3.173   7.632  17.442  0.00  0.00    +0.000 A 
ATOM     11  C   UNL     1       3.591   6.462  18.145  0.00  0.00    +0.000 A 
ENDROOT
BRANCH   1  15
ATOM     12  C   UNL     1       7.171   4.979  14.725  0.00  0.00    +0.000 A 
ATOM     13  C   UNL     1       7.343   5.246  16.071  0.00  0.00    +0.000 A 
ATOM     14  C   UNL     1       6.364   4.910  17.036  0.00  0.00    +0.000 A 
ATOM     15  C   UNL     1       5.121   4.344  16.696  0.00  0.00    +0.000 A 
ATOM     16  C   UNL     1       5.026   3.916  15.340  0.00  0.00    +0.000 A 
ATOM     17  C   UNL     1       6.037   4.259  14.360  0.00  0.00    +0.000 A 
BRANCH  12  19
ATOM     18  C   UNL     1       8.053   5.487  12.506  0.00  0.00    +0.000 C 
ATOM     19  O   UNL     1       8.149   5.520  13.921  0.00  0.00    +0.000 OA
ENDBRANCH  12  19
ENDBRANCH   1  15
BRANCH   8  20
ATOM     20  O   UNL     1       0.601   9.028  19.879  0.00  0.00    +0.000 OA
BRANCH  20  21
ATOM     21  C   UNL     1       0.461  10.431  20.189  0.00  0.00    +0.000 C 
BRANCH  21  22
ATOM     22  C   UNL     1      -0.959  11.002  20.309  0.00  0.00    +0.000 C 
BRANCH  22  23
ATOM     23  C   UNL     1      -1.525  11.646  19.008  0.00  0.00    +0.000 C 
BRANCH  23  24
ATOM     24  N   UNL     1      -1.536  10.762  17.835  0.00  0.00    +0.000 NA
ATOM     25  C   UNL     1      -2.570   9.697  17.962  0.00  0.00    +0.000 C 
ATOM     26  C   UNL     1      -2.862   9.893  16.468  0.00  0.00    +0.000 C 
ATOM     27  C   UNL     1      -2.361  11.331  16.716  0.00  0.00    +0.000 C 
ENDBRANCH  23  24
ENDBRANCH  22  23
ENDBRANCH  21  22
ENDBRANCH  20  21
ENDBRANCH   8  20
TORSDOF 7
ENDMDL
MODEL 7
REMARK VINA RESULT:      -7.1      4.611      6.874
REMARK  Name = 
REMARK  9 active torsions:
REMARK  status: ('A' for Active; 'I' for Inactive)
REMARK    1  A    between atoms: C_1  and  O_2
REMARK    2  A    between atoms: O_2  and  C_3
REMARK    3  A    between atoms: C_6  and  C_7
REMARK    4  A    between atoms: N_9  and  C_10
REMARK    5  A    between atoms: C_14  and  O_15
REMARK    6  A    between atoms: O_15  and  C_16
REMARK    7  A    between atoms: C_16  and  C_17
REMARK    8  A    between atoms: C_17  and  C_18
REMARK    9  A    between atoms: C_18  and  N_19
REMARK                            x       y       z     vdW  Elec       q    Type
REMARK                         _______ _______ _______ _____ _____    ______ ____
ROOT
ATOM      1  C   UNL     1       3.934   4.602  17.398  0.00  0.00    +0.000 C 
ATOM      2  C   UNL     1       3.499   3.262  18.117  0.00  0.00    +0.000 C 
ATOM      3  N   UNL     1       2.532   3.346  19.195  0.00  0.00    +0.000 NA
ATOM      4  C   UNL     1       1.255   3.852  18.670  0.00  0.00    +0.000 C 
ATOM      5  C   UNL     1       3.170   4.206  20.199  0.00  0.00    +0.000 C 
ATOM      6  C   UNL     1       3.248   5.614  19.676  0.00  0.00    +0.000 A 
ATOM      7  C   UNL     1       2.401   6.507  20.409  0.00  0.00    +0.000 A 
ATOM      8  C   UNL     1       1.836   7.630  19.826  0.00  0.00    +0.000 A 
ATOM      9  C   UNL     1       2.329   7.988  18.583  0.00  0.00    +0.000 A 
ATOM     10  C   UNL     1       3.288   7.150  17.869  0.00  0.00    +0.000 A 
ATOM     11  C   UNL     1       3.714   5.877  18.353  0.00  0.00    +0.000 A 
ENDROOT
BRANCH   1  15
ATOM     12  C   UNL     1       7.142   4.931  14.615  0.00  0.00    +0.000 A 
ATOM     13  C   UNL     1       7.365   4.938  15.981  0.00  0.00    +0.000 A 
ATOM     14  C   UNL     1       6.405   4.457  16.902  0.00  0.00    +0.000 A 
ATOM     15  C   UNL     1       5.132   4.001  16.509  0.00  0.00    +0.000 A 
ATOM     16  C   UNL     1       4.980   3.836  15.102  0.00  0.00    +0.000 A 
ATOM     17  C   UNL     1       5.972   4.325  14.165  0.00  0.00    +0.000 A 
BRANCH  12  19
ATOM     18  C   UNL     1       8.116   5.573  12.471  0.00  0.00    +0.000 C 
ATOM     19  O   UNL     1       8.114   5.582  13.890  0.00  0.00    +0.000 OA
ENDBRANCH  12  19
ENDBRANCH   1  15
BRANCH   8  20
ATOM     20  O   UNL     1       0.859   8.166  20.620  0.00  0.00    +0.000 OA
BRANCH  20  21
ATOM     21  C   UNL     1       0.770   9.498  21.172  0.00  0.00    +0.000 C 
BRANCH  21  22
ATOM     22  C   UNL     1       0.572  10.667  20.198  0.00  0.00    +0.000 C 
BRANCH  22  23
ATOM     23  C   UNL     1       1.202  12.019  20.650  0.00  0.00    +0.000 C 
BRANCH  23  24
ATOM     24  N   UNL     1       1.441  12.982  19.568  0.00  0.00    +0.000 NA
ATOM     25  C   UNL     1       2.669  13.789  19.814  0.00  0.00    +0.000 C 
ATOM     26  C   UNL     1       2.969  13.671  18.314  0.00  0.00    +0.000 C 
ATOM     27  C   UNL     1       2.171  12.355  18.414  0.00  0.00    +0.000 C 
ENDBRANCH  23  24
ENDBRANCH  22  23
ENDBRANCH  21  22
ENDBRANCH  20  21
ENDBRANCH   8  20
TORSDOF 7
ENDMDL
MODEL 8
REMARK VINA RESULT:      -7.0      1.179      1.630
REMARK  Name = 
REMARK  9 active torsions:
REMARK  status: ('A' for Active; 'I' for Inactive)
REMARK    1  A    between atoms: C_1  and  O_2
REMARK    2  A    between atoms: O_2  and  C_3
REMARK    3  A    between atoms: C_6  and  C_7
REMARK    4  A    between atoms: N_9  and  C_10
REMARK    5  A    between atoms: C_14  and  O_15
REMARK    6  A    between atoms: O_15  and  C_16
REMARK    7  A    between atoms: C_16  and  C_17
REMARK    8  A    between atoms: C_17  and  C_18
REMARK    9  A    between atoms: C_18  and  N_19
REMARK                            x       y       z     vdW  Elec       q    Type
REMARK                         _______ _______ _______ _____ _____    ______ ____
ROOT
ATOM      1  C   UNL     1       5.141   4.104  17.222  0.00  0.00    +0.000 C 
ATOM      2  C   UNL     1       4.832   4.322  15.686  0.00  0.00    +0.000 C 
ATOM      3  N   UNL     1       5.526   5.392  14.994  0.00  0.00    +0.000 NA
ATOM      4  C   UNL     1       6.971   5.117  14.991  0.00  0.00    +0.000 C 
ATOM      5  C   UNL     1       5.133   6.612  15.707  0.00  0.00    +0.000 C 
ATOM      6  C   UNL     1       5.750   6.612  17.079  0.00  0.00    +0.000 A 
ATOM      7  C   UNL     1       6.740   7.636  17.223  0.00  0.00    +0.000 A 
ATOM      8  C   UNL     1       7.822   7.501  18.080  0.00  0.00    +0.000 A 
ATOM      9  C   UNL     1       7.764   6.446  18.974  0.00  0.00    +0.000 A 
ATOM     10  C   UNL     1       6.694   5.455  18.923  0.00  0.00    +0.000 A 
ATOM     11  C   UNL     1       5.692   5.450  17.906  0.00  0.00    +0.000 A 
ENDROOT
BRANCH   1  15
ATOM     12  C   UNL     1       1.924   2.523  19.524  0.00  0.00    +0.000 A 
ATOM     13  C   UNL     1       1.698   3.330  18.424  0.00  0.00    +0.000 A 
ATOM     14  C   UNL     1       2.687   3.550  17.436  0.00  0.00    +0.000 A 
ATOM     15  C   UNL     1       3.989   3.023  17.531  0.00  0.00    +0.000 A 
ATOM     16  C   UNL     1       4.156   2.061  18.568  0.00  0.00    +0.000 A 
ATOM     17  C   UNL     1       3.135   1.836  19.572  0.00  0.00    +0.000 A 
BRANCH  12  19
ATOM     18  C   UNL     1       1.180   2.651  21.846  0.00  0.00    +0.000 C 
ATOM     19  O   UNL     1       0.911   2.556  20.456  0.00  0.00    +0.000 OA
ENDBRANCH  12  19
ENDBRANCH   1  15
BRANCH   8  20
ATOM     20  O   UNL     1       8.766   8.463  17.846  0.00  0.00    +0.000 OA
BRANCH  20  21
ATOM     21  C   UNL     1       8.685   9.886  18.078  0.00  0.00    +0.000 C 
BRANCH  21  22
ATOM     22  C   UNL     1       9.390  10.453  19.317  0.00  0.00    +0.000 C 
BRANCH  22  23
ATOM     23  C   UNL     1       9.519  12.006  19.352  0.00  0.00    +0.000 C 
BRANCH  23  24
ATOM     24  N   UNL     1       9.367  12.609  20.682  0.00  0.00    +0.000 NA
ATOM     25  C   UNL     1      10.468  13.568  20.978  0.00  0.00    +0.000 C 
ATOM     26  C   UNL     1       9.417  14.471  21.637  0.00  0.00    +0.000 C 
ATOM     27  C   UNL     1       8.440  13.791  20.655  0.00  0.00    +0.000 C 
ENDBRANCH  23  24
ENDBRANCH  22  23
ENDBRANCH  21  22
ENDBRANCH  20  21
ENDBRANCH   8  20
TORSDOF 7
ENDMDL
MODEL 9
REMARK VINA RESULT:      -6.9      8.148     10.415
REMARK  Name = 
REMARK  9 active torsions:
REMARK  status: ('A' for Active; 'I' for Inactive)
REMARK    1  A    between atoms: C_1  and  O_2
REMARK    2  A    between atoms: O_2  and  C_3
REMARK    3  A    between atoms: C_6  and  C_7
REMARK    4  A    between atoms: N_9  and  C_10
REMARK    5  A    between atoms: C_14  and  O_15
REMARK    6  A    between atoms: O_15  and  C_16
REMARK    7  A    between atoms: C_16  and  C_17
REMARK    8  A    between atoms: C_17  and  C_18
REMARK    9  A    between atoms: C_18  and  N_19
REMARK                            x       y       z     vdW  Elec       q    Type
REMARK                         _______ _______ _______ _____ _____    ______ ____
ROOT
ATOM      1  C   UNL     1       1.946   8.469  19.350  0.00  0.00    +0.000 C 
ATOM      2  C   UNL     1       1.735   9.386  18.078  0.00  0.00    +0.000 C 
ATOM      3  N   UNL     1       1.041  10.648  18.252  0.00  0.00    +0.000 NA
ATOM      4  C   UNL     1       1.822  11.518  19.143  0.00  0.00    +0.000 C 
ATOM      5  C   UNL     1      -0.284  10.276  18.761  0.00  0.00    +0.000 C 
ATOM      6  C   UNL     1      -0.151   9.743  20.162  0.00  0.00    +0.000 A 
ATOM      7  C   UNL     1      -0.752  10.614  21.127  0.00  0.00    +0.000 A 
ATOM      8  C   UNL     1      -0.290  10.698  22.431  0.00  0.00    +0.000 A 
ATOM      9  C   UNL     1       0.609   9.721  22.825  0.00  0.00    +0.000 A 
ATOM     10  C   UNL     1       1.143   8.745  21.881  0.00  0.00    +0.000 A 
ATOM     11  C   UNL     1       0.851   8.779  20.484  0.00  0.00    +0.000 A 
ENDROOT
BRANCH   1  15
ATOM     12  C   UNL     1       4.917   5.525  18.542  0.00  0.00    +0.000 A 
ATOM     13  C   UNL     1       3.892   5.291  19.442  0.00  0.00    +0.000 A 
ATOM     14  C   UNL     1       2.707   6.064  19.449  0.00  0.00    +0.000 A 
ATOM     15  C   UNL     1       2.509   7.165  18.594  0.00  0.00    +0.000 A 
ATOM     16  C   UNL     1       3.486   7.288  17.564  0.00  0.00    +0.000 A 
ATOM     17  C   UNL     1       4.694   6.487  17.560  0.00  0.00    +0.000 A 
BRANCH  12  19
ATOM     18  C   UNL     1       7.234   4.959  18.022  0.00  0.00    +0.000 C 
ATOM     19  O   UNL     1       6.052   4.785  18.787  0.00  0.00    +0.000 OA
ENDBRANCH  12  19
ENDBRANCH   1  15
BRANCH   8  20
ATOM     20  O   UNL     1      -0.823  11.778  23.080  0.00  0.00    +0.000 OA
BRANCH  20  21
ATOM     21  C   UNL     1      -2.056  12.478  22.809  0.00  0.00    +0.000 C 
BRANCH  21  22
ATOM     22  C   UNL     1      -3.266  12.175  23.704  0.00  0.00    +0.000 C 
BRANCH  22  23
ATOM     23  C   UNL     1      -4.490  13.120  23.504  0.00  0.00    +0.000 C 
BRANCH  23  24
ATOM     24  N   UNL     1      -5.717  12.454  23.052  0.00  0.00    +0.000 NA
ATOM     25  C   UNL     1      -6.816  12.595  24.048  0.00  0.00    +0.000 C 
ATOM     26  C   UNL     1      -7.775  12.790  22.867  0.00  0.00    +0.000 C 
ATOM     27  C   UNL     1      -6.526  13.333  22.142  0.00  0.00    +0.000 C 
ENDBRANCH  23  24
ENDBRANCH  22  23
ENDBRANCH  21  22
ENDBRANCH  20  21
ENDBRANCH   8  20
TORSDOF 7
ENDMDL
