MODEL 1
REMARK VINA RESULT:      -7.4      0.000      0.000
REMARK  Name = 
REMARK  4 active torsions:
REMARK  status: ('A' for Active; 'I' for Inactive)
REMARK    1  A    between atoms: C_7  and  C_8
REMARK    2  A    between atoms: C_8  and  N_9
REMARK    3  A    between atoms: N_9  and  C_10
REMARK    4  A    between atoms: C_10  and  C_11
REMARK                            x       y       z     vdW  Elec       q    Type
REMARK                         _______ _______ _______ _____ _____    ______ ____
ROOT
ATOM      1 CL   UNL     1       8.325   7.451  18.549  0.00  0.00    +0.000 Cl
ATOM      2  C   UNL     1       7.225   6.231  18.054  0.00  0.00    +0.000 A 
ATOM      3  C   UNL     1       6.993   6.023  16.634  0.00  0.00    +0.000 A 
ATOM      4  C   UNL     1       6.146   5.070  16.194  0.00  0.00    +0.000 A 
ATOM      5  C   UNL     1       5.448   4.254  17.131  0.00  0.00    +0.000 A 
ATOM      6  N   UNL     1       4.583   3.274  16.976  0.00  0.00    +0.000 NA
ATOM      7  C   UNL     1       4.234   2.881  18.254  0.00  0.00    +0.000 A 
ATOM      8  C   UNL     1       4.912   3.626  19.191  0.00  0.00    +0.000 A 
ATOM      9  N   UNL     1       5.690   4.502  18.482  0.00  0.00    +0.000 N 
ATOM     10  C   UNL     1       6.571   5.471  18.947  0.00  0.00    +0.000 A 
ENDROOT
BRANCH   7  11
ATOM     11  C   UNL     1       3.277   1.751  18.495  0.00  0.00    +0.000 C 
BRANCH  11  12
ATOM     12  N   UNL     1       2.006   1.965  17.800  0.00  0.00    +0.000 NA
ATOM     13  H   UNL     1       1.645   1.049  17.526  0.00  0.00    +0.000 HD
BRANCH  12  14
ATOM     14  C   UNL     1       1.006   2.618  18.644  0.00  0.00    +0.000 C 
BRANCH  14  15
ATOM     15  C   UNL     1       1.414   4.031  18.996  0.00  0.00    +0.000 A 
ATOM     16  C   UNL     1       1.475   4.447  20.334  0.00  0.00    +0.000 A 
ATOM     17  C   UNL     1       1.848   5.754  20.652  0.00  0.00    +0.000 A 
ATOM     18  C   UNL     1       2.163   6.657  19.638  0.00  0.00    +0.000 A 
ATOM     19  C   UNL     1       2.118   6.251  18.306  0.00  0.00    +0.000 A 
ATOM     20  C   UNL     1       1.745   4.945  17.986  0.00  0.00    +0.000 A 
ENDBRANCH  14  15
ENDBRANCH  12  14
ENDBRANCH  11  12
ENDBRANCH   7  11
TORSDOF 4
ENDMDL
MODEL 2
REMARK VINA RESULT:      -7.3      3.114      4.740
REMARK  Name = 
REMARK  4 active torsions:
REMARK  status: ('A' for Active; 'I' for Inactive)
REMARK    1  A    between atoms: C_7  and  C_8
REMARK    2  A    between atoms: C_8  and  N_9
REMARK    3  A    between atoms: N_9  and  C_10
REMARK    4  A    between atoms: C_10  and  C_11
REMARK                            x       y       z     vdW  Elec       q    Type
REMARK                         _______ _______ _______ _____ _____    ______ ____
ROOT
ATOM      1 CL   UNL     1       4.942   2.568  11.184  0.00  0.00    +0.000 Cl
ATOM      2  C   UNL     1       5.739   3.465  12.411  0.00  0.00    +0.000 A 
ATOM      3  C   UNL     1       6.971   4.165  12.087  0.00  0.00    +0.000 A 
ATOM      4  C   UNL     1       7.629   4.892  13.014  0.00  0.00    +0.000 A 
ATOM      5  C   UNL     1       7.123   4.971  14.344  0.00  0.00    +0.000 A 
ATOM      6  N   UNL     1       7.557   5.595  15.418  0.00  0.00    +0.000 NA
ATOM      7  C   UNL     1       6.658   5.282  16.420  0.00  0.00    +0.000 A 
ATOM      8  C   UNL     1       5.659   4.469  15.935  0.00  0.00    +0.000 A 
ATOM      9  N   UNL     1       5.948   4.269  14.611  0.00  0.00    +0.000 N 
ATOM     10  C   UNL     1       5.253   3.529  13.661  0.00  0.00    +0.000 A 
ENDROOT
BRANCH   7  11
ATOM     11  C   UNL     1       6.800   5.837  17.805  0.00  0.00    +0.000 C 
BRANCH  11  12
ATOM     12  N   UNL     1       6.438   4.847  18.822  0.00  0.00    +0.000 NA
ATOM     13  H   UNL     1       7.174   4.849  19.531  0.00  0.00    +0.000 HD
BRANCH  12  14
ATOM     14  C   UNL     1       5.167   5.154  19.479  0.00  0.00    +0.000 C 
BRANCH  14  15
ATOM     15  C   UNL     1       4.052   4.270  18.971  0.00  0.00    +0.000 A 
ATOM     16  C   UNL     1       2.936   4.823  18.325  0.00  0.00    +0.000 A 
ATOM     17  C   UNL     1       1.907   4.002  17.862  0.00  0.00    +0.000 A 
ATOM     18  C   UNL     1       1.981   2.622  18.039  0.00  0.00    +0.000 A 
ATOM     19  C   UNL     1       3.091   2.060  18.667  0.00  0.00    +0.000 A 
ATOM     20  C   UNL     1       4.120   2.879  19.131  0.00  0.00    +0.000 A 
ENDBRANCH  14  15
ENDBRANCH  12  14
ENDBRANCH  11  12
ENDBRANCH   7  11
TORSDOF 4
ENDMDL
MODEL 3
REMARK VINA RESULT:      -7.3      0.204      1.126
REMARK  Name = 
REMARK  4 active torsions:
REMARK  status: ('A' for Active; 'I' for Inactive)
REMARK    1  A    between atoms: C_7  and  C_8
REMARK    2  A    between atoms: C_8  and  N_9
REMARK    3  A    between atoms: N_9  and  C_10
REMARK    4  A    between atoms: C_10  and  C_11
REMARK                            x       y       z     vdW  Elec       q    Type
REMARK                         _______ _______ _______ _____ _____    ______ ____
ROOT
ATOM      1 CL   UNL     1       8.130   7.663  18.153  0.00  0.00    +0.000 Cl
ATOM      2  C   UNL     1       7.084   6.351  17.795  0.00  0.00    +0.000 A 
ATOM      3  C   UNL     1       6.846   5.997  16.406  0.00  0.00    +0.000 A 
ATOM      4  C   UNL     1       6.040   4.967  16.072  0.00  0.00    +0.000 A 
ATOM      5  C   UNL     1       5.393   4.213  17.094  0.00  0.00    +0.000 A 
ATOM      6  N   UNL     1       4.574   3.185  17.048  0.00  0.00    +0.000 NA
ATOM      7  C   UNL     1       4.258   2.900  18.363  0.00  0.00    +0.000 A 
ATOM      8  C   UNL     1       4.911   3.763  19.213  0.00  0.00    +0.000 A 
ATOM      9  N   UNL     1       5.638   4.602  18.411  0.00  0.00    +0.000 N 
ATOM     10  C   UNL     1       6.477   5.651  18.767  0.00  0.00    +0.000 A 
ENDROOT
BRANCH   7  11
ATOM     11  C   UNL     1       3.360   1.756  18.726  0.00  0.00    +0.000 C 
BRANCH  11  12
ATOM     12  N   UNL     1       2.097   1.806  17.985  0.00  0.00    +0.000 NA
ATOM     13  H   UNL     1       1.789   0.844  17.834  0.00  0.00    +0.000 HD
BRANCH  12  14
ATOM     14  C   UNL     1       1.046   2.516  18.713  0.00  0.00    +0.000 C 
BRANCH  14  15
ATOM     15  C   UNL     1       1.439   3.947  19.001  0.00  0.00    +0.000 A 
ATOM     16  C   UNL     1       1.749   4.830  17.957  0.00  0.00    +0.000 A 
ATOM     17  C   UNL     1       2.116   6.149  18.229  0.00  0.00    +0.000 A 
ATOM     18  C   UNL     1       2.177   6.598  19.547  0.00  0.00    +0.000 A 
ATOM     19  C   UNL     1       1.859   5.734  20.592  0.00  0.00    +0.000 A 
ATOM     20  C   UNL     1       1.492   4.416  20.322  0.00  0.00    +0.000 A 
ENDBRANCH  14  15
ENDBRANCH  12  14
ENDBRANCH  11  12
ENDBRANCH   7  11
TORSDOF 4
ENDMDL
MODEL 4
REMARK VINA RESULT:      -7.3      3.222      4.716
REMARK  Name = 
REMARK  4 active torsions:
REMARK  status: ('A' for Active; 'I' for Inactive)
REMARK    1  A    between atoms: C_7  and  C_8
REMARK    2  A    between atoms: C_8  and  N_9
REMARK    3  A    between atoms: N_9  and  C_10
REMARK    4  A    between atoms: C_10  and  C_11
REMARK                            x       y       z     vdW  Elec       q    Type
REMARK                         _______ _______ _______ _____ _____    ______ ____
ROOT
ATOM      1 CL   UNL     1       4.378   2.884  10.970  0.00  0.00    +0.000 Cl
ATOM      2  C   UNL     1       5.367   3.565  12.196  0.00  0.00    +0.000 A 
ATOM      3  C   UNL     1       6.649   4.143  11.828  0.00  0.00    +0.000 A 
ATOM      4  C   UNL     1       7.458   4.699  12.754  0.00  0.00    +0.000 A 
ATOM      5  C   UNL     1       7.065   4.714  14.123  0.00  0.00    +0.000 A 
ATOM      6  N   UNL     1       7.651   5.181  15.205  0.00  0.00    +0.000 NA
ATOM      7  C   UNL     1       6.796   4.884  16.249  0.00  0.00    +0.000 A 
ATOM      8  C   UNL     1       5.671   4.242  15.784  0.00  0.00    +0.000 A 
ATOM      9  N   UNL     1       5.835   4.132  14.429  0.00  0.00    +0.000 N 
ATOM     10  C   UNL     1       4.986   3.569  13.483  0.00  0.00    +0.000 A 
ENDROOT
BRANCH   7  11
ATOM     11  C   UNL     1       7.106   5.290  17.659  0.00  0.00    +0.000 C 
BRANCH  11  12
ATOM     12  N   UNL     1       6.505   4.371  18.629  0.00  0.00    +0.000 NA
ATOM     13  H   UNL     1       7.209   4.167  19.340  0.00  0.00    +0.000 HD
BRANCH  12  14
ATOM     14  C   UNL     1       5.333   4.942  19.293  0.00  0.00    +0.000 C 
BRANCH  14  15
ATOM     15  C   UNL     1       4.057   4.268  18.845  0.00  0.00    +0.000 A 
ATOM     16  C   UNL     1       3.913   2.875  18.933  0.00  0.00    +0.000 A 
ATOM     17  C   UNL     1       2.734   2.257  18.514  0.00  0.00    +0.000 A 
ATOM     18  C   UNL     1       1.688   3.023  18.002  0.00  0.00    +0.000 A 
ATOM     19  C   UNL     1       1.815   4.409  17.922  0.00  0.00    +0.000 A 
ATOM     20  C   UNL     1       2.992   5.028  18.341  0.00  0.00    +0.000 A 
ENDBRANCH  14  15
ENDBRANCH  12  14
ENDBRANCH  11  12
ENDBRANCH   7  11
TORSDOF 4
ENDMDL
MODEL 5
REMARK VINA RESULT:      -7.2      3.077      4.437
REMARK  Name = 
REMARK  4 active torsions:
REMARK  status: ('A' for Active; 'I' for Inactive)
REMARK    1  A    between atoms: C_7  and  C_8
REMARK    2  A    between atoms: C_8  and  N_9
REMARK    3  A    between atoms: N_9  and  C_10
REMARK    4  A    between atoms: C_10  and  C_11
REMARK                            x       y       z     vdW  Elec       q    Type
REMARK                         _______ _______ _______ _____ _____    ______ ____
ROOT
ATOM      1 CL   UNL     1       4.906   2.992  11.007  0.00  0.00    +0.000 Cl
ATOM      2  C   UNL     1       5.704   3.602  12.398  0.00  0.00    +0.000 A 
ATOM      3  C   UNL     1       6.956   4.322  12.234  0.00  0.00    +0.000 A 
ATOM      4  C   UNL     1       7.617   4.830  13.295  0.00  0.00    +0.000 A 
ATOM      5  C   UNL     1       7.093   4.652  14.609  0.00  0.00    +0.000 A 
ATOM      6  N   UNL     1       7.526   5.035  15.791  0.00  0.00    +0.000 NA
ATOM      7  C   UNL     1       6.605   4.549  16.700  0.00  0.00    +0.000 A 
ATOM      8  C   UNL     1       5.595   3.877  16.051  0.00  0.00    +0.000 A 
ATOM      9  N   UNL     1       5.899   3.940  14.717  0.00  0.00    +0.000 N 
ATOM     10  C   UNL     1       5.202   3.425  13.630  0.00  0.00    +0.000 A 
ENDROOT
BRANCH   7  11
ATOM     11  C   UNL     1       6.739   4.810  18.170  0.00  0.00    +0.000 C 
BRANCH  11  12
ATOM     12  N   UNL     1       5.695   4.125  18.936  0.00  0.00    +0.000 NA
ATOM     13  H   UNL     1       6.138   3.700  19.752  0.00  0.00    +0.000 HD
BRANCH  12  14
ATOM     14  C   UNL     1       4.650   5.036  19.403  0.00  0.00    +0.000 C 
BRANCH  14  15
ATOM     15  C   UNL     1       3.295   4.367  19.418  0.00  0.00    +0.000 A 
ATOM     16  C   UNL     1       2.615   4.097  18.221  0.00  0.00    +0.000 A 
ATOM     17  C   UNL     1       1.362   3.483  18.241  0.00  0.00    +0.000 A 
ATOM     18  C   UNL     1       0.775   3.133  19.455  0.00  0.00    +0.000 A 
ATOM     19  C   UNL     1       1.447   3.384  20.650  0.00  0.00    +0.000 A 
ATOM     20  C   UNL     1       2.700   3.997  20.632  0.00  0.00    +0.000 A 
ENDBRANCH  14  15
ENDBRANCH  12  14
ENDBRANCH  11  12
ENDBRANCH   7  11
TORSDOF 4
ENDMDL
MODEL 6
REMARK VINA RESULT:      -7.1      3.147      4.388
REMARK  Name = 
REMARK  4 active torsions:
REMARK  status: ('A' for Active; 'I' for Inactive)
REMARK    1  A    between atoms: C_7  and  C_8
REMARK    2  A    between atoms: C_8  and  N_9
REMARK    3  A    between atoms: N_9  and  C_10
REMARK    4  A    between atoms: C_10  and  C_11
REMARK                            x       y       z     vdW  Elec       q    Type
REMARK                         _______ _______ _______ _____ _____    ______ ____
ROOT
ATOM      1 CL   UNL     1       5.693   2.263  11.122  0.00  0.00    +0.000 Cl
ATOM      2  C   UNL     1       6.143   3.296  12.416  0.00  0.00    +0.000 A 
ATOM      3  C   UNL     1       7.246   4.224  12.228  0.00  0.00    +0.000 A 
ATOM      4  C   UNL     1       7.632   5.064  13.211  0.00  0.00    +0.000 A 
ATOM      5  C   UNL     1       6.961   5.039  14.469  0.00  0.00    +0.000 A 
ATOM      6  N   UNL     1       7.132   5.732  15.574  0.00  0.00    +0.000 NA
ATOM      7  C   UNL     1       6.195   5.247  16.466  0.00  0.00    +0.000 A 
ATOM      8  C   UNL     1       5.440   4.256  15.882  0.00  0.00    +0.000 A 
ATOM      9  N   UNL     1       5.922   4.119  14.608  0.00  0.00    +0.000 N 
ATOM     10  C   UNL     1       5.506   3.260  13.597  0.00  0.00    +0.000 A 
ENDROOT
BRANCH   7  11
ATOM     11  C   UNL     1       6.056   5.816  17.847  0.00  0.00    +0.000 C 
BRANCH  11  12
ATOM     12  N   UNL     1       4.651   6.028  18.203  0.00  0.00    +0.000 NA
ATOM     13  H   UNL     1       4.080   5.531  17.517  0.00  0.00    +0.000 HD
BRANCH  12  14
ATOM     14  C   UNL     1       4.324   5.512  19.532  0.00  0.00    +0.000 C 
BRANCH  14  15
ATOM     15  C   UNL     1       3.068   4.672  19.509  0.00  0.00    +0.000 A 
ATOM     16  C   UNL     1       2.342   4.435  20.685  0.00  0.00    +0.000 A 
ATOM     17  C   UNL     1       1.185   3.654  20.658  0.00  0.00    +0.000 A 
ATOM     18  C   UNL     1       0.743   3.102  19.457  0.00  0.00    +0.000 A 
ATOM     19  C   UNL     1       1.449   3.342  18.280  0.00  0.00    +0.000 A 
ATOM     20  C   UNL     1       2.605   4.122  18.305  0.00  0.00    +0.000 A 
ENDBRANCH  14  15
ENDBRANCH  12  14
ENDBRANCH  11  12
ENDBRANCH   7  11
TORSDOF 4
ENDMDL
MODEL 7
REMARK VINA RESULT:      -7.0      2.958      4.861
REMARK  Name = 
REMARK  4 active torsions:
REMARK  status: ('A' for Active; 'I' for Inactive)
REMARK    1  A    between atoms: C_7  and  C_8
REMARK    2  A    between atoms: C_8  and  N_9
REMARK    3  A    between atoms: N_9  and  C_10
REMARK    4  A    between atoms: C_10  and  C_11
REMARK                            x       y       z     vdW  Elec       q    Type
REMARK                         _______ _______ _______ _____ _____    ______ ____
ROOT
ATOM      1 CL   UNL     1       0.242  11.111  18.624  0.00  0.00    +0.000 Cl
ATOM      2  C   UNL     1       1.089   9.652  18.939  0.00  0.00    +0.000 A 
ATOM      3  C   UNL     1       0.988   9.048  20.257  0.00  0.00    +0.000 A 
ATOM      4  C   UNL     1       1.627   7.897  20.552  0.00  0.00    +0.000 A 
ATOM      5  C   UNL     1       2.430   7.258  19.562  0.00  0.00    +0.000 A 
ATOM      6  N   UNL     1       3.145   6.154  19.584  0.00  0.00    +0.000 NA
ATOM      7  C   UNL     1       3.723   6.060  18.333  0.00  0.00    +0.000 A 
ATOM      8  C   UNL     1       3.336   7.117  17.541  0.00  0.00    +0.000 A 
ATOM      9  N   UNL     1       2.510   7.884  18.319  0.00  0.00    +0.000 N 
ATOM     10  C   UNL     1       1.845   9.063  18.000  0.00  0.00    +0.000 A 
ENDROOT
BRANCH   7  11
ATOM     11  C   UNL     1       4.598   4.902  17.956  0.00  0.00    +0.000 C 
BRANCH  11  12
ATOM     12  N   UNL     1       3.875   3.922  17.141  0.00  0.00    +0.000 NA
ATOM     13  H   UNL     1       4.405   3.785  16.279  0.00  0.00    +0.000 HD
BRANCH  12  14
ATOM     14  C   UNL     1       3.738   2.627  17.808  0.00  0.00    +0.000 C 
BRANCH  14  15
ATOM     15  C   UNL     1       2.877   2.729  19.046  0.00  0.00    +0.000 A 
ATOM     16  C   UNL     1       3.432   2.549  20.322  0.00  0.00    +0.000 A 
ATOM     17  C   UNL     1       2.632   2.639  21.462  0.00  0.00    +0.000 A 
ATOM     18  C   UNL     1       1.270   2.909  21.339  0.00  0.00    +0.000 A 
ATOM     19  C   UNL     1       0.710   3.103  20.078  0.00  0.00    +0.000 A 
ATOM     20  C   UNL     1       1.509   3.013  18.938  0.00  0.00    +0.000 A 
ENDBRANCH  14  15
ENDBRANCH  12  14
ENDBRANCH  11  12
ENDBRANCH   7  11
TORSDOF 4
ENDMDL
MODEL 8
REMARK VINA RESULT:      -6.9      2.626      5.503
REMARK  Name = 
REMARK  4 active torsions:
REMARK  status: ('A' for Active; 'I' for Inactive)
REMARK    1  A    between atoms: C_7  and  C_8
REMARK    2  A    between atoms: C_8  and  N_9
REMARK    3  A    between atoms: N_9  and  C_10
REMARK    4  A    between atoms: C_10  and  C_11
REMARK                            x       y       z     vdW  Elec       q    Type
REMARK                         _______ _______ _______ _____ _____    ______ ____
ROOT
ATOM      1 CL   UNL     1       1.392   2.506  22.018  0.00  0.00    +0.000 Cl
ATOM      2  C   UNL     1       2.072   3.385  20.710  0.00  0.00    +0.000 A 
ATOM      3  C   UNL     1       2.133   4.835  20.790  0.00  0.00    +0.000 A 
ATOM      4  C   UNL     1       2.668   5.570  19.793  0.00  0.00    +0.000 A 
ATOM      5  C   UNL     1       3.173   4.924  18.627  0.00  0.00    +0.000 A 
ATOM      6  N   UNL     1       3.732   5.391  17.532  0.00  0.00    +0.000 NA
ATOM      7  C   UNL     1       3.993   4.284  16.747  0.00  0.00    +0.000 A 
ATOM      8  C   UNL     1       3.598   3.133  17.389  0.00  0.00    +0.000 A 
ATOM      9  N   UNL     1       3.076   3.533  18.589  0.00  0.00    +0.000 N 
ATOM     10  C   UNL     1       2.541   2.764  19.616  0.00  0.00    +0.000 A 
ENDROOT
BRANCH   7  11
ATOM     11  C   UNL     1       4.666   4.408  15.412  0.00  0.00    +0.000 C 
BRANCH  11  12
ATOM     12  N   UNL     1       5.954   3.710  15.391  0.00  0.00    +0.000 NA
ATOM     13  H   UNL     1       5.948   3.076  14.590  0.00  0.00    +0.000 HD
BRANCH  12  14
ATOM     14  C   UNL     1       7.087   4.623  15.247  0.00  0.00    +0.000 C 
BRANCH  14  15
ATOM     15  C   UNL     1       7.378   5.355  16.537  0.00  0.00    +0.000 A 
ATOM     16  C   UNL     1       7.645   4.647  17.718  0.00  0.00    +0.000 A 
ATOM     17  C   UNL     1       7.908   5.328  18.908  0.00  0.00    +0.000 A 
ATOM     18  C   UNL     1       7.907   6.722  18.929  0.00  0.00    +0.000 A 
ATOM     19  C   UNL     1       7.657   7.436  17.759  0.00  0.00    +0.000 A 
ATOM     20  C   UNL     1       7.393   6.757  16.569  0.00  0.00    +0.000 A 
ENDBRANCH  14  15
ENDBRANCH  12  14
ENDBRANCH  11  12
ENDBRANCH   7  11
TORSDOF 4
ENDMDL
MODEL 9
REMARK VINA RESULT:      -6.9      3.409      5.208
REMARK  Name = 
REMARK  4 active torsions:
REMARK  status: ('A' for Active; 'I' for Inactive)
REMARK    1  A    between atoms: C_7  and  C_8
REMARK    2  A    between atoms: C_8  and  N_9
REMARK    3  A    between atoms: N_9  and  C_10
REMARK    4  A    between atoms: C_10  and  C_11
REMARK                            x       y       z     vdW  Elec       q    Type
REMARK                         _______ _______ _______ _____ _____    ______ ____
ROOT
ATOM      1 CL   UNL     1      -0.529  10.779  20.926  0.00  0.00    +0.000 Cl
ATOM      2  C   UNL     1       0.556   9.892  19.936  0.00  0.00    +0.000 A 
ATOM      3  C   UNL     1       0.908  10.418  18.627  0.00  0.00    +0.000 A 
ATOM      4  C   UNL     1       1.764   9.764  17.816  0.00  0.00    +0.000 A 
ATOM      5  C   UNL     1       2.330   8.524  18.233  0.00  0.00    +0.000 A 
ATOM      6  N   UNL     1       3.171   7.697  17.650  0.00  0.00    +0.000 NA
ATOM      7  C   UNL     1       3.334   6.647  18.534  0.00  0.00    +0.000 A 
ATOM      8  C   UNL     1       2.590   6.856  19.673  0.00  0.00    +0.000 A 
ATOM      9  N   UNL     1       1.949   8.051  19.488  0.00  0.00    +0.000 N 
ATOM     10  C   UNL     1       1.079   8.724  20.339  0.00  0.00    +0.000 A 
ENDROOT
BRANCH   7  11
ATOM     11  C   UNL     1       4.257   5.504  18.235  0.00  0.00    +0.000 C 
BRANCH  11  12
ATOM     12  N   UNL     1       3.694   4.609  17.221  0.00  0.00    +0.000 NA
ATOM     13  H   UNL     1       4.294   4.661  16.396  0.00  0.00    +0.000 HD
BRANCH  12  14
ATOM     14  C   UNL     1       3.643   3.216  17.665  0.00  0.00    +0.000 C 
BRANCH  14  15
ATOM     15  C   UNL     1       2.816   3.064  18.922  0.00  0.00    +0.000 A 
ATOM     16  C   UNL     1       1.416   3.128  18.871  0.00  0.00    +0.000 A 
ATOM     17  C   UNL     1       0.658   2.992  20.035  0.00  0.00    +0.000 A 
ATOM     18  C   UNL     1       1.290   2.790  21.260  0.00  0.00    +0.000 A 
ATOM     19  C   UNL     1       2.680   2.712  21.321  0.00  0.00    +0.000 A 
ATOM     20  C   UNL     1       3.440   2.848  20.159  0.00  0.00    +0.000 A 
ENDBRANCH  14  15
ENDBRANCH  12  14
ENDBRANCH  11  12
ENDBRANCH   7  11
TORSDOF 4
ENDMDL
