MODEL 1
REMARK VINA RESULT:      -7.3      0.000      0.000
REMARK  Name = 
REMARK  6 active torsions:
REMARK  status: ('A' for Active; 'I' for Inactive)
REMARK    1  A    between atoms: C_1  and  C_2
REMARK    2  A    between atoms: C_2  and  C_3
REMARK    3  A    between atoms: C_3  and  C_4
REMARK    4  A    between atoms: C_6  and  C_7
REMARK    5  A    between atoms: C_15  and  C_16
REMARK    6  A    between atoms: C_16  and  O_17
REMARK                            x       y       z     vdW  Elec       q    Type
REMARK                         _______ _______ _______ _____ _____    ______ ____
ROOT
ATOM      1  C   UNL     1       4.847   4.769  16.707  0.00  0.00    +0.000 C 
ATOM      2  O   UNL     1       4.970   4.288  15.583  0.00  0.00    +0.000 OA
ATOM      3  N   UNL     1       3.688   4.602  17.454  0.00  0.00    +0.000 N 
ATOM      4  C   UNL     1       2.669   3.700  17.074  0.00  0.00    +0.000 C 
ATOM      5  C   UNL     1       1.686   3.844  18.235  0.00  0.00    +0.000 C 
ATOM      6  C   UNL     1       1.296   2.432  18.680  0.00  0.00    +0.000 C 
ATOM      7  C   UNL     1       0.827   2.631  20.083  0.00  0.00    +0.000 C 
ATOM      8  C   UNL     1       1.014   4.119  20.287  0.00  0.00    +0.000 C 
ATOM      9  C   UNL     1       2.364   4.605  19.555  0.00  0.00    +0.000 C 
ATOM     10  C   UNL     1       3.159   5.466  18.477  0.00  0.00    +0.000 C 
ENDROOT
BRANCH   1  13
ATOM     11  C   UNL     1       7.267   7.276  17.672  0.00  0.00    +0.000 A 
ATOM     12  N   UNL     1       6.242   6.821  16.991  0.00  0.00    +0.000 NA
ATOM     13  C   UNL     1       5.943   5.509  17.351  0.00  0.00    +0.000 A 
ATOM     14  C   UNL     1       6.723   5.024  18.385  0.00  0.00    +0.000 A 
ATOM     15  S   UNL     1       7.907   6.189  18.832  0.00  0.00    +0.000 S 
BRANCH  11  16
ATOM     16  C   UNL     1       7.843   8.639  17.446  0.00  0.00    +0.000 C 
BRANCH  16  18
ATOM     17  C   UNL     1       9.237  10.474  18.489  0.00  0.00    +0.000 C 
ATOM     18  C   UNL     1       8.615   9.103  18.685  0.00  0.00    +0.000 C 
ENDBRANCH  16  18
ENDBRANCH  11  16
ENDBRANCH   1  13
BRANCH   9  19
ATOM     19  C   UNL     1       2.233   5.989  20.426  0.00  0.00    +0.000 C 
BRANCH  19  20
ATOM     20  O   UNL     1       2.578   7.190  19.743  0.00  0.00    +0.000 OA
ATOM     21  H   UNL     1       2.389   7.950  20.316  0.00  0.00    +0.000 HD
ENDBRANCH  19  20
ENDBRANCH   9  19
TORSDOF 5
ENDMDL
MODEL 2
REMARK VINA RESULT:      -6.9      2.565      4.358
REMARK  Name = 
REMARK  6 active torsions:
REMARK  status: ('A' for Active; 'I' for Inactive)
REMARK    1  A    between atoms: C_1  and  C_2
REMARK    2  A    between atoms: C_2  and  C_3
REMARK    3  A    between atoms: C_3  and  C_4
REMARK    4  A    between atoms: C_6  and  C_7
REMARK    5  A    between atoms: C_15  and  C_16
REMARK    6  A    between atoms: C_16  and  O_17
REMARK                            x       y       z     vdW  Elec       q    Type
REMARK                         _______ _______ _______ _____ _____    ______ ____
ROOT
ATOM      1  C   UNL     1       4.157   6.376  17.691  0.00  0.00    +0.000 C 
ATOM      2  O   UNL     1       3.728   7.506  17.475  0.00  0.00    +0.000 OA
ATOM      3  N   UNL     1       3.684   5.600  18.742  0.00  0.00    +0.000 N 
ATOM      4  C   UNL     1       2.541   5.961  19.491  0.00  0.00    +0.000 C 
ATOM      5  C   UNL     1       2.414   4.773  20.444  0.00  0.00    +0.000 C 
ATOM      6  C   UNL     1       0.949   4.331  20.428  0.00  0.00    +0.000 C 
ATOM      7  C   UNL     1       1.013   2.914  20.895  0.00  0.00    +0.000 C 
ATOM      8  C   UNL     1       2.496   2.702  21.109  0.00  0.00    +0.000 C 
ATOM      9  C   UNL     1       3.328   3.466  19.960  0.00  0.00    +0.000 C 
ATOM     10  C   UNL     1       4.373   4.556  19.455  0.00  0.00    +0.000 C 
ENDROOT
BRANCH   1  13
ATOM     11  C   UNL     1       5.869   4.332  15.250  0.00  0.00    +0.000 A 
ATOM     12  N   UNL     1       4.816   4.761  15.905  0.00  0.00    +0.000 NA
ATOM     13  C   UNL     1       5.163   5.754  16.817  0.00  0.00    +0.000 A 
ATOM     14  C   UNL     1       6.497   6.116  16.765  0.00  0.00    +0.000 A 
ATOM     15  S   UNL     1       7.337   5.128  15.636  0.00  0.00    +0.000 S 
BRANCH  11  16
ATOM     16  C   UNL     1       5.797   3.223  14.247  0.00  0.00    +0.000 C 
BRANCH  16  18
ATOM     17  C   UNL     1       4.991   3.322  11.851  0.00  0.00    +0.000 C 
ATOM     18  C   UNL     1       6.059   3.762  12.836  0.00  0.00    +0.000 C 
ENDBRANCH  16  18
ENDBRANCH  11  16
ENDBRANCH   1  13
BRANCH   9  19
ATOM     19  C   UNL     1       4.625   2.580  20.434  0.00  0.00    +0.000 C 
BRANCH  19  20
ATOM     20  O   UNL     1       4.958   1.471  19.606  0.00  0.00    +0.000 OA
ATOM     21  H   UNL     1       5.674   1.725  19.002  0.00  0.00    +0.000 HD
ENDBRANCH  19  20
ENDBRANCH   9  19
TORSDOF 5
ENDMDL
MODEL 3
REMARK VINA RESULT:      -6.6      3.003      5.992
REMARK  Name = 
REMARK  6 active torsions:
REMARK  status: ('A' for Active; 'I' for Inactive)
REMARK    1  A    between atoms: C_1  and  C_2
REMARK    2  A    between atoms: C_2  and  C_3
REMARK    3  A    between atoms: C_3  and  C_4
REMARK    4  A    between atoms: C_6  and  C_7
REMARK    5  A    between atoms: C_15  and  C_16
REMARK    6  A    between atoms: C_16  and  O_17
REMARK                            x       y       z     vdW  Elec       q    Type
REMARK                         _______ _______ _______ _____ _____    ______ ____
ROOT
ATOM      1  C   UNL     1       2.492   5.262  18.104  0.00  0.00    +0.000 C 
ATOM      2  O   UNL     1       1.636   4.382  18.084  0.00  0.00    +0.000 OA
ATOM      3  N   UNL     1       3.767   5.057  17.592  0.00  0.00    +0.000 N 
ATOM      4  C   UNL     1       4.098   3.916  16.828  0.00  0.00    +0.000 C 
ATOM      5  C   UNL     1       5.554   4.206  16.461  0.00  0.00    +0.000 C 
ATOM      6  C   UNL     1       5.708   3.938  14.963  0.00  0.00    +0.000 C 
ATOM      7  C   UNL     1       6.912   4.741  14.593  0.00  0.00    +0.000 C 
ATOM      8  C   UNL     1       7.298   5.384  15.907  0.00  0.00    +0.000 C 
ATOM      9  C   UNL     1       5.972   5.799  16.722  0.00  0.00    +0.000 C 
ATOM     10  C   UNL     1       4.993   5.708  17.975  0.00  0.00    +0.000 C 
ENDROOT
BRANCH   1  13
ATOM     11  C   UNL     1       1.734   8.093  20.221  0.00  0.00    +0.000 A 
ATOM     12  N   UNL     1       2.003   6.831  19.984  0.00  0.00    +0.000 NA
ATOM     13  C   UNL     1       2.202   6.607  18.624  0.00  0.00    +0.000 A 
ATOM     14  C   UNL     1       2.158   7.758  17.858  0.00  0.00    +0.000 A 
ATOM     15  S   UNL     1       1.760   9.111  18.843  0.00  0.00    +0.000 S 
BRANCH  11  16
ATOM     16  C   UNL     1       1.418   8.605  21.592  0.00  0.00    +0.000 C 
BRANCH  16  18
ATOM     17  C   UNL     1      -0.428   9.498  23.072  0.00  0.00    +0.000 C 
ATOM     18  C   UNL     1      -0.067   8.968  21.696  0.00  0.00    +0.000 C 
ENDBRANCH  16  18
ENDBRANCH  11  16
ENDBRANCH   1  13
BRANCH   9  19
ATOM     19  C   UNL     1       6.948   6.714  17.671  0.00  0.00    +0.000 C 
BRANCH  19  20
ATOM     20  O   UNL     1       7.678   7.740  17.007  0.00  0.00    +0.000 OA
ATOM     21  H   UNL     1       7.954   8.409  17.655  0.00  0.00    +0.000 HD
ENDBRANCH  19  20
ENDBRANCH   9  19
TORSDOF 5
ENDMDL
MODEL 4
REMARK VINA RESULT:      -6.5      3.176      5.713
REMARK  Name = 
REMARK  6 active torsions:
REMARK  status: ('A' for Active; 'I' for Inactive)
REMARK    1  A    between atoms: C_1  and  C_2
REMARK    2  A    between atoms: C_2  and  C_3
REMARK    3  A    between atoms: C_3  and  C_4
REMARK    4  A    between atoms: C_6  and  C_7
REMARK    5  A    between atoms: C_15  and  C_16
REMARK    6  A    between atoms: C_16  and  O_17
REMARK                            x       y       z     vdW  Elec       q    Type
REMARK                         _______ _______ _______ _____ _____    ______ ____
ROOT
ATOM      1  C   UNL     1       2.672   4.932  18.232  0.00  0.00    +0.000 C 
ATOM      2  O   UNL     1       1.874   3.999  18.228  0.00  0.00    +0.000 OA
ATOM      3  N   UNL     1       3.931   4.824  17.655  0.00  0.00    +0.000 N 
ATOM      4  C   UNL     1       4.297   3.727  16.845  0.00  0.00    +0.000 C 
ATOM      5  C   UNL     1       5.712   4.121  16.418  0.00  0.00    +0.000 C 
ATOM      6  C   UNL     1       5.810   3.902  14.907  0.00  0.00    +0.000 C 
ATOM      7  C   UNL     1       6.940   4.790  14.504  0.00  0.00    +0.000 C 
ATOM      8  C   UNL     1       7.347   5.425  15.816  0.00  0.00    +0.000 C 
ATOM      9  C   UNL     1       6.038   5.731  16.704  0.00  0.00    +0.000 C 
ATOM     10  C   UNL     1       5.130   5.545  17.998  0.00  0.00    +0.000 C 
ENDROOT
BRANCH   1  13
ATOM     11  C   UNL     1       1.883   8.427  18.714  0.00  0.00    +0.000 A 
ATOM     12  N   UNL     1       2.170   7.367  17.997  0.00  0.00    +0.000 NA
ATOM     13  C   UNL     1       2.322   6.241  18.803  0.00  0.00    +0.000 A 
ATOM     14  C   UNL     1       2.055   6.475  20.140  0.00  0.00    +0.000 A 
ATOM     15  S   UNL     1       1.715   8.142  20.395  0.00  0.00    +0.000 S 
BRANCH  11  16
ATOM     16  C   UNL     1       1.724   9.789  18.111  0.00  0.00    +0.000 C 
BRANCH  16  18
ATOM     17  C   UNL     1      -0.755  10.274  18.229  0.00  0.00    +0.000 C 
ATOM     18  C   UNL     1       0.611  10.561  18.826  0.00  0.00    +0.000 C 
ENDBRANCH  16  18
ENDBRANCH  11  16
ENDBRANCH   1  13
BRANCH   9  19
ATOM     19  C   UNL     1       6.999   6.685  17.631  0.00  0.00    +0.000 C 
BRANCH  19  20
ATOM     20  O   UNL     1       7.738   7.685  16.939  0.00  0.00    +0.000 OA
ATOM     21  H   UNL     1       8.650   7.697  17.272  0.00  0.00    +0.000 HD
ENDBRANCH  19  20
ENDBRANCH   9  19
TORSDOF 5
ENDMDL
MODEL 5
REMARK VINA RESULT:      -6.4      2.967      4.431
REMARK  Name = 
REMARK  6 active torsions:
REMARK  status: ('A' for Active; 'I' for Inactive)
REMARK    1  A    between atoms: C_1  and  C_2
REMARK    2  A    between atoms: C_2  and  C_3
REMARK    3  A    between atoms: C_3  and  C_4
REMARK    4  A    between atoms: C_6  and  C_7
REMARK    5  A    between atoms: C_15  and  C_16
REMARK    6  A    between atoms: C_16  and  O_17
REMARK                            x       y       z     vdW  Elec       q    Type
REMARK                         _______ _______ _______ _____ _____    ______ ____
ROOT
ATOM      1  C   UNL     1       3.902   4.583  19.543  0.00  0.00    +0.000 C 
ATOM      2  O   UNL     1       3.705   3.561  20.195  0.00  0.00    +0.000 OA
ATOM      3  N   UNL     1       2.995   5.635  19.536  0.00  0.00    +0.000 N 
ATOM      4  C   UNL     1       1.906   5.698  20.434  0.00  0.00    +0.000 C 
ATOM      5  C   UNL     1       1.285   7.046  20.066  0.00  0.00    +0.000 C 
ATOM      6  C   UNL     1       1.027   7.800  21.372  0.00  0.00    +0.000 C 
ATOM      7  C   UNL     1       0.968   9.228  20.939  0.00  0.00    +0.000 C 
ATOM      8  C   UNL     1       1.213   9.132  19.448  0.00  0.00    +0.000 C 
ATOM      9  C   UNL     1       2.308   7.990  19.147  0.00  0.00    +0.000 C 
ATOM     10  C   UNL     1       2.777   6.612  18.501  0.00  0.00    +0.000 C 
ENDROOT
BRANCH   1  13
ATOM     11  C   UNL     1       6.415   4.642  16.945  0.00  0.00    +0.000 A 
ATOM     12  N   UNL     1       5.219   4.405  17.429  0.00  0.00    +0.000 NA
ATOM     13  C   UNL     1       5.137   4.775  18.769  0.00  0.00    +0.000 A 
ATOM     14  C   UNL     1       6.286   5.377  19.251  0.00  0.00    +0.000 A 
ATOM     15  S   UNL     1       7.507   5.380  18.039  0.00  0.00    +0.000 S 
BRANCH  11  16
ATOM     16  C   UNL     1       6.802   4.286  15.543  0.00  0.00    +0.000 C 
BRANCH  16  18
ATOM     17  C   UNL     1       5.885   3.749  13.247  0.00  0.00    +0.000 C 
ATOM     18  C   UNL     1       5.566   4.273  14.636  0.00  0.00    +0.000 C 
ENDBRANCH  16  18
ENDBRANCH  11  16
ENDBRANCH   1  13
BRANCH   9  19
ATOM     19  C   UNL     1       2.432   8.629  17.642  0.00  0.00    +0.000 C 
BRANCH  19  20
ATOM     20  O   UNL     1       1.860   9.921  17.464  0.00  0.00    +0.000 OA
ATOM     21  H   UNL     1       2.491  10.489  16.995  0.00  0.00    +0.000 HD
ENDBRANCH  19  20
ENDBRANCH   9  19
TORSDOF 5
ENDMDL
MODEL 6
REMARK VINA RESULT:      -6.4      2.921      4.815
REMARK  Name = 
REMARK  6 active torsions:
REMARK  status: ('A' for Active; 'I' for Inactive)
REMARK    1  A    between atoms: C_1  and  C_2
REMARK    2  A    between atoms: C_2  and  C_3
REMARK    3  A    between atoms: C_3  and  C_4
REMARK    4  A    between atoms: C_6  and  C_7
REMARK    5  A    between atoms: C_15  and  C_16
REMARK    6  A    between atoms: C_16  and  O_17
REMARK                            x       y       z     vdW  Elec       q    Type
REMARK                         _______ _______ _______ _____ _____    ______ ____
ROOT
ATOM      1  C   UNL     1       5.679   5.624  17.635  0.00  0.00    +0.000 C 
ATOM      2  O   UNL     1       6.147   6.649  18.122  0.00  0.00    +0.000 OA
ATOM      3  N   UNL     1       4.741   4.852  18.310  0.00  0.00    +0.000 N 
ATOM      4  C   UNL     1       4.107   5.299  19.491  0.00  0.00    +0.000 C 
ATOM      5  C   UNL     1       3.148   4.143  19.777  0.00  0.00    +0.000 C 
ATOM      6  C   UNL     1       1.778   4.753  20.082  0.00  0.00    +0.000 C 
ATOM      7  C   UNL     1       0.832   3.632  19.798  0.00  0.00    +0.000 C 
ATOM      8  C   UNL     1       1.759   2.522  19.352  0.00  0.00    +0.000 C 
ATOM      9  C   UNL     1       2.955   3.134  18.464  0.00  0.00    +0.000 C 
ATOM     10  C   UNL     1       4.491   3.440  18.176  0.00  0.00    +0.000 C 
ENDROOT
BRANCH   1  13
ATOM     11  C   UNL     1       5.647   4.272  14.282  0.00  0.00    +0.000 A 
ATOM     12  N   UNL     1       5.101   4.620  15.423  0.00  0.00    +0.000 NA
ATOM     13  C   UNL     1       6.044   5.178  16.282  0.00  0.00    +0.000 A 
ATOM     14  C   UNL     1       7.299   5.315  15.717  0.00  0.00    +0.000 A 
ATOM     15  S   UNL     1       7.313   4.642  14.134  0.00  0.00    +0.000 S 
BRANCH  11  16
ATOM     16  C   UNL     1       4.876   3.593  13.194  0.00  0.00    +0.000 C 
BRANCH  16  18
ATOM     17  C   UNL     1       5.678   1.892  11.503  0.00  0.00    +0.000 C 
ATOM     18  C   UNL     1       5.780   3.328  11.985  0.00  0.00    +0.000 C 
ENDBRANCH  16  18
ENDBRANCH  11  16
ENDBRANCH   1  13
BRANCH   9  19
ATOM     19  C   UNL     1       3.272   1.595  17.991  0.00  0.00    +0.000 C 
BRANCH  19  20
ATOM     20  O   UNL     1       4.378   0.963  18.626  0.00  0.00    +0.000 OA
ATOM     21  H   UNL     1       4.078   0.540  19.447  0.00  0.00    +0.000 HD
ENDBRANCH  19  20
ENDBRANCH   9  19
TORSDOF 5
ENDMDL
MODEL 7
REMARK VINA RESULT:      -6.4      2.554      3.949
REMARK  Name = 
REMARK  6 active torsions:
REMARK  status: ('A' for Active; 'I' for Inactive)
REMARK    1  A    between atoms: C_1  and  C_2
REMARK    2  A    between atoms: C_2  and  C_3
REMARK    3  A    between atoms: C_3  and  C_4
REMARK    4  A    between atoms: C_6  and  C_7
REMARK    5  A    between atoms: C_15  and  C_16
REMARK    6  A    between atoms: C_16  and  O_17
REMARK                            x       y       z     vdW  Elec       q    Type
REMARK                         _______ _______ _______ _____ _____    ______ ____
ROOT
ATOM      1  C   UNL     1       3.377   4.956  19.860  0.00  0.00    +0.000 C 
ATOM      2  O   UNL     1       3.178   4.011  20.619  0.00  0.00    +0.000 OA
ATOM      3  N   UNL     1       2.541   6.065  19.835  0.00  0.00    +0.000 N 
ATOM      4  C   UNL     1       1.545   6.281  20.814  0.00  0.00    +0.000 C 
ATOM      5  C   UNL     1       0.978   7.632  20.378  0.00  0.00    +0.000 C 
ATOM      6  C   UNL     1       0.888   8.513  21.626  0.00  0.00    +0.000 C 
ATOM      7  C   UNL     1       0.878   9.898  21.070  0.00  0.00    +0.000 C 
ATOM      8  C   UNL     1       0.978   9.657  19.579  0.00  0.00    +0.000 C 
ATOM      9  C   UNL     1       1.968   8.419  19.291  0.00  0.00    +0.000 C 
ATOM     10  C   UNL     1       2.289   6.962  18.737  0.00  0.00    +0.000 C 
ENDROOT
BRANCH   1  13
ATOM     11  C   UNL     1       6.555   5.704  18.308  0.00  0.00    +0.000 A 
ATOM     12  N   UNL     1       5.643   5.807  19.245  0.00  0.00    +0.000 NA
ATOM     13  C   UNL     1       4.546   4.994  18.969  0.00  0.00    +0.000 A 
ATOM     14  C   UNL     1       4.703   4.214  17.837  0.00  0.00    +0.000 A 
ATOM     15  S   UNL     1       6.194   4.584  17.063  0.00  0.00    +0.000 S 
BRANCH  11  16
ATOM     16  C   UNL     1       7.816   6.512  18.320  0.00  0.00    +0.000 C 
BRANCH  16  18
ATOM     17  C   UNL     1       8.322   8.981  18.113  0.00  0.00    +0.000 C 
ATOM     18  C   UNL     1       7.644   7.781  17.478  0.00  0.00    +0.000 C 
ENDBRANCH  16  18
ENDBRANCH  11  16
ENDBRANCH   1  13
BRANCH   9  19
ATOM     19  C   UNL     1       1.992   8.916  17.728  0.00  0.00    +0.000 C 
BRANCH  19  20
ATOM     20  O   UNL     1       2.047  10.324  17.522  0.00  0.00    +0.000 OA
ATOM     21  H   UNL     1       2.268  10.504  16.594  0.00  0.00    +0.000 HD
ENDBRANCH  19  20
ENDBRANCH   9  19
TORSDOF 5
ENDMDL
MODEL 8
REMARK VINA RESULT:      -6.3      4.346      6.487
REMARK  Name = 
REMARK  6 active torsions:
REMARK  status: ('A' for Active; 'I' for Inactive)
REMARK    1  A    between atoms: C_1  and  C_2
REMARK    2  A    between atoms: C_2  and  C_3
REMARK    3  A    between atoms: C_3  and  C_4
REMARK    4  A    between atoms: C_6  and  C_7
REMARK    5  A    between atoms: C_15  and  C_16
REMARK    6  A    between atoms: C_16  and  O_17
REMARK                            x       y       z     vdW  Elec       q    Type
REMARK                         _______ _______ _______ _____ _____    ______ ____
ROOT
ATOM      1  C   UNL     1       6.799   4.783  14.035  0.00  0.00    +0.000 C 
ATOM      2  O   UNL     1       7.821   5.422  13.797  0.00  0.00    +0.000 OA
ATOM      3  N   UNL     1       6.122   4.905  15.241  0.00  0.00    +0.000 N 
ATOM      4  C   UNL     1       6.429   5.915  16.180  0.00  0.00    +0.000 C 
ATOM      5  C   UNL     1       5.380   5.657  17.261  0.00  0.00    +0.000 C 
ATOM      6  C   UNL     1       4.749   7.005  17.615  0.00  0.00    +0.000 C 
ATOM      7  C   UNL     1       3.432   6.623  18.207  0.00  0.00    +0.000 C 
ATOM      8  C   UNL     1       3.451   5.113  18.110  0.00  0.00    +0.000 C 
ATOM      9  C   UNL     1       4.150   4.663  16.731  0.00  0.00    +0.000 C 
ATOM     10  C   UNL     1       5.289   3.929  15.894  0.00  0.00    +0.000 C 
ENDROOT
BRANCH   1  13
ATOM     11  C   UNL     1       4.566   3.161  11.700  0.00  0.00    +0.000 A 
ATOM     12  N   UNL     1       4.904   4.087  12.566  0.00  0.00    +0.000 NA
ATOM     13  C   UNL     1       6.201   3.889  13.033  0.00  0.00    +0.000 A 
ATOM     14  C   UNL     1       6.855   2.832  12.425  0.00  0.00    +0.000 A 
ATOM     15  S   UNL     1       5.795   2.024  11.338  0.00  0.00    +0.000 S 
BRANCH  11  16
ATOM     16  C   UNL     1       3.205   3.096  11.081  0.00  0.00    +0.000 C 
BRANCH  16  18
ATOM     17  C   UNL     1       2.462   4.743   9.311  0.00  0.00    +0.000 C 
ATOM     18  C   UNL     1       3.272   3.493   9.602  0.00  0.00    +0.000 C 
ENDBRANCH  16  18
ENDBRANCH  11  16
ENDBRANCH   1  13
BRANCH   9  19
ATOM     19  C   UNL     1       3.519   3.172  17.000  0.00  0.00    +0.000 C 
BRANCH  19  20
ATOM     20  O   UNL     1       2.099   3.081  16.966  0.00  0.00    +0.000 OA
ATOM     21  H   UNL     1       1.717   3.960  17.119  0.00  0.00    +0.000 HD
ENDBRANCH  19  20
ENDBRANCH   9  19
TORSDOF 5
ENDMDL
MODEL 9
REMARK VINA RESULT:      -6.3      3.566      5.469
REMARK  Name = 
REMARK  6 active torsions:
REMARK  status: ('A' for Active; 'I' for Inactive)
REMARK    1  A    between atoms: C_1  and  C_2
REMARK    2  A    between atoms: C_2  and  C_3
REMARK    3  A    between atoms: C_3  and  C_4
REMARK    4  A    between atoms: C_6  and  C_7
REMARK    5  A    between atoms: C_15  and  C_16
REMARK    6  A    between atoms: C_16  and  O_17
REMARK                            x       y       z     vdW  Elec       q    Type
REMARK                         _______ _______ _______ _____ _____    ______ ____
ROOT
ATOM      1  C   UNL     1       5.304   5.698  15.642  0.00  0.00    +0.000 C 
ATOM      2  O   UNL     1       5.448   6.914  15.744  0.00  0.00    +0.000 OA
ATOM      3  N   UNL     1       4.604   4.961  16.589  0.00  0.00    +0.000 N 
ATOM      4  C   UNL     1       3.836   5.573  17.605  0.00  0.00    +0.000 C 
ATOM      5  C   UNL     1       3.235   4.357  18.309  0.00  0.00    +0.000 C 
ATOM      6  C   UNL     1       1.741   4.628  18.492  0.00  0.00    +0.000 C 
ATOM      7  C   UNL     1       1.159   3.261  18.646  0.00  0.00    +0.000 C 
ATOM      8  C   UNL     1       2.375   2.368  18.518  0.00  0.00    +0.000 C 
ATOM      9  C   UNL     1       3.374   2.963  17.403  0.00  0.00    +0.000 C 
ATOM     10  C   UNL     1       4.768   3.572  16.931  0.00  0.00    +0.000 C 
ENDROOT
BRANCH   1  13
ATOM     11  C   UNL     1       5.635   3.666  12.670  0.00  0.00    +0.000 A 
ATOM     12  N   UNL     1       4.963   4.278  13.617  0.00  0.00    +0.000 NA
ATOM     13  C   UNL     1       5.819   4.956  14.482  0.00  0.00    +0.000 A 
ATOM     14  C   UNL     1       7.148   4.903  14.104  0.00  0.00    +0.000 A 
ATOM     15  S   UNL     1       7.330   3.909  12.713  0.00  0.00    +0.000 S 
BRANCH  11  16
ATOM     16  C   UNL     1       4.972   2.812  11.635  0.00  0.00    +0.000 C 
BRANCH  16  18
ATOM     17  C   UNL     1       3.391   3.845   9.952  0.00  0.00    +0.000 C 
ATOM     18  C   UNL     1       3.548   3.310  11.364  0.00  0.00    +0.000 C 
ENDBRANCH  16  18
ENDBRANCH  11  16
ENDBRANCH   1  13
BRANCH   9  19
ATOM     19  C   UNL     1       4.127   1.505  17.428  0.00  0.00    +0.000 C 
BRANCH  19  20
ATOM     20  O   UNL     1       4.119   0.821  18.676  0.00  0.00    +0.000 OA
ATOM     21  H   UNL     1       4.576  -0.030  18.578  0.00  0.00    +0.000 HD
ENDBRANCH  19  20
ENDBRANCH   9  19
TORSDOF 5
ENDMDL
