MODEL 1
REMARK VINA RESULT:      -7.3      0.000      0.000
REMARK  Name = 
REMARK  13 active torsions:
REMARK  status: ('A' for Active; 'I' for Inactive)
REMARK    1  A    between atoms: C_1  and  O_2
REMARK    2  A    between atoms: O_2  and  C_3
REMARK    3  A    between atoms: C_3  and  C_5
REMARK    4  A    between atoms: C_6  and  C_7
REMARK    5  A    between atoms: C_10  and  C_11
REMARK    6  A    between atoms: C_11  and  C_12
REMARK    7  A    between atoms: C_12  and  C_13
REMARK    8  A    between atoms: C_13  and  C_14
REMARK    9  A    between atoms: C_13  and  N_15
REMARK   10  A    between atoms: N_15  and  C_16
REMARK   11  A    between atoms: C_16  and  C_17
REMARK   12  A    between atoms: C_17  and  O_18
REMARK   13  A    between atoms: C_17  and  C_19
REMARK                            x       y       z     vdW  Elec       q    Type
REMARK                         _______ _______ _______ _____ _____    ______ ____
ROOT
ATOM      1  C   UNL     1       1.064   3.461  19.201  0.00  0.00    +0.000 C 
ATOM      2  C   UNL     1       1.428   4.065  17.842  0.00  0.00    +0.000 C 
ENDROOT
BRANCH   1   3
ATOM      3  N   UNL     1       1.969   2.321  19.447  0.00  0.00    +0.000 NA
ATOM      4  H   UNL     1       1.495   1.430  19.288  0.00  0.00    +0.000 HD
BRANCH   3   5
ATOM      5  C   UNL     1       3.187   2.383  18.626  0.00  0.00    +0.000 C 
BRANCH   5   6
ATOM      6  C   UNL     1       4.407   3.021  19.337  0.00  0.00    +0.000 C 
BRANCH   6   7
ATOM      7  C   UNL     1       5.138   3.942  18.372  0.00  0.00    +0.000 A 
ATOM      8  C   UNL     1       4.987   3.767  16.988  0.00  0.00    +0.000 A 
ATOM      9  C   UNL     1       5.730   4.534  16.086  0.00  0.00    +0.000 A 
ATOM     10  C   UNL     1       6.634   5.489  16.551  0.00  0.00    +0.000 A 
ATOM     11  C   UNL     1       6.779   5.685  17.920  0.00  0.00    +0.000 A 
ATOM     12 CL   UNL     1       7.905   6.847  18.507  0.00  0.00    +0.000 Cl
ATOM     13  C   UNL     1       6.035   4.928  18.826  0.00  0.00    +0.000 A 
ENDBRANCH   6   7
BRANCH   6  14
ATOM     14  O   UNL     1       5.293   2.003  19.811  0.00  0.00    +0.000 OA
ATOM     15  H   UNL     1       5.428   2.141  20.762  0.00  0.00    +0.000 HD
ENDBRANCH   6  14
ENDBRANCH   5   6
ENDBRANCH   3   5
ENDBRANCH   1   3
BRANCH   1  16
ATOM     16  C   UNL     1       1.141   4.527  20.321  0.00  0.00    +0.000 C 
BRANCH  16  17
ATOM     17  C   UNL     1       2.323   5.503  20.219  0.00  0.00    +0.000 C 
BRANCH  17  21
ATOM     18  C   UNL     1       1.071   9.616  19.684  0.00  0.00    +0.000 A 
ATOM     19  C   UNL     1       0.783   8.930  20.871  0.00  0.00    +0.000 A 
ATOM     20  C   UNL     1       1.206   7.613  21.053  0.00  0.00    +0.000 A 
ATOM     21  C   UNL     1       1.897   6.940  20.039  0.00  0.00    +0.000 A 
ATOM     22  C   UNL     1       2.178   7.617  18.847  0.00  0.00    +0.000 A 
ATOM     23  C   UNL     1       1.759   8.942  18.670  0.00  0.00    +0.000 A 
BRANCH  18  25
ATOM     24  C   UNL     1       1.303  11.875  18.713  0.00  0.00    +0.000 C 
ATOM     25  C   UNL     1       0.619  10.994  19.458  0.00  0.00    +0.000 C 
BRANCH  24  26
ATOM     26  C   UNL     1       0.806  13.253  18.543  0.00  0.00    +0.000 C 
ATOM     27  O   UNL     1      -0.329  13.563  18.229  0.00  0.00    +0.000 OA
BRANCH  26  29
ATOM     28  C   UNL     1       1.452  15.472  18.833  0.00  0.00    +0.000 C 
ATOM     29  O   UNL     1       1.831  14.097  18.819  0.00  0.00    +0.000 OA
ENDBRANCH  26  29
ENDBRANCH  24  26
ENDBRANCH  18  25
ENDBRANCH  17  21
ENDBRANCH  16  17
ENDBRANCH   1  16
TORSDOF 11
ENDMDL
MODEL 2
REMARK VINA RESULT:      -7.1      1.477      1.714
REMARK  Name = 
REMARK  13 active torsions:
REMARK  status: ('A' for Active; 'I' for Inactive)
REMARK    1  A    between atoms: C_1  and  O_2
REMARK    2  A    between atoms: O_2  and  C_3
REMARK    3  A    between atoms: C_3  and  C_5
REMARK    4  A    between atoms: C_6  and  C_7
REMARK    5  A    between atoms: C_10  and  C_11
REMARK    6  A    between atoms: C_11  and  C_12
REMARK    7  A    between atoms: C_12  and  C_13
REMARK    8  A    between atoms: C_13  and  C_14
REMARK    9  A    between atoms: C_13  and  N_15
REMARK   10  A    between atoms: N_15  and  C_16
REMARK   11  A    between atoms: C_16  and  C_17
REMARK   12  A    between atoms: C_17  and  O_18
REMARK   13  A    between atoms: C_17  and  C_19
REMARK                            x       y       z     vdW  Elec       q    Type
REMARK                         _______ _______ _______ _____ _____    ______ ____
ROOT
ATOM      1  C   UNL     1       2.104   3.886  20.038  0.00  0.00    +0.000 C 
ATOM      2  C   UNL     1       1.261   3.038  20.994  0.00  0.00    +0.000 C 
ENDROOT
BRANCH   1   3
ATOM      3  N   UNL     1       1.502   3.786  18.694  0.00  0.00    +0.000 NA
ATOM      4  H   UNL     1       1.278   4.709  18.318  0.00  0.00    +0.000 HD
BRANCH   3   5
ATOM      5  C   UNL     1       2.361   3.063  17.746  0.00  0.00    +0.000 C 
BRANCH   5   6
ATOM      6  C   UNL     1       3.800   2.799  18.257  0.00  0.00    +0.000 C 
BRANCH   6   7
ATOM      7  C   UNL     1       4.749   3.835  17.675  0.00  0.00    +0.000 A 
ATOM      8  C   UNL     1       4.722   4.114  16.300  0.00  0.00    +0.000 A 
ATOM      9  C   UNL     1       5.654   4.985  15.729  0.00  0.00    +0.000 A 
ATOM     10  C   UNL     1       6.628   5.592  16.522  0.00  0.00    +0.000 A 
ATOM     11  C   UNL     1       6.654   5.339  17.889  0.00  0.00    +0.000 A 
ATOM     12 CL   UNL     1       7.862   6.068  18.875  0.00  0.00    +0.000 Cl
ATOM     13  C   UNL     1       5.721   4.477  18.466  0.00  0.00    +0.000 A 
ENDBRANCH   6   7
BRANCH   6  14
ATOM     14  O   UNL     1       4.224   1.483  17.889  0.00  0.00    +0.000 OA
ATOM     15  H   UNL     1       4.047   0.890  18.636  0.00  0.00    +0.000 HD
ENDBRANCH   6  14
ENDBRANCH   5   6
ENDBRANCH   3   5
ENDBRANCH   1   3
BRANCH   1  16
ATOM     16  C   UNL     1       2.201   5.350  20.533  0.00  0.00    +0.000 C 
BRANCH  16  17
ATOM     17  C   UNL     1       2.749   6.355  19.508  0.00  0.00    +0.000 C 
BRANCH  17  21
ATOM     18  C   UNL     1       0.689  10.165  19.592  0.00  0.00    +0.000 A 
ATOM     19  C   UNL     1       0.729   9.350  20.730  0.00  0.00    +0.000 A 
ATOM     20  C   UNL     1       1.411   8.133  20.710  0.00  0.00    +0.000 A 
ATOM     21  C   UNL     1       2.041   7.689  19.542  0.00  0.00    +0.000 A 
ATOM     22  C   UNL     1       1.996   8.494  18.400  0.00  0.00    +0.000 A 
ATOM     23  C   UNL     1       1.316   9.719  18.425  0.00  0.00    +0.000 A 
BRANCH  18  25
ATOM     24  C   UNL     1      -0.921  11.788  20.527  0.00  0.00    +0.000 C 
ATOM     25  C   UNL     1      -0.040  11.439  19.578  0.00  0.00    +0.000 C 
BRANCH  24  26
ATOM     26  C   UNL     1      -1.638  13.074  20.443  0.00  0.00    +0.000 C 
ATOM     27  O   UNL     1      -2.821  13.211  20.188  0.00  0.00    +0.000 OA
BRANCH  26  29
ATOM     28  C   UNL     1      -0.752  15.119  19.764  0.00  0.00    +0.000 C 
ATOM     29  O   UNL     1      -0.748  14.060  20.720  0.00  0.00    +0.000 OA
ENDBRANCH  26  29
ENDBRANCH  24  26
ENDBRANCH  18  25
ENDBRANCH  17  21
ENDBRANCH  16  17
ENDBRANCH   1  16
TORSDOF 11
ENDMDL
MODEL 3
REMARK VINA RESULT:      -7.1      1.810      2.274
REMARK  Name = 
REMARK  13 active torsions:
REMARK  status: ('A' for Active; 'I' for Inactive)
REMARK    1  A    between atoms: C_1  and  O_2
REMARK    2  A    between atoms: O_2  and  C_3
REMARK    3  A    between atoms: C_3  and  C_5
REMARK    4  A    between atoms: C_6  and  C_7
REMARK    5  A    between atoms: C_10  and  C_11
REMARK    6  A    between atoms: C_11  and  C_12
REMARK    7  A    between atoms: C_12  and  C_13
REMARK    8  A    between atoms: C_13  and  C_14
REMARK    9  A    between atoms: C_13  and  N_15
REMARK   10  A    between atoms: N_15  and  C_16
REMARK   11  A    between atoms: C_16  and  C_17
REMARK   12  A    between atoms: C_17  and  O_18
REMARK   13  A    between atoms: C_17  and  C_19
REMARK                            x       y       z     vdW  Elec       q    Type
REMARK                         _______ _______ _______ _____ _____    ______ ____
ROOT
ATOM      1  C   UNL     1       2.231   3.720  20.274  0.00  0.00    +0.000 C 
ATOM      2  C   UNL     1       1.537   2.849  21.326  0.00  0.00    +0.000 C 
ENDROOT
BRANCH   1   3
ATOM      3  N   UNL     1       1.504   3.555  19.000  0.00  0.00    +0.000 NA
ATOM      4  H   UNL     1       0.999   4.406  18.747  0.00  0.00    +0.000 HD
BRANCH   3   5
ATOM      5  C   UNL     1       2.390   3.162  17.894  0.00  0.00    +0.000 C 
BRANCH   5   6
ATOM      6  C   UNL     1       3.843   2.837  18.322  0.00  0.00    +0.000 C 
BRANCH   6   7
ATOM      7  C   UNL     1       4.795   3.862  17.725  0.00  0.00    +0.000 A 
ATOM      8  C   UNL     1       4.760   4.131  16.349  0.00  0.00    +0.000 A 
ATOM      9  C   UNL     1       5.694   4.991  15.765  0.00  0.00    +0.000 A 
ATOM     10  C   UNL     1       6.677   5.598  16.546  0.00  0.00    +0.000 A 
ATOM     11  C   UNL     1       6.711   5.355  17.915  0.00  0.00    +0.000 A 
ATOM     12 CL   UNL     1       7.930   6.084  18.887  0.00  0.00    +0.000 Cl
ATOM     13  C   UNL     1       5.777   4.503  18.505  0.00  0.00    +0.000 A 
ENDBRANCH   6   7
BRANCH   6  14
ATOM     14  O   UNL     1       4.205   1.521  17.890  0.00  0.00    +0.000 OA
ATOM     15  H   UNL     1       3.422   1.111  17.489  0.00  0.00    +0.000 HD
ENDBRANCH   6  14
ENDBRANCH   5   6
ENDBRANCH   3   5
ENDBRANCH   1   3
BRANCH   1  16
ATOM     16  C   UNL     1       2.294   5.198  20.730  0.00  0.00    +0.000 C 
BRANCH  16  17
ATOM     17  C   UNL     1       2.679   6.207  19.637  0.00  0.00    +0.000 C 
BRANCH  17  21
ATOM     18  C   UNL     1       0.655  10.015  20.039  0.00  0.00    +0.000 A 
ATOM     19  C   UNL     1       0.729   9.128  21.120  0.00  0.00    +0.000 A 
ATOM     20  C   UNL     1       1.400   7.912  20.998  0.00  0.00    +0.000 A 
ATOM     21  C   UNL     1       1.984   7.539  19.782  0.00  0.00    +0.000 A 
ATOM     22  C   UNL     1       1.904   8.417  18.696  0.00  0.00    +0.000 A 
ATOM     23  C   UNL     1       1.236   9.641  18.823  0.00  0.00    +0.000 A 
BRANCH  18  25
ATOM     24  C   UNL     1      -1.030  11.523  21.034  0.00  0.00    +0.000 C 
ATOM     25  C   UNL     1      -0.064  11.292  20.133  0.00  0.00    +0.000 C 
BRANCH  24  26
ATOM     26  C   UNL     1      -1.729  12.821  21.062  0.00  0.00    +0.000 C 
ATOM     27  O   UNL     1      -1.961  13.522  20.094  0.00  0.00    +0.000 OA
BRANCH  26  29
ATOM     28  C   UNL     1      -2.263  11.895  23.132  0.00  0.00    +0.000 C 
ATOM     29  O   UNL     1      -2.078  13.072  22.349  0.00  0.00    +0.000 OA
ENDBRANCH  26  29
ENDBRANCH  24  26
ENDBRANCH  18  25
ENDBRANCH  17  21
ENDBRANCH  16  17
ENDBRANCH   1  16
TORSDOF 11
ENDMDL
MODEL 4
REMARK VINA RESULT:      -7.1      2.577      4.055
REMARK  Name = 
REMARK  13 active torsions:
REMARK  status: ('A' for Active; 'I' for Inactive)
REMARK    1  A    between atoms: C_1  and  O_2
REMARK    2  A    between atoms: O_2  and  C_3
REMARK    3  A    between atoms: C_3  and  C_5
REMARK    4  A    between atoms: C_6  and  C_7
REMARK    5  A    between atoms: C_10  and  C_11
REMARK    6  A    between atoms: C_11  and  C_12
REMARK    7  A    between atoms: C_12  and  C_13
REMARK    8  A    between atoms: C_13  and  C_14
REMARK    9  A    between atoms: C_13  and  N_15
REMARK   10  A    between atoms: N_15  and  C_16
REMARK   11  A    between atoms: C_16  and  C_17
REMARK   12  A    between atoms: C_17  and  O_18
REMARK   13  A    between atoms: C_17  and  C_19
REMARK                            x       y       z     vdW  Elec       q    Type
REMARK                         _______ _______ _______ _____ _____    ______ ____
ROOT
ATOM      1  C   UNL     1       5.628   5.022  18.399  0.00  0.00    +0.000 C 
ATOM      2  C   UNL     1       6.893   5.387  19.182  0.00  0.00    +0.000 C 
ENDROOT
BRANCH   1   3
ATOM      3  N   UNL     1       5.488   3.553  18.427  0.00  0.00    +0.000 NA
ATOM      4  H   UNL     1       5.017   3.241  19.278  0.00  0.00    +0.000 HD
BRANCH   3   5
ATOM      5  C   UNL     1       4.773   3.035  17.251  0.00  0.00    +0.000 C 
BRANCH   5   6
ATOM      6  C   UNL     1       3.698   1.967  17.574  0.00  0.00    +0.000 C 
BRANCH   6   7
ATOM      7  C   UNL     1       2.625   2.574  18.465  0.00  0.00    +0.000 A 
ATOM      8  C   UNL     1       1.769   3.562  17.955  0.00  0.00    +0.000 A 
ATOM      9  C   UNL     1       0.847   4.206  18.785  0.00  0.00    +0.000 A 
ATOM     10  C   UNL     1       0.764   3.873  20.137  0.00  0.00    +0.000 A 
ATOM     11  C   UNL     1       1.594   2.882  20.650  0.00  0.00    +0.000 A 
ATOM     12 CL   UNL     1       1.514   2.476  22.321  0.00  0.00    +0.000 Cl
ATOM     13  C   UNL     1       2.511   2.231  19.826  0.00  0.00    +0.000 A 
ENDBRANCH   6   7
BRANCH   6  14
ATOM     14  O   UNL     1       4.297   0.841  18.224  0.00  0.00    +0.000 OA
ATOM     15  H   UNL     1       4.292   0.097  17.601  0.00  0.00    +0.000 HD
ENDBRANCH   6  14
ENDBRANCH   5   6
ENDBRANCH   3   5
ENDBRANCH   1   3
BRANCH   1  16
ATOM     16  C   UNL     1       4.388   5.744  18.980  0.00  0.00    +0.000 C 
BRANCH  16  17
ATOM     17  C   UNL     1       3.562   6.550  17.967  0.00  0.00    +0.000 C 
BRANCH  17  21
ATOM     18  C   UNL     1       0.803   9.335  19.809  0.00  0.00    +0.000 A 
ATOM     19  C   UNL     1       1.337   8.267  20.543  0.00  0.00    +0.000 A 
ATOM     20  C   UNL     1       2.243   7.384  19.956  0.00  0.00    +0.000 A 
ATOM     21  C   UNL     1       2.610   7.527  18.613  0.00  0.00    +0.000 A 
ATOM     22  C   UNL     1       2.072   8.585  17.873  0.00  0.00    +0.000 A 
ATOM     23  C   UNL     1       1.167   9.475  18.467  0.00  0.00    +0.000 A 
BRANCH  18  25
ATOM     24  C   UNL     1      -0.588  11.375  19.770  0.00  0.00    +0.000 C 
ATOM     25  C   UNL     1      -0.169  10.266  20.395  0.00  0.00    +0.000 C 
BRANCH  24  26
ATOM     26  C   UNL     1      -1.550  12.282  20.423  0.00  0.00    +0.000 C 
ATOM     27  O   UNL     1      -2.108  13.226  19.892  0.00  0.00    +0.000 OA
BRANCH  26  29
ATOM     28  C   UNL     1      -2.828  12.450  22.364  0.00  0.00    +0.000 C 
ATOM     29  O   UNL     1      -1.709  11.861  21.703  0.00  0.00    +0.000 OA
ENDBRANCH  26  29
ENDBRANCH  24  26
ENDBRANCH  18  25
ENDBRANCH  17  21
ENDBRANCH  16  17
ENDBRANCH   1  16
TORSDOF 11
ENDMDL
MODEL 5
REMARK VINA RESULT:      -7.1      1.165      1.631
REMARK  Name = 
REMARK  13 active torsions:
REMARK  status: ('A' for Active; 'I' for Inactive)
REMARK    1  A    between atoms: C_1  and  O_2
REMARK    2  A    between atoms: O_2  and  C_3
REMARK    3  A    between atoms: C_3  and  C_5
REMARK    4  A    between atoms: C_6  and  C_7
REMARK    5  A    between atoms: C_10  and  C_11
REMARK    6  A    between atoms: C_11  and  C_12
REMARK    7  A    between atoms: C_12  and  C_13
REMARK    8  A    between atoms: C_13  and  C_14
REMARK    9  A    between atoms: C_13  and  N_15
REMARK   10  A    between atoms: N_15  and  C_16
REMARK   11  A    between atoms: C_16  and  C_17
REMARK   12  A    between atoms: C_17  and  O_18
REMARK   13  A    between atoms: C_17  and  C_19
REMARK                            x       y       z     vdW  Elec       q    Type
REMARK                         _______ _______ _______ _____ _____    ______ ____
ROOT
ATOM      1  C   UNL     1       2.152   3.758  20.169  0.00  0.00    +0.000 C 
ATOM      2  C   UNL     1       1.611   2.806  21.239  0.00  0.00    +0.000 C 
ENDROOT
BRANCH   1   3
ATOM      3  N   UNL     1       1.438   3.476  18.909  0.00  0.00    +0.000 NA
ATOM      4  H   UNL     1       0.867   4.271  18.620  0.00  0.00    +0.000 HD
BRANCH   3   5
ATOM      5  C   UNL     1       2.349   3.102  17.818  0.00  0.00    +0.000 C 
BRANCH   5   6
ATOM      6  C   UNL     1       3.804   2.813  18.268  0.00  0.00    +0.000 C 
BRANCH   6   7
ATOM      7  C   UNL     1       4.724   3.913  17.760  0.00  0.00    +0.000 A 
ATOM      8  C   UNL     1       4.650   4.324  16.420  0.00  0.00    +0.000 A 
ATOM      9  C   UNL     1       5.556   5.256  15.908  0.00  0.00    +0.000 A 
ATOM     10  C   UNL     1       6.550   5.794  16.725  0.00  0.00    +0.000 A 
ATOM     11  C   UNL     1       6.623   5.409  18.060  0.00  0.00    +0.000 A 
ATOM     12 CL   UNL     1       7.856   6.052  19.073  0.00  0.00    +0.000 Cl
ATOM     13  C   UNL     1       5.717   4.485  18.579  0.00  0.00    +0.000 A 
ENDBRANCH   6   7
BRANCH   6  14
ATOM     14  O   UNL     1       4.234   1.543  17.770  0.00  0.00    +0.000 OA
ATOM     15  H   UNL     1       5.194   1.581  17.639  0.00  0.00    +0.000 HD
ENDBRANCH   6  14
ENDBRANCH   5   6
ENDBRANCH   3   5
ENDBRANCH   1   3
BRANCH   1  16
ATOM     16  C   UNL     1       2.005   5.234  20.613  0.00  0.00    +0.000 C 
BRANCH  16  17
ATOM     17  C   UNL     1       2.590   6.273  19.645  0.00  0.00    +0.000 C 
BRANCH  17  21
ATOM     18  C   UNL     1       0.663  10.144  19.896  0.00  0.00    +0.000 A 
ATOM     19  C   UNL     1       1.314   9.745  18.722  0.00  0.00    +0.000 A 
ATOM     20  C   UNL     1       1.915   8.490  18.633  0.00  0.00    +0.000 A 
ATOM     21  C   UNL     1       1.908   7.617  19.727  0.00  0.00    +0.000 A 
ATOM     22  C   UNL     1       1.268   8.015  20.906  0.00  0.00    +0.000 A 
ATOM     23  C   UNL     1       0.659   9.273  20.990  0.00  0.00    +0.000 A 
BRANCH  18  25
ATOM     24  C   UNL     1       0.439  12.535  19.316  0.00  0.00    +0.000 C 
ATOM     25  C   UNL     1       0.041  11.468  20.024  0.00  0.00    +0.000 C 
BRANCH  24  26
ATOM     26  C   UNL     1      -0.213  13.843  19.508  0.00  0.00    +0.000 C 
ATOM     27  O   UNL     1      -1.265  14.032  20.093  0.00  0.00    +0.000 OA
BRANCH  26  29
ATOM     28  C   UNL     1      -0.125  15.961  18.543  0.00  0.00    +0.000 C 
ATOM     29  O   UNL     1       0.579  14.785  18.937  0.00  0.00    +0.000 OA
ENDBRANCH  26  29
ENDBRANCH  24  26
ENDBRANCH  18  25
ENDBRANCH  17  21
ENDBRANCH  16  17
ENDBRANCH   1  16
TORSDOF 11
ENDMDL
MODEL 6
REMARK VINA RESULT:      -7.0      3.595      6.440
REMARK  Name = 
REMARK  13 active torsions:
REMARK  status: ('A' for Active; 'I' for Inactive)
REMARK    1  A    between atoms: C_1  and  O_2
REMARK    2  A    between atoms: O_2  and  C_3
REMARK    3  A    between atoms: C_3  and  C_5
REMARK    4  A    between atoms: C_6  and  C_7
REMARK    5  A    between atoms: C_10  and  C_11
REMARK    6  A    between atoms: C_11  and  C_12
REMARK    7  A    between atoms: C_12  and  C_13
REMARK    8  A    between atoms: C_13  and  C_14
REMARK    9  A    between atoms: C_13  and  N_15
REMARK   10  A    between atoms: N_15  and  C_16
REMARK   11  A    between atoms: C_16  and  C_17
REMARK   12  A    between atoms: C_17  and  O_18
REMARK   13  A    between atoms: C_17  and  C_19
REMARK                            x       y       z     vdW  Elec       q    Type
REMARK                         _______ _______ _______ _____ _____    ______ ____
ROOT
ATOM      1  C   UNL     1       2.507   2.991  18.102  0.00  0.00    +0.000 C 
ATOM      2  C   UNL     1       3.463   2.295  19.075  0.00  0.00    +0.000 C 
ENDROOT
BRANCH   1   3
ATOM      3  N   UNL     1       1.738   3.995  18.863  0.00  0.00    +0.000 NA
ATOM      4  H   UNL     1       1.865   3.876  19.869  0.00  0.00    +0.000 HD
BRANCH   3   5
ATOM      5  C   UNL     1       2.084   5.373  18.484  0.00  0.00    +0.000 C 
BRANCH   5   6
ATOM      6  C   UNL     1       2.462   6.289  19.675  0.00  0.00    +0.000 C 
BRANCH   6   7
ATOM      7  C   UNL     1       1.948   7.698  19.420  0.00  0.00    +0.000 A 
ATOM      8  C   UNL     1       2.203   8.325  18.191  0.00  0.00    +0.000 A 
ATOM      9  C   UNL     1       1.830   9.654  17.976  0.00  0.00    +0.000 A 
ATOM     10  C   UNL     1       1.197  10.380  18.985  0.00  0.00    +0.000 A 
ATOM     11  C   UNL     1       0.922   9.765  20.201  0.00  0.00    +0.000 A 
ATOM     12 CL   UNL     1       0.157  10.656  21.460  0.00  0.00    +0.000 Cl
ATOM     13  C   UNL     1       1.284   8.436  20.420  0.00  0.00    +0.000 A 
ENDBRANCH   6   7
BRANCH   6  14
ATOM     14  O   UNL     1       3.882   6.309  19.854  0.00  0.00    +0.000 OA
ATOM     15  H   UNL     1       4.293   6.002  19.031  0.00  0.00    +0.000 HD
ENDBRANCH   6  14
ENDBRANCH   5   6
ENDBRANCH   3   5
ENDBRANCH   1   3
BRANCH   1  16
ATOM     16  C   UNL     1       3.279   3.615  16.914  0.00  0.00    +0.000 C 
BRANCH  16  17
ATOM     17  C   UNL     1       4.792   3.348  16.901  0.00  0.00    +0.000 C 
BRANCH  17  21
ATOM     18  C   UNL     1       7.179   6.788  18.011  0.00  0.00    +0.000 A 
ATOM     19  C   UNL     1       6.156   6.905  17.062  0.00  0.00    +0.000 A 
ATOM     20  C   UNL     1       5.372   5.802  16.720  0.00  0.00    +0.000 A 
ATOM     21  C   UNL     1       5.615   4.550  17.296  0.00  0.00    +0.000 A 
ATOM     22  C   UNL     1       6.642   4.425  18.237  0.00  0.00    +0.000 A 
ATOM     23  C   UNL     1       7.423   5.536  18.583  0.00  0.00    +0.000 A 
BRANCH  18  25
ATOM     24  C   UNL     1       7.907   9.140  17.817  0.00  0.00    +0.000 C 
ATOM     25  C   UNL     1       8.033   7.926  18.372  0.00  0.00    +0.000 C 
BRANCH  24  26
ATOM     26  C   UNL     1       8.812  10.236  18.208  0.00  0.00    +0.000 C 
ATOM     27  O   UNL     1       8.921  11.305  17.633  0.00  0.00    +0.000 OA
BRANCH  26  29
ATOM     28  C   UNL     1       9.532  10.847  20.338  0.00  0.00    +0.000 C 
ATOM     29  O   UNL     1       9.476   9.844  19.325  0.00  0.00    +0.000 OA
ENDBRANCH  26  29
ENDBRANCH  24  26
ENDBRANCH  18  25
ENDBRANCH  17  21
ENDBRANCH  16  17
ENDBRANCH   1  16
TORSDOF 11
ENDMDL
MODEL 7
REMARK VINA RESULT:      -7.0      3.615      6.170
REMARK  Name = 
REMARK  13 active torsions:
REMARK  status: ('A' for Active; 'I' for Inactive)
REMARK    1  A    between atoms: C_1  and  O_2
REMARK    2  A    between atoms: O_2  and  C_3
REMARK    3  A    between atoms: C_3  and  C_5
REMARK    4  A    between atoms: C_6  and  C_7
REMARK    5  A    between atoms: C_10  and  C_11
REMARK    6  A    between atoms: C_11  and  C_12
REMARK    7  A    between atoms: C_12  and  C_13
REMARK    8  A    between atoms: C_13  and  C_14
REMARK    9  A    between atoms: C_13  and  N_15
REMARK   10  A    between atoms: N_15  and  C_16
REMARK   11  A    between atoms: C_16  and  C_17
REMARK   12  A    between atoms: C_17  and  O_18
REMARK   13  A    between atoms: C_17  and  C_19
REMARK                            x       y       z     vdW  Elec       q    Type
REMARK                         _______ _______ _______ _____ _____    ______ ____
ROOT
ATOM      1  C   UNL     1       2.095   3.243  18.230  0.00  0.00    +0.000 C 
ATOM      2  C   UNL     1       2.458   1.763  18.080  0.00  0.00    +0.000 C 
ENDROOT
BRANCH   1   3
ATOM      3  N   UNL     1       2.405   3.648  19.615  0.00  0.00    +0.000 NA
ATOM      4  H   UNL     1       3.407   3.793  19.744  0.00  0.00    +0.000 HD
BRANCH   3   5
ATOM      5  C   UNL     1       1.676   4.858  20.023  0.00  0.00    +0.000 C 
BRANCH   5   6
ATOM      6  C   UNL     1       2.583   6.056  20.401  0.00  0.00    +0.000 C 
BRANCH   6   7
ATOM      7  C   UNL     1       2.083   7.315  19.709  0.00  0.00    +0.000 A 
ATOM      8  C   UNL     1       2.490   7.602  18.398  0.00  0.00    +0.000 A 
ATOM      9  C   UNL     1       2.126   8.803  17.783  0.00  0.00    +0.000 A 
ATOM     10  C   UNL     1       1.349   9.737  18.469  0.00  0.00    +0.000 A 
ATOM     11  C   UNL     1       0.922   9.456  19.762  0.00  0.00    +0.000 A 
ATOM     12 CL   UNL     1      -0.022  10.609  20.624  0.00  0.00    +0.000 Cl
ATOM     13  C   UNL     1       1.276   8.256  20.378  0.00  0.00    +0.000 A 
ENDBRANCH   6   7
BRANCH   6  14
ATOM     14  O   UNL     1       3.937   5.791  20.021  0.00  0.00    +0.000 OA
ATOM     15  H   UNL     1       4.439   5.579  20.823  0.00  0.00    +0.000 HD
ENDBRANCH   6  14
ENDBRANCH   5   6
ENDBRANCH   3   5
ENDBRANCH   1   3
BRANCH   1  16
ATOM     16  C   UNL     1       2.840   4.106  17.182  0.00  0.00    +0.000 C 
BRANCH  16  17
ATOM     17  C   UNL     1       4.313   3.737  16.954  0.00  0.00    +0.000 C 
BRANCH  17  21
ATOM     18  C   UNL     1       7.074   6.957  17.832  0.00  0.00    +0.000 A 
ATOM     19  C   UNL     1       6.010   7.152  16.942  0.00  0.00    +0.000 A 
ATOM     20  C   UNL     1       5.108   6.122  16.677  0.00  0.00    +0.000 A 
ATOM     21  C   UNL     1       5.268   4.864  17.269  0.00  0.00    +0.000 A 
ATOM     22  C   UNL     1       6.335   4.661  18.151  0.00  0.00    +0.000 A 
ATOM     23  C   UNL     1       7.235   5.700  18.421  0.00  0.00    +0.000 A 
BRANCH  18  25
ATOM     24  C   UNL     1       7.816   9.313  17.863  0.00  0.00    +0.000 C 
ATOM     25  C   UNL     1       8.051   8.017  18.113  0.00  0.00    +0.000 C 
BRANCH  24  26
ATOM     26  C   UNL     1       8.849  10.326  18.148  0.00  0.00    +0.000 C 
ATOM     27  O   UNL     1       9.949  10.104  18.620  0.00  0.00    +0.000 OA
BRANCH  26  29
ATOM     28  C   UNL     1       9.317  12.586  17.828  0.00  0.00    +0.000 C 
ATOM     29  O   UNL     1       8.356  11.533  17.771  0.00  0.00    +0.000 OA
ENDBRANCH  26  29
ENDBRANCH  24  26
ENDBRANCH  18  25
ENDBRANCH  17  21
ENDBRANCH  16  17
ENDBRANCH   1  16
TORSDOF 11
ENDMDL
MODEL 8
REMARK VINA RESULT:      -6.9      4.439      9.147
REMARK  Name = 
REMARK  13 active torsions:
REMARK  status: ('A' for Active; 'I' for Inactive)
REMARK    1  A    between atoms: C_1  and  O_2
REMARK    2  A    between atoms: O_2  and  C_3
REMARK    3  A    between atoms: C_3  and  C_5
REMARK    4  A    between atoms: C_6  and  C_7
REMARK    5  A    between atoms: C_10  and  C_11
REMARK    6  A    between atoms: C_11  and  C_12
REMARK    7  A    between atoms: C_12  and  C_13
REMARK    8  A    between atoms: C_13  and  C_14
REMARK    9  A    between atoms: C_13  and  N_15
REMARK   10  A    between atoms: N_15  and  C_16
REMARK   11  A    between atoms: C_16  and  C_17
REMARK   12  A    between atoms: C_17  and  O_18
REMARK   13  A    between atoms: C_17  and  C_19
REMARK                            x       y       z     vdW  Elec       q    Type
REMARK                         _______ _______ _______ _____ _____    ______ ____
ROOT
ATOM      1  C   UNL     1       0.483   8.586  21.545  0.00  0.00    +0.000 C 
ATOM      2  C   UNL     1       1.429   9.222  22.568  0.00  0.00    +0.000 C 
ENDROOT
BRANCH   1   3
ATOM      3  N   UNL     1      -0.476   9.621  21.111  0.00  0.00    +0.000 NA
ATOM      4  H   UNL     1      -0.459  10.428  21.736  0.00  0.00    +0.000 HD
BRANCH   3   5
ATOM      5  C   UNL     1      -0.240  10.063  19.729  0.00  0.00    +0.000 C 
BRANCH   5   6
ATOM      6  C   UNL     1      -1.009  11.347  19.327  0.00  0.00    +0.000 C 
BRANCH   6   7
ATOM      7  C   UNL     1      -2.033  11.014  18.253  0.00  0.00    +0.000 A 
ATOM      8  C   UNL     1      -1.716  10.091  17.245  0.00  0.00    +0.000 A 
ATOM      9  C   UNL     1      -2.602   9.851  16.192  0.00  0.00    +0.000 A 
ATOM     10  C   UNL     1      -3.820  10.528  16.128  0.00  0.00    +0.000 A 
ATOM     11  C   UNL     1      -4.155  11.431  17.130  0.00  0.00    +0.000 A 
ATOM     12 CL   UNL     1      -5.647  12.286  17.053  0.00  0.00    +0.000 Cl
ATOM     13  C   UNL     1      -3.278  11.670  18.188  0.00  0.00    +0.000 A 
ENDBRANCH   6   7
BRANCH   6  14
ATOM     14  O   UNL     1      -0.098  12.341  18.847  0.00  0.00    +0.000 OA
ATOM     15  H   UNL     1       0.744  12.228  19.316  0.00  0.00    +0.000 HD
ENDBRANCH   6  14
ENDBRANCH   5   6
ENDBRANCH   3   5
ENDBRANCH   1   3
BRANCH   1  16
ATOM     16  C   UNL     1       1.273   7.981  20.359  0.00  0.00    +0.000 C 
BRANCH  16  17
ATOM     17  C   UNL     1       1.591   6.483  20.476  0.00  0.00    +0.000 C 
BRANCH  17  21
ATOM     18  C   UNL     1       4.194   5.031  17.334  0.00  0.00    +0.000 A 
ATOM     19  C   UNL     1       3.666   4.151  18.287  0.00  0.00    +0.000 A 
ATOM     20  C   UNL     1       2.810   4.614  19.286  0.00  0.00    +0.000 A 
ATOM     21  C   UNL     1       2.488   5.974  19.374  0.00  0.00    +0.000 A 
ATOM     22  C   UNL     1       3.021   6.859  18.431  0.00  0.00    +0.000 A 
ATOM     23  C   UNL     1       3.875   6.389  17.425  0.00  0.00    +0.000 A 
BRANCH  18  25
ATOM     24  C   UNL     1       5.713   5.408  15.423  0.00  0.00    +0.000 C 
ATOM     25  C   UNL     1       5.115   4.574  16.286  0.00  0.00    +0.000 C 
BRANCH  24  26
ATOM     26  C   UNL     1       6.611   4.882  14.378  0.00  0.00    +0.000 C 
ATOM     27  O   UNL     1       7.704   5.336  14.088  0.00  0.00    +0.000 OA
BRANCH  26  29
ATOM     28  C   UNL     1       6.452   3.517  12.496  0.00  0.00    +0.000 C 
ATOM     29  O   UNL     1       6.008   3.802  13.822  0.00  0.00    +0.000 OA
ENDBRANCH  26  29
ENDBRANCH  24  26
ENDBRANCH  18  25
ENDBRANCH  17  21
ENDBRANCH  16  17
ENDBRANCH   1  16
TORSDOF 11
ENDMDL
MODEL 9
REMARK VINA RESULT:      -6.9      2.050      2.763
REMARK  Name = 
REMARK  13 active torsions:
REMARK  status: ('A' for Active; 'I' for Inactive)
REMARK    1  A    between atoms: C_1  and  O_2
REMARK    2  A    between atoms: O_2  and  C_3
REMARK    3  A    between atoms: C_3  and  C_5
REMARK    4  A    between atoms: C_6  and  C_7
REMARK    5  A    between atoms: C_10  and  C_11
REMARK    6  A    between atoms: C_11  and  C_12
REMARK    7  A    between atoms: C_12  and  C_13
REMARK    8  A    between atoms: C_13  and  C_14
REMARK    9  A    between atoms: C_13  and  N_15
REMARK   10  A    between atoms: N_15  and  C_16
REMARK   11  A    between atoms: C_16  and  C_17
REMARK   12  A    between atoms: C_17  and  O_18
REMARK   13  A    between atoms: C_17  and  C_19
REMARK                            x       y       z     vdW  Elec       q    Type
REMARK                         _______ _______ _______ _____ _____    ______ ____
ROOT
ATOM      1  C   UNL     1       2.929   3.774  17.837  0.00  0.00    +0.000 C 
ATOM      2  C   UNL     1       1.445   4.028  17.555  0.00  0.00    +0.000 C 
ENDROOT
BRANCH   1   3
ATOM      3  N   UNL     1       3.708   4.369  16.734  0.00  0.00    +0.000 NA
ATOM      4  H   UNL     1       3.874   5.364  16.891  0.00  0.00    +0.000 HD
BRANCH   3   5
ATOM      5  C   UNL     1       4.991   3.684  16.518  0.00  0.00    +0.000 C 
BRANCH   5   6
ATOM      6  C   UNL     1       6.075   4.554  15.834  0.00  0.00    +0.000 C 
BRANCH   6   7
ATOM      7  C   UNL     1       6.863   5.314  16.891  0.00  0.00    +0.000 A 
ATOM      8  C   UNL     1       7.319   4.646  18.037  0.00  0.00    +0.000 A 
ATOM      9  C   UNL     1       7.954   5.346  19.067  0.00  0.00    +0.000 A 
ATOM     10  C   UNL     1       8.144   6.725  18.967  0.00  0.00    +0.000 A 
ATOM     11  C   UNL     1       7.713   7.395  17.828  0.00  0.00    +0.000 A 
ATOM     12 CL   UNL     1       7.925   9.099  17.702  0.00  0.00    +0.000 Cl
ATOM     13  C   UNL     1       7.086   6.701  16.794  0.00  0.00    +0.000 A 
ENDBRANCH   6   7
BRANCH   6  14
ATOM     14  O   UNL     1       5.469   5.473  14.919  0.00  0.00    +0.000 OA
ATOM     15  H   UNL     1       5.319   6.309  15.387  0.00  0.00    +0.000 HD
ENDBRANCH   6  14
ENDBRANCH   5   6
ENDBRANCH   3   5
ENDBRANCH   1   3
BRANCH   1  16
ATOM     16  C   UNL     1       3.336   4.341  19.219  0.00  0.00    +0.000 C 
BRANCH  16  17
ATOM     17  C   UNL     1       4.001   5.725  19.192  0.00  0.00    +0.000 C 
BRANCH  17  21
ATOM     18  C   UNL     1       1.137   8.973  19.303  0.00  0.00    +0.000 A 
ATOM     19  C   UNL     1       1.315   8.139  20.415  0.00  0.00    +0.000 A 
ATOM     20  C   UNL     1       2.254   7.108  20.387  0.00  0.00    +0.000 A 
ATOM     21  C   UNL     1       3.011   6.864  19.236  0.00  0.00    +0.000 A 
ATOM     22  C   UNL     1       2.830   7.687  18.119  0.00  0.00    +0.000 A 
ATOM     23  C   UNL     1       1.892   8.727  18.152  0.00  0.00    +0.000 A 
BRANCH  18  25
ATOM     24  C   UNL     1       0.297  11.187  18.601  0.00  0.00    +0.000 C 
ATOM     25  C   UNL     1       0.141  10.051  19.297  0.00  0.00    +0.000 C 
BRANCH  24  26
ATOM     26  C   UNL     1      -0.731  12.242  18.655  0.00  0.00    +0.000 C 
ATOM     27  O   UNL     1      -0.627  13.359  18.181  0.00  0.00    +0.000 OA
BRANCH  26  29
ATOM     28  C   UNL     1      -2.522  12.704  20.073  0.00  0.00    +0.000 C 
ATOM     29  O   UNL     1      -1.808  11.735  19.307  0.00  0.00    +0.000 OA
ENDBRANCH  26  29
ENDBRANCH  24  26
ENDBRANCH  18  25
ENDBRANCH  17  21
ENDBRANCH  16  17
ENDBRANCH   1  16
TORSDOF 11
ENDMDL
