MODEL 1
REMARK VINA RESULT:      -7.9      0.000      0.000
REMARK  Name = 
REMARK  6 active torsions:
REMARK  status: ('A' for Active; 'I' for Inactive)
REMARK    1  A    between atoms: C_2  and  C_3
REMARK    2  A    between atoms: C_3  and  C_4
REMARK    3  A    between atoms: C_4  and  C_5
REMARK    4  A    between atoms: N_8  and  C_9
REMARK    5  A    between atoms: C_9  and  C_10
REMARK    6  A    between atoms: N_19  and  O_20
REMARK                            x       y       z     vdW  Elec       q    Type
REMARK                         _______ _______ _______ _____ _____    ______ ____
ROOT
ATOM      1  C   UNL     1       5.636   5.307  16.645  0.00  0.00    +0.000 C 
ATOM      2  C   UNL     1       5.268   4.032  16.442  0.00  0.00    +0.000 C 
ATOM      3  C   UNL     1       3.859   3.761  16.849  0.00  0.00    +0.000 C 
ATOM      4  N   UNL     1       3.454   5.058  17.310  0.00  0.00    +0.000 N 
ATOM      5  C   UNL     1       4.452   5.998  17.190  0.00  0.00    +0.000 C 
ATOM      6  O   UNL     1       4.411   7.174  17.494  0.00  0.00    +0.000 OA
ENDROOT
BRANCH   1   7
ATOM      7  C   UNL     1       6.943   5.985  16.419  0.00  0.00    +0.000 C 
BRANCH   7   8
ATOM      8  C   UNL     1       7.498   6.591  17.709  0.00  0.00    +0.000 C 
BRANCH   8  10
ATOM      9  O   UNL     1       8.175   4.374  18.441  0.00  0.00    +0.000 OA
ATOM     10  C   UNL     1       7.911   5.541  18.714  0.00  0.00    +0.000 C 
ATOM     11  N   UNL     1       7.963   6.026  20.001  0.00  0.00    +0.000 N 
ATOM     12  H   UNL     1       7.959   7.013  20.233  0.00  0.00    +0.000 HD
BRANCH  11  13
ATOM     13  O   UNL     1       8.450   5.141  20.987  0.00  0.00    +0.000 OA
ATOM     14  H   UNL     1       7.759   5.198  21.682  0.00  0.00    +0.000 HD
ENDBRANCH  11  13
ENDBRANCH   8  10
ENDBRANCH   7   8
ENDBRANCH   1   7
BRANCH   4  15
ATOM     15  C   UNL     1       2.152   5.319  17.893  0.00  0.00    +0.000 C 
BRANCH  15  16
ATOM     16  C   UNL     1       1.867   4.479  19.120  0.00  0.00    +0.000 A 
ATOM     17  C   UNL     1       1.074   3.321  19.028  0.00  0.00    +0.000 A 
ATOM     18  C   UNL     1       0.828   2.532  20.154  0.00  0.00    +0.000 A 
ATOM     19  C   UNL     1       1.385   2.892  21.375  0.00  0.00    +0.000 A 
ATOM     20  F   UNL     1       1.149   2.137  22.455  0.00  0.00    +0.000 F 
ATOM     21  C   UNL     1       2.190   4.019  21.487  0.00  0.00    +0.000 A 
ATOM     22  C   UNL     1       2.431   4.813  20.363  0.00  0.00    +0.000 A 
ENDBRANCH  15  16
ENDBRANCH   4  15
TORSDOF 6
ENDMDL
MODEL 2
REMARK VINA RESULT:      -7.9      0.054      1.082
REMARK  Name = 
REMARK  6 active torsions:
REMARK  status: ('A' for Active; 'I' for Inactive)
REMARK    1  A    between atoms: C_2  and  C_3
REMARK    2  A    between atoms: C_3  and  C_4
REMARK    3  A    between atoms: C_4  and  C_5
REMARK    4  A    between atoms: N_8  and  C_9
REMARK    5  A    between atoms: C_9  and  C_10
REMARK    6  A    between atoms: N_19  and  O_20
REMARK                            x       y       z     vdW  Elec       q    Type
REMARK                         _______ _______ _______ _____ _____    ______ ____
ROOT
ATOM      1  C   UNL     1       5.682   5.363  16.662  0.00  0.00    +0.000 C 
ATOM      2  C   UNL     1       5.336   4.084  16.444  0.00  0.00    +0.000 C 
ATOM      3  C   UNL     1       3.930   3.784  16.840  0.00  0.00    +0.000 C 
ATOM      4  N   UNL     1       3.501   5.069  17.312  0.00  0.00    +0.000 N 
ATOM      5  C   UNL     1       4.482   6.028  17.206  0.00  0.00    +0.000 C 
ATOM      6  O   UNL     1       4.419   7.200  17.522  0.00  0.00    +0.000 OA
ENDROOT
BRANCH   1   7
ATOM      7  C   UNL     1       6.977   6.066  16.449  0.00  0.00    +0.000 C 
BRANCH   7   8
ATOM      8  C   UNL     1       7.531   6.641  17.754  0.00  0.00    +0.000 C 
BRANCH   8  10
ATOM      9  O   UNL     1       8.205   4.409  18.439  0.00  0.00    +0.000 OA
ATOM     10  C   UNL     1       7.935   5.567  18.737  0.00  0.00    +0.000 C 
ATOM     11  N   UNL     1       7.970   6.020  20.037  0.00  0.00    +0.000 N 
ATOM     12  H   UNL     1       7.959   7.002  20.293  0.00  0.00    +0.000 HD
BRANCH  11  13
ATOM     13  O   UNL     1       8.447   5.113  21.006  0.00  0.00    +0.000 OA
ATOM     14  H   UNL     1       8.808   5.711  21.696  0.00  0.00    +0.000 HD
ENDBRANCH  11  13
ENDBRANCH   8  10
ENDBRANCH   7   8
ENDBRANCH   1   7
BRANCH   4  15
ATOM     15  C   UNL     1       2.191   5.303  17.891  0.00  0.00    +0.000 C 
BRANCH  15  16
ATOM     16  C   UNL     1       1.913   4.445  19.107  0.00  0.00    +0.000 A 
ATOM     17  C   UNL     1       2.438   4.792  20.364  0.00  0.00    +0.000 A 
ATOM     18  C   UNL     1       2.164   4.014  21.492  0.00  0.00    +0.000 A 
ATOM     19  C   UNL     1       1.353   2.894  21.368  0.00  0.00    +0.000 A 
ATOM     20  F   UNL     1       1.091   2.147  22.448  0.00  0.00    +0.000 F 
ATOM     21  C   UNL     1       0.804   2.542  20.141  0.00  0.00    +0.000 A 
ATOM     22  C   UNL     1       1.083   3.315  19.011  0.00  0.00    +0.000 A 
ENDBRANCH  15  16
ENDBRANCH   4  15
TORSDOF 6
ENDMDL
MODEL 3
REMARK VINA RESULT:      -7.6      2.634      3.402
REMARK  Name = 
REMARK  6 active torsions:
REMARK  status: ('A' for Active; 'I' for Inactive)
REMARK    1  A    between atoms: C_2  and  C_3
REMARK    2  A    between atoms: C_3  and  C_4
REMARK    3  A    between atoms: C_4  and  C_5
REMARK    4  A    between atoms: N_8  and  C_9
REMARK    5  A    between atoms: C_9  and  C_10
REMARK    6  A    between atoms: N_19  and  O_20
REMARK                            x       y       z     vdW  Elec       q    Type
REMARK                         _______ _______ _______ _____ _____    ______ ____
ROOT
ATOM      1  C   UNL     1       5.280   4.834  16.384  0.00  0.00    +0.000 C 
ATOM      2  C   UNL     1       5.550   6.079  16.807  0.00  0.00    +0.000 C 
ATOM      3  C   UNL     1       4.435   6.683  17.591  0.00  0.00    +0.000 C 
ATOM      4  N   UNL     1       3.479   5.613  17.574  0.00  0.00    +0.000 N 
ATOM      5  C   UNL     1       3.938   4.504  16.900  0.00  0.00    +0.000 C 
ATOM      6  O   UNL     1       3.362   3.450  16.717  0.00  0.00    +0.000 OA
ENDROOT
BRANCH   1   7
ATOM      7  C   UNL     1       6.086   3.898  15.552  0.00  0.00    +0.000 C 
BRANCH   7   8
ATOM      8  C   UNL     1       5.779   4.057  14.062  0.00  0.00    +0.000 C 
BRANCH   8  10
ATOM      9  O   UNL     1       7.233   4.191  12.119  0.00  0.00    +0.000 OA
ATOM     10  C   UNL     1       6.976   4.530  13.269  0.00  0.00    +0.000 C 
ATOM     11  N   UNL     1       7.775   5.399  13.977  0.00  0.00    +0.000 N 
ATOM     12  H   UNL     1       7.488   5.858  14.835  0.00  0.00    +0.000 HD
BRANCH  11  13
ATOM     13  O   UNL     1       8.852   5.978  13.273  0.00  0.00    +0.000 OA
ATOM     14  H   UNL     1       9.587   5.911  13.920  0.00  0.00    +0.000 HD
ENDBRANCH  11  13
ENDBRANCH   8  10
ENDBRANCH   7   8
ENDBRANCH   1   7
BRANCH   4  15
ATOM     15  C   UNL     1       2.155   5.725  18.157  0.00  0.00    +0.000 C 
BRANCH  15  16
ATOM     16  C   UNL     1       1.914   4.743  19.283  0.00  0.00    +0.000 A 
ATOM     17  C   UNL     1       1.098   3.614  19.088  0.00  0.00    +0.000 A 
ATOM     18  C   UNL     1       0.892   2.695  20.120  0.00  0.00    +0.000 A 
ATOM     19  C   UNL     1       1.512   2.894  21.346  0.00  0.00    +0.000 A 
ATOM     20  F   UNL     1       1.314   2.014  22.336  0.00  0.00    +0.000 F 
ATOM     21  C   UNL     1       2.341   3.989  21.557  0.00  0.00    +0.000 A 
ATOM     22  C   UNL     1       2.542   4.913  20.528  0.00  0.00    +0.000 A 
ENDBRANCH  15  16
ENDBRANCH   4  15
TORSDOF 6
ENDMDL
MODEL 4
REMARK VINA RESULT:      -7.4      3.349      4.502
REMARK  Name = 
REMARK  6 active torsions:
REMARK  status: ('A' for Active; 'I' for Inactive)
REMARK    1  A    between atoms: C_2  and  C_3
REMARK    2  A    between atoms: C_3  and  C_4
REMARK    3  A    between atoms: C_4  and  C_5
REMARK    4  A    between atoms: N_8  and  C_9
REMARK    5  A    between atoms: C_9  and  C_10
REMARK    6  A    between atoms: N_19  and  O_20
REMARK                            x       y       z     vdW  Elec       q    Type
REMARK                         _______ _______ _______ _____ _____    ______ ____
ROOT
ATOM      1  C   UNL     1       6.002   5.471  15.545  0.00  0.00    +0.000 C 
ATOM      2  C   UNL     1       5.048   6.410  15.650  0.00  0.00    +0.000 C 
ATOM      3  C   UNL     1       4.610   6.641  17.057  0.00  0.00    +0.000 C 
ATOM      4  N   UNL     1       5.449   5.712  17.759  0.00  0.00    +0.000 N 
ATOM      5  C   UNL     1       6.294   5.023  16.920  0.00  0.00    +0.000 C 
ATOM      6  O   UNL     1       7.115   4.176  17.216  0.00  0.00    +0.000 OA
ENDROOT
BRANCH   1   7
ATOM      7  C   UNL     1       6.683   4.913  14.344  0.00  0.00    +0.000 C 
BRANCH   7   8
ATOM      8  C   UNL     1       5.765   3.977  13.556  0.00  0.00    +0.000 C 
BRANCH   8  10
ATOM      9  O   UNL     1       7.308   3.930  11.679  0.00  0.00    +0.000 OA
ATOM     10  C   UNL     1       6.447   3.372  12.351  0.00  0.00    +0.000 C 
ATOM     11  N   UNL     1       6.001   2.101  12.068  0.00  0.00    +0.000 N 
ATOM     12  H   UNL     1       5.457   1.537  12.712  0.00  0.00    +0.000 HD
BRANCH  11  13
ATOM     13  O   UNL     1       6.667   1.418  11.027  0.00  0.00    +0.000 OA
ATOM     14  H   UNL     1       7.498   1.129  11.462  0.00  0.00    +0.000 HD
ENDBRANCH  11  13
ENDBRANCH   8  10
ENDBRANCH   7   8
ENDBRANCH   1   7
BRANCH   4  15
ATOM     15  C   UNL     1       5.361   5.493  19.190  0.00  0.00    +0.000 C 
BRANCH  15  16
ATOM     16  C   UNL     1       4.115   4.740  19.604  0.00  0.00    +0.000 A 
ATOM     17  C   UNL     1       4.091   3.334  19.596  0.00  0.00    +0.000 A 
ATOM     18  C   UNL     1       2.949   2.637  20.000  0.00  0.00    +0.000 A 
ATOM     19  C   UNL     1       1.831   3.344  20.424  0.00  0.00    +0.000 A 
ATOM     20  F   UNL     1       0.737   2.676  20.809  0.00  0.00    +0.000 F 
ATOM     21  C   UNL     1       1.838   4.732  20.461  0.00  0.00    +0.000 A 
ATOM     22  C   UNL     1       2.977   5.431  20.052  0.00  0.00    +0.000 A 
ENDBRANCH  15  16
ENDBRANCH   4  15
TORSDOF 6
ENDMDL
MODEL 5
REMARK VINA RESULT:      -7.4      3.616      4.775
REMARK  Name = 
REMARK  6 active torsions:
REMARK  status: ('A' for Active; 'I' for Inactive)
REMARK    1  A    between atoms: C_2  and  C_3
REMARK    2  A    between atoms: C_3  and  C_4
REMARK    3  A    between atoms: C_4  and  C_5
REMARK    4  A    between atoms: N_8  and  C_9
REMARK    5  A    between atoms: C_9  and  C_10
REMARK    6  A    between atoms: N_19  and  O_20
REMARK                            x       y       z     vdW  Elec       q    Type
REMARK                         _______ _______ _______ _____ _____    ______ ____
ROOT
ATOM      1  C   UNL     1       4.359   4.047  17.031  0.00  0.00    +0.000 C 
ATOM      2  C   UNL     1       3.074   3.662  16.995  0.00  0.00    +0.000 C 
ATOM      3  C   UNL     1       2.235   4.333  18.029  0.00  0.00    +0.000 C 
ATOM      4  N   UNL     1       3.209   5.171  18.668  0.00  0.00    +0.000 N 
ATOM      5  C   UNL     1       4.459   5.055  18.104  0.00  0.00    +0.000 C 
ATOM      6  O   UNL     1       5.480   5.631  18.425  0.00  0.00    +0.000 OA
ENDROOT
BRANCH   1   7
ATOM      7  C   UNL     1       5.525   3.607  16.216  0.00  0.00    +0.000 C 
BRANCH   7   8
ATOM      8  C   UNL     1       5.644   4.407  14.917  0.00  0.00    +0.000 C 
BRANCH   8  10
ATOM      9  O   UNL     1       7.551   5.640  15.781  0.00  0.00    +0.000 OA
ATOM     10  C   UNL     1       6.942   5.174  14.824  0.00  0.00    +0.000 C 
ATOM     11  N   UNL     1       7.391   5.307  13.529  0.00  0.00    +0.000 N 
ATOM     12  H   UNL     1       7.034   4.765  12.750  0.00  0.00    +0.000 HD
BRANCH  11  13
ATOM     13  O   UNL     1       8.655   5.911  13.361  0.00  0.00    +0.000 OA
ATOM     14  H   UNL     1       8.447   6.866  13.454  0.00  0.00    +0.000 HD
ENDBRANCH  11  13
ENDBRANCH   8  10
ENDBRANCH   7   8
ENDBRANCH   1   7
BRANCH   4  15
ATOM     15  C   UNL     1       2.906   5.999  19.819  0.00  0.00    +0.000 C 
BRANCH  15  16
ATOM     16  C   UNL     1       2.254   7.316  19.454  0.00  0.00    +0.000 A 
ATOM     17  C   UNL     1       1.552   8.060  20.418  0.00  0.00    +0.000 A 
ATOM     18  C   UNL     1       0.969   9.286  20.088  0.00  0.00    +0.000 A 
ATOM     19  C   UNL     1       1.097   9.778  18.795  0.00  0.00    +0.000 A 
ATOM     20  F   UNL     1       0.537  10.952  18.478  0.00  0.00    +0.000 F 
ATOM     21  C   UNL     1       1.804   9.071  17.831  0.00  0.00    +0.000 A 
ATOM     22  C   UNL     1       2.382   7.842  18.157  0.00  0.00    +0.000 A 
ENDBRANCH  15  16
ENDBRANCH   4  15
TORSDOF 6
ENDMDL
MODEL 6
REMARK VINA RESULT:      -7.3      3.508      4.746
REMARK  Name = 
REMARK  6 active torsions:
REMARK  status: ('A' for Active; 'I' for Inactive)
REMARK    1  A    between atoms: C_2  and  C_3
REMARK    2  A    between atoms: C_3  and  C_4
REMARK    3  A    between atoms: C_4  and  C_5
REMARK    4  A    between atoms: N_8  and  C_9
REMARK    5  A    between atoms: C_9  and  C_10
REMARK    6  A    between atoms: N_19  and  O_20
REMARK                            x       y       z     vdW  Elec       q    Type
REMARK                         _______ _______ _______ _____ _____    ______ ____
ROOT
ATOM      1  C   UNL     1       6.540   4.907  15.139  0.00  0.00    +0.000 C 
ATOM      2  C   UNL     1       5.384   5.588  15.128  0.00  0.00    +0.000 C 
ATOM      3  C   UNL     1       4.898   5.934  16.495  0.00  0.00    +0.000 C 
ATOM      4  N   UNL     1       5.937   5.367  17.305  0.00  0.00    +0.000 N 
ATOM      5  C   UNL     1       6.929   4.776  16.557  0.00  0.00    +0.000 C 
ATOM      6  O   UNL     1       7.932   4.216  16.954  0.00  0.00    +0.000 OA
ENDROOT
BRANCH   1   7
ATOM      7  C   UNL     1       7.342   4.342  14.019  0.00  0.00    +0.000 C 
BRANCH   7   8
ATOM      8  C   UNL     1       6.669   4.578  12.665  0.00  0.00    +0.000 C 
BRANCH   8  10
ATOM      9  O   UNL     1       4.664   3.345  12.059  0.00  0.00    +0.000 OA
ATOM     10  C   UNL     1       5.884   3.378  12.189  0.00  0.00    +0.000 C 
ATOM     11  N   UNL     1       6.684   2.294  11.909  0.00  0.00    +0.000 N 
ATOM     12  H   UNL     1       7.691   2.348  11.803  0.00  0.00    +0.000 HD
BRANCH  11  13
ATOM     13  O   UNL     1       6.043   1.168  11.349  0.00  0.00    +0.000 OA
ATOM     14  H   UNL     1       5.812   1.482  10.448  0.00  0.00    +0.000 HD
ENDBRANCH  11  13
ENDBRANCH   8  10
ENDBRANCH   7   8
ENDBRANCH   1   7
BRANCH   4  15
ATOM     15  C   UNL     1       5.901   5.371  18.755  0.00  0.00    +0.000 C 
BRANCH  15  16
ATOM     16  C   UNL     1       4.651   4.735  19.324  0.00  0.00    +0.000 A 
ATOM     17  C   UNL     1       3.579   5.530  19.767  0.00  0.00    +0.000 A 
ATOM     18  C   UNL     1       2.416   4.944  20.271  0.00  0.00    +0.000 A 
ATOM     19  C   UNL     1       2.315   3.560  20.322  0.00  0.00    +0.000 A 
ATOM     20  F   UNL     1       1.200   2.998  20.807  0.00  0.00    +0.000 F 
ATOM     21  C   UNL     1       3.351   2.752  19.871  0.00  0.00    +0.000 A 
ATOM     22  C   UNL     1       4.518   3.337  19.372  0.00  0.00    +0.000 A 
ENDBRANCH  15  16
ENDBRANCH   4  15
TORSDOF 6
ENDMDL
MODEL 7
REMARK VINA RESULT:      -7.3      1.221      1.376
REMARK  Name = 
REMARK  6 active torsions:
REMARK  status: ('A' for Active; 'I' for Inactive)
REMARK    1  A    between atoms: C_2  and  C_3
REMARK    2  A    between atoms: C_3  and  C_4
REMARK    3  A    between atoms: C_4  and  C_5
REMARK    4  A    between atoms: N_8  and  C_9
REMARK    5  A    between atoms: C_9  and  C_10
REMARK    6  A    between atoms: N_19  and  O_20
REMARK                            x       y       z     vdW  Elec       q    Type
REMARK                         _______ _______ _______ _____ _____    ______ ____
ROOT
ATOM      1  C   UNL     1       5.726   5.577  16.816  0.00  0.00    +0.000 C 
ATOM      2  C   UNL     1       6.177   4.484  16.182  0.00  0.00    +0.000 C 
ATOM      3  C   UNL     1       5.142   3.418  16.048  0.00  0.00    +0.000 C 
ATOM      4  N   UNL     1       4.021   4.047  16.685  0.00  0.00    +0.000 N 
ATOM      5  C   UNL     1       4.307   5.318  17.129  0.00  0.00    +0.000 C 
ATOM      6  O   UNL     1       3.568   6.094  17.702  0.00  0.00    +0.000 OA
ENDROOT
BRANCH   1   7
ATOM      7  C   UNL     1       6.425   6.838  17.190  0.00  0.00    +0.000 C 
BRANCH   7   8
ATOM      8  C   UNL     1       7.696   6.563  17.997  0.00  0.00    +0.000 C 
BRANCH   8  10
ATOM      9  O   UNL     1       6.294   5.586  19.724  0.00  0.00    +0.000 OA
ATOM     10  C   UNL     1       7.410   5.895  19.322  0.00  0.00    +0.000 C 
ATOM     11  N   UNL     1       8.550   5.660  20.057  0.00  0.00    +0.000 N 
ATOM     12  H   UNL     1       9.488   5.707  19.675  0.00  0.00    +0.000 HD
BRANCH  11  13
ATOM     13  O   UNL     1       8.385   4.936  21.258  0.00  0.00    +0.000 OA
ATOM     14  H   UNL     1       9.226   4.432  21.317  0.00  0.00    +0.000 HD
ENDBRANCH  11  13
ENDBRANCH   8  10
ENDBRANCH   7   8
ENDBRANCH   1   7
BRANCH   4  15
ATOM     15  C   UNL     1       2.748   3.381  16.884  0.00  0.00    +0.000 C 
BRANCH  15  16
ATOM     16  C   UNL     1       2.386   3.207  18.344  0.00  0.00    +0.000 A 
ATOM     17  C   UNL     1       1.145   3.651  18.833  0.00  0.00    +0.000 A 
ATOM     18  C   UNL     1       0.800   3.471  20.175  0.00  0.00    +0.000 A 
ATOM     19  C   UNL     1       1.691   2.835  21.030  0.00  0.00    +0.000 A 
ATOM     20  F   UNL     1       1.361   2.664  22.316  0.00  0.00    +0.000 F 
ATOM     21  C   UNL     1       2.914   2.369  20.566  0.00  0.00    +0.000 A 
ATOM     22  C   UNL     1       3.264   2.554  19.226  0.00  0.00    +0.000 A 
ENDBRANCH  15  16
ENDBRANCH   4  15
TORSDOF 6
ENDMDL
MODEL 8
REMARK VINA RESULT:      -7.3      2.795      3.868
REMARK  Name = 
REMARK  6 active torsions:
REMARK  status: ('A' for Active; 'I' for Inactive)
REMARK    1  A    between atoms: C_2  and  C_3
REMARK    2  A    between atoms: C_3  and  C_4
REMARK    3  A    between atoms: C_4  and  C_5
REMARK    4  A    between atoms: N_8  and  C_9
REMARK    5  A    between atoms: C_9  and  C_10
REMARK    6  A    between atoms: N_19  and  O_20
REMARK                            x       y       z     vdW  Elec       q    Type
REMARK                         _______ _______ _______ _____ _____    ______ ____
ROOT
ATOM      1  C   UNL     1       5.417   5.051  16.399  0.00  0.00    +0.000 C 
ATOM      2  C   UNL     1       5.571   6.338  16.745  0.00  0.00    +0.000 C 
ATOM      3  C   UNL     1       4.391   6.893  17.468  0.00  0.00    +0.000 C 
ATOM      4  N   UNL     1       3.529   5.747  17.503  0.00  0.00    +0.000 N 
ATOM      5  C   UNL     1       4.095   4.641  16.911  0.00  0.00    +0.000 C 
ATOM      6  O   UNL     1       3.614   3.531  16.786  0.00  0.00    +0.000 OA
ENDROOT
BRANCH   1   7
ATOM      7  C   UNL     1       6.318   4.136  15.645  0.00  0.00    +0.000 C 
BRANCH   7   8
ATOM      8  C   UNL     1       7.108   4.881  14.567  0.00  0.00    +0.000 C 
BRANCH   8  10
ATOM      9  O   UNL     1       7.433   4.714  12.164  0.00  0.00    +0.000 OA
ATOM     10  C   UNL     1       6.945   4.266  13.197  0.00  0.00    +0.000 C 
ATOM     11  N   UNL     1       6.175   3.125  13.213  0.00  0.00    +0.000 N 
ATOM     12  H   UNL     1       5.937   2.617  14.058  0.00  0.00    +0.000 HD
BRANCH  11  13
ATOM     13  O   UNL     1       6.067   2.422  11.993  0.00  0.00    +0.000 OA
ATOM     14  H   UNL     1       5.649   3.087  11.403  0.00  0.00    +0.000 HD
ENDBRANCH  11  13
ENDBRANCH   8  10
ENDBRANCH   7   8
ENDBRANCH   1   7
BRANCH   4  15
ATOM     15  C   UNL     1       2.187   5.781  18.053  0.00  0.00    +0.000 C 
BRANCH  15  16
ATOM     16  C   UNL     1       1.978   4.794  19.182  0.00  0.00    +0.000 A 
ATOM     17  C   UNL     1       2.594   4.992  20.430  0.00  0.00    +0.000 A 
ATOM     18  C   UNL     1       2.384   4.095  21.480  0.00  0.00    +0.000 A 
ATOM     19  C   UNL     1       1.547   3.003  21.289  0.00  0.00    +0.000 A 
ATOM     20  F   UNL     1       1.347   2.142  22.294  0.00  0.00    +0.000 F 
ATOM     21  C   UNL     1       0.910   2.798  20.071  0.00  0.00    +0.000 A 
ATOM     22  C   UNL     1       1.124   3.691  19.018  0.00  0.00    +0.000 A 
ENDBRANCH  15  16
ENDBRANCH   4  15
TORSDOF 6
ENDMDL
MODEL 9
REMARK VINA RESULT:      -7.3      3.377      4.470
REMARK  Name = 
REMARK  6 active torsions:
REMARK  status: ('A' for Active; 'I' for Inactive)
REMARK    1  A    between atoms: C_2  and  C_3
REMARK    2  A    between atoms: C_3  and  C_4
REMARK    3  A    between atoms: C_4  and  C_5
REMARK    4  A    between atoms: N_8  and  C_9
REMARK    5  A    between atoms: C_9  and  C_10
REMARK    6  A    between atoms: N_19  and  O_20
REMARK                            x       y       z     vdW  Elec       q    Type
REMARK                         _______ _______ _______ _____ _____    ______ ____
ROOT
ATOM      1  C   UNL     1       4.238   3.982  17.215  0.00  0.00    +0.000 C 
ATOM      2  C   UNL     1       2.941   3.667  17.077  0.00  0.00    +0.000 C 
ATOM      3  C   UNL     1       2.065   4.349  18.073  0.00  0.00    +0.000 C 
ATOM      4  N   UNL     1       3.033   5.114  18.806  0.00  0.00    +0.000 N 
ATOM      5  C   UNL     1       4.312   4.950  18.326  0.00  0.00    +0.000 C 
ATOM      6  O   UNL     1       5.336   5.462  18.736  0.00  0.00    +0.000 OA
ENDROOT
BRANCH   1   7
ATOM      7  C   UNL     1       5.435   3.506  16.468  0.00  0.00    +0.000 C 
BRANCH   7   8
ATOM      8  C   UNL     1       5.684   4.336  15.207  0.00  0.00    +0.000 C 
BRANCH   8  10
ATOM      9  O   UNL     1       5.415   6.751  15.252  0.00  0.00    +0.000 OA
ATOM     10  C   UNL     1       6.086   5.759  15.518  0.00  0.00    +0.000 C 
ATOM     11  N   UNL     1       7.309   5.843  16.143  0.00  0.00    +0.000 N 
ATOM     12  H   UNL     1       7.785   5.051  16.562  0.00  0.00    +0.000 HD
BRANCH  11  13
ATOM     13  O   UNL     1       7.709   7.127  16.572  0.00  0.00    +0.000 OA
ATOM     14  H   UNL     1       7.936   7.571  15.726  0.00  0.00    +0.000 HD
ENDBRANCH  11  13
ENDBRANCH   8  10
ENDBRANCH   7   8
ENDBRANCH   1   7
BRANCH   4  15
ATOM     15  C   UNL     1       2.692   5.922  19.961  0.00  0.00    +0.000 C 
BRANCH  15  16
ATOM     16  C   UNL     1       2.169   7.295  19.597  0.00  0.00    +0.000 A 
ATOM     17  C   UNL     1       2.344   7.808  18.300  0.00  0.00    +0.000 A 
ATOM     18  C   UNL     1       1.843   9.066  17.955  0.00  0.00    +0.000 A 
ATOM     19  C   UNL     1       1.153   9.810  18.904  0.00  0.00    +0.000 A 
ATOM     20  F   UNL     1       0.674  11.016  18.575  0.00  0.00    +0.000 F 
ATOM     21  C   UNL     1       0.949   9.316  20.187  0.00  0.00    +0.000 A 
ATOM     22  C   UNL     1       1.456   8.061  20.535  0.00  0.00    +0.000 A 
ENDBRANCH  15  16
ENDBRANCH   4  15
TORSDOF 6
ENDMDL
