MODEL 1
REMARK VINA RESULT:      -8.5      0.000      0.000
REMARK  Name = 
REMARK  7 active torsions:
REMARK  status: ('A' for Active; 'I' for Inactive)
REMARK    1  A    between atoms: C_1  and  C_2
REMARK    2  A    between atoms: C_2  and  N_3
REMARK    3  A    between atoms: C_7  and  N_8
REMARK    4  A    between atoms: C_9  and  C_10
REMARK    5  A    between atoms: C_14  and  C_15
REMARK    6  A    between atoms: C_16  and  C_17
REMARK    7  A    between atoms: N_19  and  O_20
REMARK                            x       y       z     vdW  Elec       q    Type
REMARK                         _______ _______ _______ _____ _____    ______ ____
ROOT
ATOM      1  N   UNL     1       5.633   4.667  15.425  0.00  0.00    +0.000 N 
ATOM      2  C   UNL     1       6.912   5.174  15.696  0.00  0.00    +0.000 A 
ATOM      3  N   UNL     1       7.643   5.089  14.588  0.00  0.00    +0.000 NA
ATOM      4  C   UNL     1       6.870   4.498  13.622  0.00  0.00    +0.000 A 
ATOM      5  C   UNL     1       7.173   4.205  12.279  0.00  0.00    +0.000 A 
ATOM      6  C   UNL     1       6.203   3.600  11.466  0.00  0.00    +0.000 A 
ATOM      7  C   UNL     1       4.969   3.243  11.994  0.00  0.00    +0.000 A 
ATOM      8  C   UNL     1       4.676   3.482  13.339  0.00  0.00    +0.000 A 
ATOM      9  C   UNL     1       5.619   4.165  14.130  0.00  0.00    +0.000 A 
ENDROOT
BRANCH   1  14
ATOM     10  N   UNL     1       3.359   3.635  18.356  0.00  0.00    +0.000 NA
ATOM     11  C   UNL     1       3.288   4.972  18.971  0.00  0.00    +0.000 C 
ATOM     12  C   UNL     1       3.125   6.060  17.911  0.00  0.00    +0.000 C 
ATOM     13  C   UNL     1       4.297   6.051  16.941  0.00  0.00    +0.000 C 
ATOM     14  C   UNL     1       4.506   4.651  16.350  0.00  0.00    +0.000 C 
ATOM     15  C   UNL     1       4.516   3.558  17.433  0.00  0.00    +0.000 C 
BRANCH  10  17
ATOM     16  C   UNL     1       2.637   2.717  20.584  0.00  0.00    +0.000 C 
ATOM     17  C   UNL     1       3.540   2.577  19.371  0.00  0.00    +0.000 C 
ENDBRANCH  10  17
ENDBRANCH   1  14
BRANCH   2  18
ATOM     18  C   UNL     1       7.440   5.801  16.954  0.00  0.00    +0.000 A 
ATOM     19  C   UNL     1       7.653   5.144  18.175  0.00  0.00    +0.000 A 
ATOM     20  C   UNL     1       8.010   5.824  19.343  0.00  0.00    +0.000 A 
ATOM     21  C   UNL     1       8.226   7.189  19.311  0.00  0.00    +0.000 A 
ATOM     22  C   UNL     1       8.103   7.884  18.108  0.00  0.00    +0.000 A 
ATOM     23  C   UNL     1       7.729   7.180  16.943  0.00  0.00    +0.000 A 
BRANCH  22  24
ATOM     24  C   UNL     1       8.374   9.326  18.138  0.00  0.00    +0.000 C 
ATOM     25  C   UNL     1       9.127   9.924  19.072  0.00  0.00    +0.000 C 
BRANCH  25  26
ATOM     26  C   UNL     1       9.406  11.377  18.976  0.00  0.00    +0.000 C 
ATOM     27  O   UNL     1       9.169  12.185  19.873  0.00  0.00    +0.000 OA
ATOM     28  N   UNL     1       9.928  11.732  17.762  0.00  0.00    +0.000 N 
ATOM     29  H   UNL     1      10.086  11.109  16.979  0.00  0.00    +0.000 HD
BRANCH  28  30
ATOM     30  O   UNL     1      10.158  13.108  17.552  0.00  0.00    +0.000 OA
ATOM     31  H   UNL     1       9.612  13.289  16.756  0.00  0.00    +0.000 HD
ENDBRANCH  28  30
ENDBRANCH  25  26
ENDBRANCH  22  24
ENDBRANCH   2  18
TORSDOF 6
ENDMDL
MODEL 2
REMARK VINA RESULT:      -8.2      4.897      7.933
REMARK  Name = 
REMARK  7 active torsions:
REMARK  status: ('A' for Active; 'I' for Inactive)
REMARK    1  A    between atoms: C_1  and  C_2
REMARK    2  A    between atoms: C_2  and  N_3
REMARK    3  A    between atoms: C_7  and  N_8
REMARK    4  A    between atoms: C_9  and  C_10
REMARK    5  A    between atoms: C_14  and  C_15
REMARK    6  A    between atoms: C_16  and  C_17
REMARK    7  A    between atoms: N_19  and  O_20
REMARK                            x       y       z     vdW  Elec       q    Type
REMARK                         _______ _______ _______ _____ _____    ______ ____
ROOT
ATOM      1  N   UNL     1       3.297   5.665  19.090  0.00  0.00    +0.000 N 
ATOM      2  C   UNL     1       2.284   6.467  19.635  0.00  0.00    +0.000 A 
ATOM      3  N   UNL     1       1.718   5.806  20.641  0.00  0.00    +0.000 NA
ATOM      4  C   UNL     1       2.320   4.577  20.724  0.00  0.00    +0.000 A 
ATOM      5  C   UNL     1       2.096   3.524  21.630  0.00  0.00    +0.000 A 
ATOM      6  C   UNL     1       2.855   2.349  21.528  0.00  0.00    +0.000 A 
ATOM      7  C   UNL     1       3.786   2.202  20.507  0.00  0.00    +0.000 A 
ATOM      8  C   UNL     1       3.980   3.221  19.572  0.00  0.00    +0.000 A 
ATOM      9  C   UNL     1       3.278   4.431  19.728  0.00  0.00    +0.000 A 
ENDROOT
BRANCH   1  14
ATOM     10  N   UNL     1       6.494   6.842  17.296  0.00  0.00    +0.000 NA
ATOM     11  C   UNL     1       6.579   5.698  16.371  0.00  0.00    +0.000 C 
ATOM     12  C   UNL     1       5.202   5.326  15.824  0.00  0.00    +0.000 C 
ATOM     13  C   UNL     1       4.255   4.948  16.954  0.00  0.00    +0.000 C 
ATOM     14  C   UNL     1       4.210   6.050  18.020  0.00  0.00    +0.000 C 
ATOM     15  C   UNL     1       5.616   6.508  18.443  0.00  0.00    +0.000 C 
BRANCH  10  17
ATOM     16  C   UNL     1       8.119   8.685  17.839  0.00  0.00    +0.000 C 
ATOM     17  C   UNL     1       7.817   7.196  17.849  0.00  0.00    +0.000 C 
ENDBRANCH  10  17
ENDBRANCH   1  14
BRANCH   2  18
ATOM     18  C   UNL     1       1.884   7.869  19.275  0.00  0.00    +0.000 A 
ATOM     19  C   UNL     1       2.056   8.479  18.023  0.00  0.00    +0.000 A 
ATOM     20  C   UNL     1       1.791   9.834  17.804  0.00  0.00    +0.000 A 
ATOM     21  C   UNL     1       1.281  10.614  18.825  0.00  0.00    +0.000 A 
ATOM     22  C   UNL     1       1.017  10.043  20.070  0.00  0.00    +0.000 A 
ATOM     23  C   UNL     1       1.305   8.675  20.274  0.00  0.00    +0.000 A 
BRANCH  22  24
ATOM     24  C   UNL     1       0.449  10.920  21.101  0.00  0.00    +0.000 C 
ATOM     25  C   UNL     1      -0.830  10.875  21.496  0.00  0.00    +0.000 C 
BRANCH  25  26
ATOM     26  C   UNL     1      -1.294  11.751  22.599  0.00  0.00    +0.000 C 
ATOM     27  O   UNL     1      -2.177  11.443  23.399  0.00  0.00    +0.000 OA
ATOM     28  N   UNL     1      -0.656  12.961  22.611  0.00  0.00    +0.000 N 
ATOM     29  H   UNL     1       0.034  13.275  21.940  0.00  0.00    +0.000 HD
BRANCH  28  30
ATOM     30  O   UNL     1      -1.084  13.891  23.583  0.00  0.00    +0.000 OA
ATOM     31  H   UNL     1      -1.000  14.744  23.103  0.00  0.00    +0.000 HD
ENDBRANCH  28  30
ENDBRANCH  25  26
ENDBRANCH  22  24
ENDBRANCH   2  18
TORSDOF 6
ENDMDL
MODEL 3
REMARK VINA RESULT:      -7.9      4.490      6.257
REMARK  Name = 
REMARK  7 active torsions:
REMARK  status: ('A' for Active; 'I' for Inactive)
REMARK    1  A    between atoms: C_1  and  C_2
REMARK    2  A    between atoms: C_2  and  N_3
REMARK    3  A    between atoms: C_7  and  N_8
REMARK    4  A    between atoms: C_9  and  C_10
REMARK    5  A    between atoms: C_14  and  C_15
REMARK    6  A    between atoms: C_16  and  C_17
REMARK    7  A    between atoms: N_19  and  O_20
REMARK                            x       y       z     vdW  Elec       q    Type
REMARK                         _______ _______ _______ _____ _____    ______ ____
ROOT
ATOM      1  N   UNL     1       3.898   4.974  17.313  0.00  0.00    +0.000 N 
ATOM      2  C   UNL     1       3.855   6.355  17.548  0.00  0.00    +0.000 A 
ATOM      3  N   UNL     1       4.736   6.947  16.747  0.00  0.00    +0.000 NA
ATOM      4  C   UNL     1       5.374   5.967  16.031  0.00  0.00    +0.000 A 
ATOM      5  C   UNL     1       6.369   6.077  15.042  0.00  0.00    +0.000 A 
ATOM      6  C   UNL     1       6.869   4.918  14.431  0.00  0.00    +0.000 A 
ATOM      7  C   UNL     1       6.425   3.665  14.835  0.00  0.00    +0.000 A 
ATOM      8  C   UNL     1       5.476   3.542  15.852  0.00  0.00    +0.000 A 
ATOM      9  C   UNL     1       4.915   4.709  16.403  0.00  0.00    +0.000 A 
ENDROOT
BRANCH   1  14
ATOM     10  N   UNL     1       2.348   2.663  19.975  0.00  0.00    +0.000 NA
ATOM     11  C   UNL     1       0.958   3.111  19.774  0.00  0.00    +0.000 C 
ATOM     12  C   UNL     1       0.642   3.284  18.290  0.00  0.00    +0.000 C 
ATOM     13  C   UNL     1       1.564   4.315  17.656  0.00  0.00    +0.000 C 
ATOM     14  C   UNL     1       3.035   3.973  17.930  0.00  0.00    +0.000 C 
ATOM     15  C   UNL     1       3.292   3.658  19.413  0.00  0.00    +0.000 C 
BRANCH  10  17
ATOM     16  C   UNL     1       1.469   2.609  22.332  0.00  0.00    +0.000 C 
ATOM     17  C   UNL     1       2.672   2.515  21.409  0.00  0.00    +0.000 C 
ENDBRANCH  10  17
ENDBRANCH   1  14
BRANCH   2  18
ATOM     18  C   UNL     1       2.954   7.136  18.461  0.00  0.00    +0.000 A 
ATOM     19  C   UNL     1       2.795   6.927  19.839  0.00  0.00    +0.000 A 
ATOM     20  C   UNL     1       1.831   7.600  20.596  0.00  0.00    +0.000 A 
ATOM     21  C   UNL     1       1.028   8.556  20.002  0.00  0.00    +0.000 A 
ATOM     22  C   UNL     1       1.193   8.861  18.651  0.00  0.00    +0.000 A 
ATOM     23  C   UNL     1       2.164   8.161  17.902  0.00  0.00    +0.000 A 
BRANCH  22  24
ATOM     24  C   UNL     1       0.329   9.907  18.091  0.00  0.00    +0.000 C 
ATOM     25  C   UNL     1      -0.804  10.327  18.670  0.00  0.00    +0.000 C 
BRANCH  25  26
ATOM     26  C   UNL     1      -1.573  11.442  18.066  0.00  0.00    +0.000 C 
ATOM     27  O   UNL     1      -1.174  12.604  18.012  0.00  0.00    +0.000 OA
ATOM     28  N   UNL     1      -2.797  11.044  17.604  0.00  0.00    +0.000 N 
ATOM     29  H   UNL     1      -3.187  10.112  17.678  0.00  0.00    +0.000 HD
BRANCH  28  30
ATOM     30  O   UNL     1      -3.632  12.054  17.078  0.00  0.00    +0.000 OA
ATOM     31  H   UNL     1      -4.477  11.571  16.939  0.00  0.00    +0.000 HD
ENDBRANCH  28  30
ENDBRANCH  25  26
ENDBRANCH  22  24
ENDBRANCH   2  18
TORSDOF 6
ENDMDL
MODEL 4
REMARK VINA RESULT:      -7.8      2.999      5.512
REMARK  Name = 
REMARK  7 active torsions:
REMARK  status: ('A' for Active; 'I' for Inactive)
REMARK    1  A    between atoms: C_1  and  C_2
REMARK    2  A    between atoms: C_2  and  N_3
REMARK    3  A    between atoms: C_7  and  N_8
REMARK    4  A    between atoms: C_9  and  C_10
REMARK    5  A    between atoms: C_14  and  C_15
REMARK    6  A    between atoms: C_16  and  C_17
REMARK    7  A    between atoms: N_19  and  O_20
REMARK                            x       y       z     vdW  Elec       q    Type
REMARK                         _______ _______ _______ _____ _____    ______ ____
ROOT
ATOM      1  N   UNL     1       6.330   4.945  15.726  0.00  0.00    +0.000 N 
ATOM      2  C   UNL     1       5.027   4.540  16.049  0.00  0.00    +0.000 A 
ATOM      3  N   UNL     1       4.495   3.942  14.987  0.00  0.00    +0.000 NA
ATOM      4  C   UNL     1       5.417   3.994  13.973  0.00  0.00    +0.000 A 
ATOM      5  C   UNL     1       5.345   3.487  12.662  0.00  0.00    +0.000 A 
ATOM      6  C   UNL     1       6.434   3.651  11.794  0.00  0.00    +0.000 A 
ATOM      7  C   UNL     1       7.558   4.357  12.206  0.00  0.00    +0.000 A 
ATOM      8  C   UNL     1       7.620   4.909  13.487  0.00  0.00    +0.000 A 
ATOM      9  C   UNL     1       6.560   4.670  14.383  0.00  0.00    +0.000 A 
ENDROOT
BRANCH   1  14
ATOM     10  N   UNL     1       8.145   7.641  17.791  0.00  0.00    +0.000 NA
ATOM     11  C   UNL     1       8.016   6.951  19.087  0.00  0.00    +0.000 C 
ATOM     12  C   UNL     1       8.277   5.453  18.945  0.00  0.00    +0.000 C 
ATOM     13  C   UNL     1       7.288   4.821  17.976  0.00  0.00    +0.000 C 
ATOM     14  C   UNL     1       7.283   5.569  16.636  0.00  0.00    +0.000 C 
ATOM     15  C   UNL     1       7.169   7.091  16.820  0.00  0.00    +0.000 C 
BRANCH  10  17
ATOM     16  C   UNL     1       8.934   9.859  18.678  0.00  0.00    +0.000 C 
ATOM     17  C   UNL     1       7.873   9.087  17.912  0.00  0.00    +0.000 C 
ENDBRANCH  10  17
ENDBRANCH   1  14
BRANCH   2  18
ATOM     18  C   UNL     1       4.298   4.640  17.358  0.00  0.00    +0.000 A 
ATOM     19  C   UNL     1       4.106   3.597  18.276  0.00  0.00    +0.000 A 
ATOM     20  C   UNL     1       3.294   3.730  19.406  0.00  0.00    +0.000 A 
ATOM     21  C   UNL     1       2.691   4.942  19.687  0.00  0.00    +0.000 A 
ATOM     22  C   UNL     1       2.908   6.036  18.851  0.00  0.00    +0.000 A 
ATOM     23  C   UNL     1       3.722   5.877  17.707  0.00  0.00    +0.000 A 
BRANCH  22  24
ATOM     24  C   UNL     1       2.262   7.301  19.222  0.00  0.00    +0.000 C 
ATOM     25  C   UNL     1       2.109   8.334  18.384  0.00  0.00    +0.000 C 
BRANCH  25  26
ATOM     26  C   UNL     1       1.376   9.544  18.828  0.00  0.00    +0.000 C 
ATOM     27  O   UNL     1       0.873   9.675  19.943  0.00  0.00    +0.000 OA
ATOM     28  N   UNL     1       1.287  10.493  17.846  0.00  0.00    +0.000 N 
ATOM     29  H   UNL     1       1.637  10.404  16.900  0.00  0.00    +0.000 HD
BRANCH  28  30
ATOM     30  O   UNL     1       0.542  11.652  18.154  0.00  0.00    +0.000 OA
ATOM     31  H   UNL     1       1.208  12.364  18.032  0.00  0.00    +0.000 HD
ENDBRANCH  28  30
ENDBRANCH  25  26
ENDBRANCH  22  24
ENDBRANCH   2  18
TORSDOF 6
ENDMDL
MODEL 5
REMARK VINA RESULT:      -7.7      5.437      7.565
REMARK  Name = 
REMARK  7 active torsions:
REMARK  status: ('A' for Active; 'I' for Inactive)
REMARK    1  A    between atoms: C_1  and  C_2
REMARK    2  A    between atoms: C_2  and  N_3
REMARK    3  A    between atoms: C_7  and  N_8
REMARK    4  A    between atoms: C_9  and  C_10
REMARK    5  A    between atoms: C_14  and  C_15
REMARK    6  A    between atoms: C_16  and  C_17
REMARK    7  A    between atoms: N_19  and  O_20
REMARK                            x       y       z     vdW  Elec       q    Type
REMARK                         _______ _______ _______ _____ _____    ______ ____
ROOT
ATOM      1  N   UNL     1       2.852   6.294  18.350  0.00  0.00    +0.000 N 
ATOM      2  C   UNL     1       2.669   7.675  18.194  0.00  0.00    +0.000 A 
ATOM      3  N   UNL     1       3.471   8.100  17.222  0.00  0.00    +0.000 NA
ATOM      4  C   UNL     1       4.197   7.025  16.779  0.00  0.00    +0.000 A 
ATOM      5  C   UNL     1       5.160   6.947  15.756  0.00  0.00    +0.000 A 
ATOM      6  C   UNL     1       5.768   5.717  15.468  0.00  0.00    +0.000 A 
ATOM      7  C   UNL     1       5.464   4.591  16.223  0.00  0.00    +0.000 A 
ATOM      8  C   UNL     1       4.548   4.668  17.275  0.00  0.00    +0.000 A 
ATOM      9  C   UNL     1       3.877   5.884  17.505  0.00  0.00    +0.000 A 
ENDROOT
BRANCH   1  14
ATOM     10  N   UNL     1       0.924   3.242  19.690  0.00  0.00    +0.000 NA
ATOM     11  C   UNL     1       1.768   3.041  20.881  0.00  0.00    +0.000 C 
ATOM     12  C   UNL     1       2.120   4.373  21.541  0.00  0.00    +0.000 C 
ATOM     13  C   UNL     1       2.878   5.272  20.575  0.00  0.00    +0.000 C 
ATOM     14  C   UNL     1       2.108   5.429  19.257  0.00  0.00    +0.000 C 
ATOM     15  C   UNL     1       1.637   4.078  18.694  0.00  0.00    +0.000 C 
BRANCH  10  17
ATOM     16  C   UNL     1       1.754   1.339  18.269  0.00  0.00    +0.000 C 
ATOM     17  C   UNL     1       0.597   1.962  19.030  0.00  0.00    +0.000 C 
ENDBRANCH  10  17
ENDBRANCH   1  14
BRANCH   2  18
ATOM     18  C   UNL     1       1.706   8.591  18.893  0.00  0.00    +0.000 A 
ATOM     19  C   UNL     1       1.625   8.801  20.278  0.00  0.00    +0.000 A 
ATOM     20  C   UNL     1       0.609   9.559  20.866  0.00  0.00    +0.000 A 
ATOM     21  C   UNL     1      -0.334  10.186  20.073  0.00  0.00    +0.000 A 
ATOM     22  C   UNL     1      -0.259  10.076  18.685  0.00  0.00    +0.000 A 
ATOM     23  C   UNL     1       0.768   9.295  18.112  0.00  0.00    +0.000 A 
BRANCH  22  24
ATOM     24  C   UNL     1      -1.274  10.790  17.901  0.00  0.00    +0.000 C 
ATOM     25  C   UNL     1      -2.008  10.221  16.936  0.00  0.00    +0.000 C 
BRANCH  25  26
ATOM     26  C   UNL     1      -3.063  11.005  16.250  0.00  0.00    +0.000 C 
ATOM     27  O   UNL     1      -3.212  11.040  15.029  0.00  0.00    +0.000 OA
ATOM     28  N   UNL     1      -3.836  11.720  17.123  0.00  0.00    +0.000 N 
ATOM     29  H   UNL     1      -3.712  11.765  18.127  0.00  0.00    +0.000 HD
BRANCH  28  30
ATOM     30  O   UNL     1      -4.821  12.557  16.555  0.00  0.00    +0.000 OA
ATOM     31  H   UNL     1      -5.601  12.371  17.123  0.00  0.00    +0.000 HD
ENDBRANCH  28  30
ENDBRANCH  25  26
ENDBRANCH  22  24
ENDBRANCH   2  18
TORSDOF 6
ENDMDL
MODEL 6
REMARK VINA RESULT:      -7.6      5.078      8.063
REMARK  Name = 
REMARK  7 active torsions:
REMARK  status: ('A' for Active; 'I' for Inactive)
REMARK    1  A    between atoms: C_1  and  C_2
REMARK    2  A    between atoms: C_2  and  N_3
REMARK    3  A    between atoms: C_7  and  N_8
REMARK    4  A    between atoms: C_9  and  C_10
REMARK    5  A    between atoms: C_14  and  C_15
REMARK    6  A    between atoms: C_16  and  C_17
REMARK    7  A    between atoms: N_19  and  O_20
REMARK                            x       y       z     vdW  Elec       q    Type
REMARK                         _______ _______ _______ _____ _____    ______ ____
ROOT
ATOM      1  N   UNL     1       3.312   5.736  18.917  0.00  0.00    +0.000 N 
ATOM      2  C   UNL     1       2.330   6.580  19.455  0.00  0.00    +0.000 A 
ATOM      3  N   UNL     1       1.774   5.969  20.498  0.00  0.00    +0.000 NA
ATOM      4  C   UNL     1       2.351   4.730  20.612  0.00  0.00    +0.000 A 
ATOM      5  C   UNL     1       2.126   3.715  21.560  0.00  0.00    +0.000 A 
ATOM      6  C   UNL     1       2.856   2.520  21.484  0.00  0.00    +0.000 A 
ATOM      7  C   UNL     1       3.758   2.316  20.447  0.00  0.00    +0.000 A 
ATOM      8  C   UNL     1       3.953   3.296  19.471  0.00  0.00    +0.000 A 
ATOM      9  C   UNL     1       3.281   4.526  19.599  0.00  0.00    +0.000 A 
ENDROOT
BRANCH   1  14
ATOM     10  N   UNL     1       6.467   6.846  17.009  0.00  0.00    +0.000 NA
ATOM     11  C   UNL     1       6.568   5.640  16.168  0.00  0.00    +0.000 C 
ATOM     12  C   UNL     1       5.194   5.201  15.664  0.00  0.00    +0.000 C 
ATOM     13  C   UNL     1       4.266   4.886  16.828  0.00  0.00    +0.000 C 
ATOM     14  C   UNL     1       4.207   6.061  17.812  0.00  0.00    +0.000 C 
ATOM     15  C   UNL     1       5.606   6.578  18.186  0.00  0.00    +0.000 C 
BRANCH  10  17
ATOM     16  C   UNL     1       7.906   8.757  17.789  0.00  0.00    +0.000 C 
ATOM     17  C   UNL     1       7.787   7.266  17.521  0.00  0.00    +0.000 C 
ENDBRANCH  10  17
ENDBRANCH   1  14
BRANCH   2  18
ATOM     18  C   UNL     1       1.953   7.977  19.054  0.00  0.00    +0.000 A 
ATOM     19  C   UNL     1       2.485   8.696  17.973  0.00  0.00    +0.000 A 
ATOM     20  C   UNL     1       2.189  10.043  17.747  0.00  0.00    +0.000 A 
ATOM     21  C   UNL     1       1.295  10.703  18.570  0.00  0.00    +0.000 A 
ATOM     22  C   UNL     1       0.677  10.018  19.615  0.00  0.00    +0.000 A 
ATOM     23  C   UNL     1       0.999   8.661  19.834  0.00  0.00    +0.000 A 
BRANCH  22  24
ATOM     24  C   UNL     1      -0.283  10.770  20.432  0.00  0.00    +0.000 C 
ATOM     25  C   UNL     1      -0.861  11.913  20.040  0.00  0.00    +0.000 C 
BRANCH  25  26
ATOM     26  C   UNL     1      -1.877  12.562  20.904  0.00  0.00    +0.000 C 
ATOM     27  O   UNL     1      -1.968  12.381  22.117  0.00  0.00    +0.000 OA
ATOM     28  N   UNL     1      -2.731  13.364  20.197  0.00  0.00    +0.000 N 
ATOM     29  H   UNL     1      -2.727  13.497  19.193  0.00  0.00    +0.000 HD
BRANCH  28  30
ATOM     30  O   UNL     1      -3.779  13.967  20.925  0.00  0.00    +0.000 OA
ATOM     31  H   UNL     1      -4.385  13.210  21.080  0.00  0.00    +0.000 HD
ENDBRANCH  28  30
ENDBRANCH  25  26
ENDBRANCH  22  24
ENDBRANCH   2  18
TORSDOF 6
ENDMDL
MODEL 7
REMARK VINA RESULT:      -7.5      8.465     11.676
REMARK  Name = 
REMARK  7 active torsions:
REMARK  status: ('A' for Active; 'I' for Inactive)
REMARK    1  A    between atoms: C_1  and  C_2
REMARK    2  A    between atoms: C_2  and  N_3
REMARK    3  A    between atoms: C_7  and  N_8
REMARK    4  A    between atoms: C_9  and  C_10
REMARK    5  A    between atoms: C_14  and  C_15
REMARK    6  A    between atoms: C_16  and  C_17
REMARK    7  A    between atoms: N_19  and  O_20
REMARK                            x       y       z     vdW  Elec       q    Type
REMARK                         _______ _______ _______ _____ _____    ______ ____
ROOT
ATOM      1  N   UNL     1       0.076  11.881  19.481  0.00  0.00    +0.000 N 
ATOM      2  C   UNL     1      -0.990  12.513  18.825  0.00  0.00    +0.000 A 
ATOM      3  N   UNL     1      -0.735  13.816  18.764  0.00  0.00    +0.000 NA
ATOM      4  C   UNL     1       0.456  14.039  19.407  0.00  0.00    +0.000 A 
ATOM      5  C   UNL     1       1.166  15.239  19.597  0.00  0.00    +0.000 A 
ATOM      6  C   UNL     1       2.389  15.219  20.285  0.00  0.00    +0.000 A 
ATOM      7  C   UNL     1       2.870  14.033  20.823  0.00  0.00    +0.000 A 
ATOM      8  C   UNL     1       2.148  12.845  20.685  0.00  0.00    +0.000 A 
ATOM      9  C   UNL     1       0.965  12.853  19.922  0.00  0.00    +0.000 A 
ENDROOT
BRANCH   1  14
ATOM     10  N   UNL     1       1.464   8.300  19.205  0.00  0.00    +0.000 NA
ATOM     11  C   UNL     1       1.623   8.086  20.654  0.00  0.00    +0.000 C 
ATOM     12  C   UNL     1       0.429   8.642  21.429  0.00  0.00    +0.000 C 
ATOM     13  C   UNL     1       0.275  10.136  21.188  0.00  0.00    +0.000 C 
ATOM     14  C   UNL     1       0.224  10.445  19.686  0.00  0.00    +0.000 C 
ATOM     15  C   UNL     1       1.354   9.748  18.910  0.00  0.00    +0.000 C 
BRANCH  10  17
ATOM     16  C   UNL     1       2.601   6.286  18.215  0.00  0.00    +0.000 C 
ATOM     17  C   UNL     1       2.623   7.787  18.447  0.00  0.00    +0.000 C 
ENDBRANCH  10  17
ENDBRANCH   1  14
BRANCH   2  18
ATOM     18  C   UNL     1      -2.210  11.907  18.193  0.00  0.00    +0.000 A 
ATOM     19  C   UNL     1      -3.483  11.819  18.776  0.00  0.00    +0.000 A 
ATOM     20  C   UNL     1      -4.534  11.113  18.184  0.00  0.00    +0.000 A 
ATOM     21  C   UNL     1      -4.360  10.519  16.948  0.00  0.00    +0.000 A 
ATOM     22  C   UNL     1      -3.139  10.638  16.286  0.00  0.00    +0.000 A 
ATOM     23  C   UNL     1      -2.086  11.345  16.907  0.00  0.00    +0.000 A 
BRANCH  22  24
ATOM     24  C   UNL     1      -3.030  10.009  14.964  0.00  0.00    +0.000 C 
ATOM     25  C   UNL     1      -3.843  10.288  13.936  0.00  0.00    +0.000 C 
BRANCH  25  26
ATOM     26  C   UNL     1      -3.609   9.655  12.616  0.00  0.00    +0.000 C 
ATOM     27  O   UNL     1      -2.508   9.276  12.218  0.00  0.00    +0.000 OA
ATOM     28  N   UNL     1      -4.750   9.569  11.866  0.00  0.00    +0.000 N 
ATOM     29  H   UNL     1      -5.663   9.918  12.131  0.00  0.00    +0.000 HD
BRANCH  28  30
ATOM     30  O   UNL     1      -4.610   9.047  10.562  0.00  0.00    +0.000 OA
ATOM     31  H   UNL     1      -4.972   8.139  10.664  0.00  0.00    +0.000 HD
ENDBRANCH  28  30
ENDBRANCH  25  26
ENDBRANCH  22  24
ENDBRANCH   2  18
TORSDOF 6
ENDMDL
MODEL 8
REMARK VINA RESULT:      -7.5      4.633      7.497
REMARK  Name = 
REMARK  7 active torsions:
REMARK  status: ('A' for Active; 'I' for Inactive)
REMARK    1  A    between atoms: C_1  and  C_2
REMARK    2  A    between atoms: C_2  and  N_3
REMARK    3  A    between atoms: C_7  and  N_8
REMARK    4  A    between atoms: C_9  and  C_10
REMARK    5  A    between atoms: C_14  and  C_15
REMARK    6  A    between atoms: C_16  and  C_17
REMARK    7  A    between atoms: N_19  and  O_20
REMARK                            x       y       z     vdW  Elec       q    Type
REMARK                         _______ _______ _______ _____ _____    ______ ____
ROOT
ATOM      1  N   UNL     1       3.355   5.257  18.026  0.00  0.00    +0.000 N 
ATOM      2  C   UNL     1       2.341   5.980  18.671  0.00  0.00    +0.000 A 
ATOM      3  N   UNL     1       1.635   5.138  19.421  0.00  0.00    +0.000 NA
ATOM      4  C   UNL     1       2.151   3.881  19.236  0.00  0.00    +0.000 A 
ATOM      5  C   UNL     1       1.771   2.657  19.817  0.00  0.00    +0.000 A 
ATOM      6  C   UNL     1       2.465   1.485  19.481  0.00  0.00    +0.000 A 
ATOM      7  C   UNL     1       3.485   1.521  18.539  0.00  0.00    +0.000 A 
ATOM      8  C   UNL     1       3.837   2.721  17.918  0.00  0.00    +0.000 A 
ATOM      9  C   UNL     1       3.196   3.908  18.320  0.00  0.00    +0.000 A 
ENDROOT
BRANCH   1  14
ATOM     10  N   UNL     1       6.669   6.891  16.941  0.00  0.00    +0.000 NA
ATOM     11  C   UNL     1       7.045   5.843  15.975  0.00  0.00    +0.000 C 
ATOM     12  C   UNL     1       5.838   5.386  15.158  0.00  0.00    +0.000 C 
ATOM     13  C   UNL     1       4.754   4.822  16.064  0.00  0.00    +0.000 C 
ATOM     14  C   UNL     1       4.396   5.819  17.173  0.00  0.00    +0.000 C 
ATOM     15  C   UNL     1       5.643   6.376  17.879  0.00  0.00    +0.000 C 
BRANCH  10  17
ATOM     16  C   UNL     1       8.011   8.831  17.814  0.00  0.00    +0.000 C 
ATOM     17  C   UNL     1       7.824   7.325  17.752  0.00  0.00    +0.000 C 
ENDBRANCH  10  17
ENDBRANCH   1  14
BRANCH   2  18
ATOM     18  C   UNL     1       2.066   7.456  18.652  0.00  0.00    +0.000 A 
ATOM     19  C   UNL     1       2.343   8.332  17.592  0.00  0.00    +0.000 A 
ATOM     20  C   UNL     1       2.191   9.717  17.702  0.00  0.00    +0.000 A 
ATOM     21  C   UNL     1       1.694  10.269  18.868  0.00  0.00    +0.000 A 
ATOM     22  C   UNL     1       1.329   9.440  19.928  0.00  0.00    +0.000 A 
ATOM     23  C   UNL     1       1.503   8.044  19.802  0.00  0.00    +0.000 A 
BRANCH  22  24
ATOM     24  C   UNL     1       0.781  10.088  21.126  0.00  0.00    +0.000 C 
ATOM     25  C   UNL     1      -0.456  10.598  21.198  0.00  0.00    +0.000 C 
BRANCH  25  26
ATOM     26  C   UNL     1      -0.948  11.167  22.476  0.00  0.00    +0.000 C 
ATOM     27  O   UNL     1      -0.870  10.593  23.561  0.00  0.00    +0.000 OA
ATOM     28  N   UNL     1      -1.533  12.392  22.313  0.00  0.00    +0.000 N 
ATOM     29  H   UNL     1      -1.668  12.874  21.432  0.00  0.00    +0.000 HD
BRANCH  28  30
ATOM     30  O   UNL     1      -2.098  12.981  23.465  0.00  0.00    +0.000 OA
ATOM     31  H   UNL     1      -2.162  12.215  24.077  0.00  0.00    +0.000 HD
ENDBRANCH  28  30
ENDBRANCH  25  26
ENDBRANCH  22  24
ENDBRANCH   2  18
TORSDOF 6
ENDMDL
MODEL 9
REMARK VINA RESULT:      -7.4      4.202      5.673
REMARK  Name = 
REMARK  7 active torsions:
REMARK  status: ('A' for Active; 'I' for Inactive)
REMARK    1  A    between atoms: C_1  and  C_2
REMARK    2  A    between atoms: C_2  and  N_3
REMARK    3  A    between atoms: C_7  and  N_8
REMARK    4  A    between atoms: C_9  and  C_10
REMARK    5  A    between atoms: C_14  and  C_15
REMARK    6  A    between atoms: C_16  and  C_17
REMARK    7  A    between atoms: N_19  and  O_20
REMARK                            x       y       z     vdW  Elec       q    Type
REMARK                         _______ _______ _______ _____ _____    ______ ____
ROOT
ATOM      1  N   UNL     1       3.859   4.936  17.367  0.00  0.00    +0.000 N 
ATOM      2  C   UNL     1       3.822   6.309  17.649  0.00  0.00    +0.000 A 
ATOM      3  N   UNL     1       4.676   6.929  16.839  0.00  0.00    +0.000 NA
ATOM      4  C   UNL     1       5.291   5.975  16.071  0.00  0.00    +0.000 A 
ATOM      5  C   UNL     1       6.252   6.119  15.053  0.00  0.00    +0.000 A 
ATOM      6  C   UNL     1       6.733   4.983  14.387  0.00  0.00    +0.000 A 
ATOM      7  C   UNL     1       6.305   3.716  14.764  0.00  0.00    +0.000 A 
ATOM      8  C   UNL     1       5.389   3.557  15.807  0.00  0.00    +0.000 A 
ATOM      9  C   UNL     1       4.846   4.704  16.415  0.00  0.00    +0.000 A 
ENDROOT
BRANCH   1  14
ATOM     10  N   UNL     1       2.334   2.605  20.025  0.00  0.00    +0.000 NA
ATOM     11  C   UNL     1       0.934   3.002  19.790  0.00  0.00    +0.000 C 
ATOM     12  C   UNL     1       0.643   3.146  18.297  0.00  0.00    +0.000 C 
ATOM     13  C   UNL     1       1.543   4.200  17.669  0.00  0.00    +0.000 C 
ATOM     14  C   UNL     1       3.018   3.914  17.978  0.00  0.00    +0.000 C 
ATOM     15  C   UNL     1       3.254   3.626  19.470  0.00  0.00    +0.000 C 
BRANCH  10  17
ATOM     16  C   UNL     1       1.412   2.591  22.366  0.00  0.00    +0.000 C 
ATOM     17  C   UNL     1       2.632   2.486  21.467  0.00  0.00    +0.000 C 
ENDBRANCH  10  17
ENDBRANCH   1  14
BRANCH   2  18
ATOM     18  C   UNL     1       2.951   7.057  18.617  0.00  0.00    +0.000 A 
ATOM     19  C   UNL     1       2.540   6.601  19.878  0.00  0.00    +0.000 A 
ATOM     20  C   UNL     1       1.612   7.292  20.662  0.00  0.00    +0.000 A 
ATOM     21  C   UNL     1       1.108   8.505  20.230  0.00  0.00    +0.000 A 
ATOM     22  C   UNL     1       1.539   9.045  19.019  0.00  0.00    +0.000 A 
ATOM     23  C   UNL     1       2.467   8.324  18.236  0.00  0.00    +0.000 A 
BRANCH  22  24
ATOM     24  C   UNL     1       0.986  10.349  18.633  0.00  0.00    +0.000 C 
ATOM     25  C   UNL     1       0.771  11.352  19.495  0.00  0.00    +0.000 C 
BRANCH  25  26
ATOM     26  C   UNL     1       0.279  12.660  19.000  0.00  0.00    +0.000 C 
ATOM     27  O   UNL     1       0.878  13.358  18.183  0.00  0.00    +0.000 OA
ATOM     28  N   UNL     1      -0.904  13.028  19.578  0.00  0.00    +0.000 N 
ATOM     29  H   UNL     1      -1.402  12.512  20.294  0.00  0.00    +0.000 HD
BRANCH  28  30
ATOM     30  O   UNL     1      -1.414  14.296  19.222  0.00  0.00    +0.000 OA
ATOM     31  H   UNL     1      -0.922  14.893  19.827  0.00  0.00    +0.000 HD
ENDBRANCH  28  30
ENDBRANCH  25  26
ENDBRANCH  22  24
ENDBRANCH   2  18
TORSDOF 6
ENDMDL
