MODEL 1
REMARK VINA RESULT:      -8.0      0.000      0.000
REMARK  Name = 
REMARK  3 active torsions:
REMARK  status: ('A' for Active; 'I' for Inactive)
REMARK    1  A    between atoms: N_1  and  C_2
REMARK    2  A    between atoms: C_5  and  C_6
REMARK    3  A    between atoms: C_13  and  O_14
REMARK                            x       y       z     vdW  Elec       q    Type
REMARK                         _______ _______ _______ _____ _____    ______ ____
ROOT
ATOM      1  C   UNL     1       1.797   8.240  19.548  0.00  0.00    +0.000 A 
ATOM      2  C   UNL     1       2.018   8.870  18.301  0.00  0.00    +0.000 A 
ATOM      3  C   UNL     1       1.578  10.174  18.187  0.00  0.00    +0.000 A 
ATOM      4  N   UNL     1       2.286  11.263  17.737  0.00  0.00    +0.000 N 
ATOM      5  C   UNL     1       1.938  12.327  18.556  0.00  0.00    +0.000 A 
ATOM      6  C   UNL     1       2.699  13.376  19.052  0.00  0.00    +0.000 A 
ATOM      7  C   UNL     1       2.004  14.401  19.686  0.00  0.00    +0.000 A 
ATOM      8  C   UNL     1       0.613  14.377  19.734  0.00  0.00    +0.000 A 
ATOM      9  C   UNL     1      -0.116  13.232  19.407  0.00  0.00    +0.000 A 
ATOM     10  C   UNL     1       0.598  12.124  18.918  0.00  0.00    +0.000 A 
ATOM     11  C   UNL     1       0.499  10.716  18.848  0.00  0.00    +0.000 A 
ATOM     12  C   UNL     1       0.130  10.042  20.061  0.00  0.00    +0.000 A 
ATOM     13  C   UNL     1       1.045   9.010  20.455  0.00  0.00    +0.000 A 
ATOM     14  C   UNL     1       1.257   9.305  21.855  0.00  0.00    +0.000 C 
ATOM     15  O   UNL     1       2.267   9.396  22.544  0.00  0.00    +0.000 OA
ATOM     16  N   UNL     1       0.103   9.929  22.242  0.00  0.00    +0.000 N 
ATOM     17  C   UNL     1      -0.598  10.489  21.211  0.00  0.00    +0.000 C 
ATOM     18  O   UNL     1      -1.586  11.191  21.366  0.00  0.00    +0.000 OA
ATOM     19  H   UNL     1       3.193  11.183  17.311  0.00  0.00    +0.000 HD
ATOM     20  H   UNL     1       0.085  10.401  23.132  0.00  0.00    +0.000 HD
ENDROOT
BRANCH   1  24
ATOM     21  C   UNL     1       2.217   3.959  19.797  0.00  0.00    +0.000 A 
ATOM     22  C   UNL     1       1.502   4.694  20.724  0.00  0.00    +0.000 A 
ATOM     23  C   UNL     1       1.505   6.090  20.664  0.00  0.00    +0.000 A 
ATOM     24  C   UNL     1       2.234   6.838  19.677  0.00  0.00    +0.000 A 
ATOM     25  C   UNL     1       3.079   6.059  18.875  0.00  0.00    +0.000 A 
ATOM     26 BR   UNL     1       4.245   6.711  17.539  0.00  0.00    +0.000 Br
ATOM     27  C   UNL     1       3.087   4.652  18.958  0.00  0.00    +0.000 A 
BRANCH  21  28
ATOM     28  N   UNL     1       2.227   2.564  19.823  0.00  0.00    +0.000 N 
ATOM     29  H   UNL     1       3.129   2.170  20.083  0.00  0.00    +0.000 HD
ATOM     30  H   UNL     1       1.474   2.162  20.380  0.00  0.00    +0.000 HD
ENDBRANCH  21  28
ENDBRANCH   1  24
BRANCH   8  31
ATOM     31  O   UNL     1      -0.071  15.488  20.137  0.00  0.00    +0.000 OA
ATOM     32  H   UNL     1      -0.807  15.622  19.516  0.00  0.00    +0.000 HD
ENDBRANCH   8  31
TORSDOF 3
ENDMDL
MODEL 2
REMARK VINA RESULT:      -7.1      8.184      9.877
REMARK  Name = 
REMARK  3 active torsions:
REMARK  status: ('A' for Active; 'I' for Inactive)
REMARK    1  A    between atoms: N_1  and  C_2
REMARK    2  A    between atoms: C_5  and  C_6
REMARK    3  A    between atoms: C_13  and  O_14
REMARK                            x       y       z     vdW  Elec       q    Type
REMARK                         _______ _______ _______ _____ _____    ______ ____
ROOT
ATOM      1  C   UNL     1       8.208  13.251  22.449  0.00  0.00    +0.000 A 
ATOM      2  C   UNL     1       9.223  12.368  22.014  0.00  0.00    +0.000 A 
ATOM      3  C   UNL     1       9.747  12.606  20.759  0.00  0.00    +0.000 A 
ATOM      4  N   UNL     1      11.072  12.713  20.408  0.00  0.00    +0.000 N 
ATOM      5  C   UNL     1      11.156  13.747  19.486  0.00  0.00    +0.000 A 
ATOM      6  C   UNL     1      12.128  14.718  19.299  0.00  0.00    +0.000 A 
ATOM      7  C   UNL     1      12.018  15.494  18.150  0.00  0.00    +0.000 A 
ATOM      8  C   UNL     1      11.014  15.229  17.222  0.00  0.00    +0.000 A 
ATOM      9  C   UNL     1       9.939  14.388  17.518  0.00  0.00    +0.000 A 
ATOM     10  C   UNL     1       9.958  13.721  18.756  0.00  0.00    +0.000 A 
ATOM     11  C   UNL     1       9.066  13.162  19.699  0.00  0.00    +0.000 A 
ATOM     12  C   UNL     1       7.935  13.968  20.061  0.00  0.00    +0.000 A 
ATOM     13  C   UNL     1       7.798  14.179  21.473  0.00  0.00    +0.000 A 
ATOM     14  C   UNL     1       7.585  15.608  21.551  0.00  0.00    +0.000 C 
ATOM     15  O   UNL     1       8.079  16.488  22.246  0.00  0.00    +0.000 OA
ATOM     16  N   UNL     1       7.007  15.924  20.353  0.00  0.00    +0.000 N 
ATOM     17  C   UNL     1       7.252  15.016  19.361  0.00  0.00    +0.000 C 
ATOM     18  O   UNL     1       6.927  15.181  18.195  0.00  0.00    +0.000 OA
ATOM     19  H   UNL     1      11.821  12.491  21.041  0.00  0.00    +0.000 HD
ATOM     20  H   UNL     1       6.935  16.895  20.092  0.00  0.00    +0.000 HD
ENDROOT
BRANCH   1  24
ATOM     21  C   UNL     1       6.781  11.674  26.196  0.00  0.00    +0.000 A 
ATOM     22  C   UNL     1       6.295  11.249  24.974  0.00  0.00    +0.000 A 
ATOM     23  C   UNL     1       6.703  11.884  23.798  0.00  0.00    +0.000 A 
ATOM     24  C   UNL     1       7.617  12.993  23.774  0.00  0.00    +0.000 A 
ATOM     25  C   UNL     1       7.941  13.497  25.041  0.00  0.00    +0.000 A 
ATOM     26 BR   UNL     1       9.039  14.995  25.387  0.00  0.00    +0.000 Br
ATOM     27  C   UNL     1       7.506  12.863  26.222  0.00  0.00    +0.000 A 
BRANCH  21  28
ATOM     28  N   UNL     1       6.401  11.055  27.387  0.00  0.00    +0.000 N 
ATOM     29  H   UNL     1       5.427  10.759  27.397  0.00  0.00    +0.000 HD
ATOM     30  H   UNL     1       7.021  10.296  27.667  0.00  0.00    +0.000 HD
ENDBRANCH  21  28
ENDBRANCH   1  24
BRANCH   8  31
ATOM     31  O   UNL     1      11.052  15.825  15.994  0.00  0.00    +0.000 OA
ATOM     32  H   UNL     1      11.533  16.665  16.090  0.00  0.00    +0.000 HD
ENDBRANCH   8  31
TORSDOF 3
ENDMDL
MODEL 3
REMARK VINA RESULT:      -7.1      7.844      9.778
REMARK  Name = 
REMARK  3 active torsions:
REMARK  status: ('A' for Active; 'I' for Inactive)
REMARK    1  A    between atoms: N_1  and  C_2
REMARK    2  A    between atoms: C_5  and  C_6
REMARK    3  A    between atoms: C_13  and  O_14
REMARK                            x       y       z     vdW  Elec       q    Type
REMARK                         _______ _______ _______ _____ _____    ______ ____
ROOT
ATOM      1  C   UNL     1       9.033  13.259  20.777  0.00  0.00    +0.000 A 
ATOM      2  C   UNL     1       9.475  12.270  21.684  0.00  0.00    +0.000 A 
ATOM      3  C   UNL     1       9.037  12.393  22.988  0.00  0.00    +0.000 A 
ATOM      4  N   UNL     1       8.446  11.430  23.770  0.00  0.00    +0.000 N 
ATOM      5  C   UNL     1       7.435  12.062  24.481  0.00  0.00    +0.000 A 
ATOM      6  C   UNL     1       6.172  11.621  24.846  0.00  0.00    +0.000 A 
ATOM      7  C   UNL     1       5.467  12.424  25.737  0.00  0.00    +0.000 A 
ATOM      8  C   UNL     1       6.063  13.564  26.270  0.00  0.00    +0.000 A 
ATOM      9  C   UNL     1       7.245  14.092  25.747  0.00  0.00    +0.000 A 
ATOM     10  C   UNL     1       7.883  13.368  24.724  0.00  0.00    +0.000 A 
ATOM     11  C   UNL     1       8.748  13.578  23.626  0.00  0.00    +0.000 A 
ATOM     12  C   UNL     1       8.419  14.672  22.756  0.00  0.00    +0.000 A 
ATOM     13  C   UNL     1       8.301  14.301  21.375  0.00  0.00    +0.000 A 
ATOM     14  C   UNL     1       7.051  14.924  20.996  0.00  0.00    +0.000 C 
ATOM     15  O   UNL     1       6.065  14.516  20.394  0.00  0.00    +0.000 OA
ATOM     16  N   UNL     1       6.945  15.996  21.838  0.00  0.00    +0.000 N 
ATOM     17  C   UNL     1       7.680  15.878  22.984  0.00  0.00    +0.000 C 
ATOM     18  O   UNL     1       7.623  16.671  23.912  0.00  0.00    +0.000 OA
ATOM     19  H   UNL     1       8.390  10.464  23.495  0.00  0.00    +0.000 HD
ATOM     20  H   UNL     1       6.063  16.480  21.896  0.00  0.00    +0.000 HD
ENDROOT
BRANCH   1  24
ATOM     21  C   UNL     1      11.196  13.294  17.050  0.00  0.00    +0.000 A 
ATOM     22  C   UNL     1      10.866  14.449  17.732  0.00  0.00    +0.000 A 
ATOM     23  C   UNL     1      10.056  14.386  18.868  0.00  0.00    +0.000 A 
ATOM     24  C   UNL     1       9.517  13.159  19.387  0.00  0.00    +0.000 A 
ATOM     25  C   UNL     1       9.732  12.044  18.566  0.00  0.00    +0.000 A 
ATOM     26 BR   UNL     1       9.094  10.295  18.887  0.00  0.00    +0.000 Br
ATOM     27  C   UNL     1      10.532  12.123  17.408  0.00  0.00    +0.000 A 
BRANCH  21  28
ATOM     28  N   UNL     1      12.011  13.322  15.918  0.00  0.00    +0.000 N 
ATOM     29  H   UNL     1      11.526  13.057  15.063  0.00  0.00    +0.000 HD
ATOM     30  H   UNL     1      12.514  14.201  15.800  0.00  0.00    +0.000 HD
ENDBRANCH  21  28
ENDBRANCH   1  24
BRANCH   8  31
ATOM     31  O   UNL     1       5.470  14.212  27.316  0.00  0.00    +0.000 OA
ATOM     32  H   UNL     1       6.177  14.538  27.899  0.00  0.00    +0.000 HD
ENDBRANCH   8  31
TORSDOF 3
ENDMDL
MODEL 4
REMARK VINA RESULT:      -7.1      1.880      3.438
REMARK  Name = 
REMARK  3 active torsions:
REMARK  status: ('A' for Active; 'I' for Inactive)
REMARK    1  A    between atoms: N_1  and  C_2
REMARK    2  A    between atoms: C_5  and  C_6
REMARK    3  A    between atoms: C_13  and  O_14
REMARK                            x       y       z     vdW  Elec       q    Type
REMARK                         _______ _______ _______ _____ _____    ______ ____
ROOT
ATOM      1  C   UNL     1       1.160   8.816  20.506  0.00  0.00    +0.000 A 
ATOM      2  C   UNL     1       0.965   9.014  21.892  0.00  0.00    +0.000 A 
ATOM      3  C   UNL     1       0.470  10.246  22.271  0.00  0.00    +0.000 A 
ATOM      4  N   UNL     1      -0.601  10.504  23.095  0.00  0.00    +0.000 N 
ATOM      5  C   UNL     1      -1.279  11.578  22.537  0.00  0.00    +0.000 A 
ATOM      6  C   UNL     1      -2.637  11.849  22.457  0.00  0.00    +0.000 A 
ATOM      7  C   UNL     1      -2.992  13.118  22.011  0.00  0.00    +0.000 A 
ATOM      8  C   UNL     1      -2.007  14.064  21.740  0.00  0.00    +0.000 A 
ATOM      9  C   UNL     1      -0.658  13.715  21.638  0.00  0.00    +0.000 A 
ATOM     10  C   UNL     1      -0.307  12.385  21.928  0.00  0.00    +0.000 A 
ATOM     11  C   UNL     1       0.690  11.434  21.612  0.00  0.00    +0.000 A 
ATOM     12  C   UNL     1       1.029  11.304  20.223  0.00  0.00    +0.000 A 
ATOM     13  C   UNL     1       0.931   9.963  19.724  0.00  0.00    +0.000 A 
ATOM     14  C   UNL     1       0.180  10.145  18.501  0.00  0.00    +0.000 C 
ATOM     15  O   UNL     1      -0.794   9.572  18.027  0.00  0.00    +0.000 OA
ATOM     16  N   UNL     1       0.482  11.421  18.112  0.00  0.00    +0.000 N 
ATOM     17  C   UNL     1       0.919  12.222  19.129  0.00  0.00    +0.000 C 
ATOM     18  O   UNL     1       1.120  13.422  19.009  0.00  0.00    +0.000 OA
ATOM     19  H   UNL     1      -1.065   9.786  23.623  0.00  0.00    +0.000 HD
ATOM     20  H   UNL     1      -0.070  11.847  17.384  0.00  0.00    +0.000 HD
ENDROOT
BRANCH   1  24
ATOM     21  C   UNL     1       1.944   4.749  19.317  0.00  0.00    +0.000 A 
ATOM     22  C   UNL     1       1.467   5.081  20.571  0.00  0.00    +0.000 A 
ATOM     23  C   UNL     1       1.351   6.422  20.944  0.00  0.00    +0.000 A 
ATOM     24  C   UNL     1       1.716   7.516  20.086  0.00  0.00    +0.000 A 
ATOM     25  C   UNL     1       2.355   7.128  18.901  0.00  0.00    +0.000 A 
ATOM     26 BR   UNL     1       3.047   8.294  17.585  0.00  0.00    +0.000 Br
ATOM     27  C   UNL     1       2.488   5.771  18.543  0.00  0.00    +0.000 A 
BRANCH  21  28
ATOM     28  N   UNL     1       2.062   3.419  18.909  0.00  0.00    +0.000 N 
ATOM     29  H   UNL     1       2.557   2.833  19.578  0.00  0.00    +0.000 HD
ATOM     30  H   UNL     1       1.175   2.998  18.634  0.00  0.00    +0.000 HD
ENDBRANCH  21  28
ENDBRANCH   1  24
BRANCH   8  31
ATOM     31  O   UNL     1      -2.357  15.368  21.537  0.00  0.00    +0.000 OA
ATOM     32  H   UNL     1      -1.627  15.922  21.864  0.00  0.00    +0.000 HD
ENDBRANCH   8  31
TORSDOF 3
ENDMDL
MODEL 5
REMARK VINA RESULT:      -7.0      4.951      7.100
REMARK  Name = 
REMARK  3 active torsions:
REMARK  status: ('A' for Active; 'I' for Inactive)
REMARK    1  A    between atoms: N_1  and  C_2
REMARK    2  A    between atoms: C_5  and  C_6
REMARK    3  A    between atoms: C_13  and  O_14
REMARK                            x       y       z     vdW  Elec       q    Type
REMARK                         _______ _______ _______ _____ _____    ______ ____
ROOT
ATOM      1  C   UNL     1      -1.798  11.949  22.509  0.00  0.00    +0.000 A 
ATOM      2  C   UNL     1      -2.406  11.744  23.768  0.00  0.00    +0.000 A 
ATOM      3  C   UNL     1      -3.459  12.579  24.084  0.00  0.00    +0.000 A 
ATOM      4  N   UNL     1      -4.708  12.223  24.536  0.00  0.00    +0.000 N 
ATOM      5  C   UNL     1      -5.614  13.055  23.895  0.00  0.00    +0.000 A 
ATOM      6  C   UNL     1      -6.887  12.803  23.405  0.00  0.00    +0.000 A 
ATOM      7  C   UNL     1      -7.624  13.909  22.993  0.00  0.00    +0.000 A 
ATOM      8  C   UNL     1      -7.106  15.191  23.150  0.00  0.00    +0.000 A 
ATOM      9  C   UNL     1      -5.761  15.411  23.458  0.00  0.00    +0.000 A 
ATOM     10  C   UNL     1      -4.961  14.283  23.716  0.00  0.00    +0.000 A 
ATOM     11  C   UNL     1      -3.609  13.877  23.650  0.00  0.00    +0.000 A 
ATOM     12  C   UNL     1      -2.906  14.198  22.441  0.00  0.00    +0.000 A 
ATOM     13  C   UNL     1      -2.288  13.067  21.810  0.00  0.00    +0.000 A 
ATOM     14  C   UNL     1      -2.705  13.220  20.433  0.00  0.00    +0.000 C 
ATOM     15  O   UNL     1      -3.183  12.442  19.615  0.00  0.00    +0.000 OA
ATOM     16  N   UNL     1      -2.891  14.567  20.289  0.00  0.00    +0.000 N 
ATOM     17  C   UNL     1      -3.115  15.226  21.465  0.00  0.00    +0.000 C 
ATOM     18  O   UNL     1      -3.423  16.406  21.534  0.00  0.00    +0.000 OA
ATOM     19  H   UNL     1      -4.938  11.284  24.813  0.00  0.00    +0.000 HD
ATOM     20  H   UNL     1      -3.366  14.904  19.465  0.00  0.00    +0.000 HD
ENDROOT
BRANCH   1  24
ATOM     21  C   UNL     1       0.926   8.836  21.303  0.00  0.00    +0.000 A 
ATOM     22  C   UNL     1       0.094   8.715  22.400  0.00  0.00    +0.000 A 
ATOM     23  C   UNL     1      -0.676   9.804  22.818  0.00  0.00    +0.000 A 
ATOM     24  C   UNL     1      -0.652  11.085  22.168  0.00  0.00    +0.000 A 
ATOM     25  C   UNL     1       0.331  11.209  21.177  0.00  0.00    +0.000 A 
ATOM     26 BR   UNL     1       0.707  12.770  20.181  0.00  0.00    +0.000 Br
ATOM     27  C   UNL     1       1.120  10.111  20.778  0.00  0.00    +0.000 A 
BRANCH  21  28
ATOM     28  N   UNL     1       1.700   7.765  20.853  0.00  0.00    +0.000 N 
ATOM     29  H   UNL     1       2.116   7.221  21.607  0.00  0.00    +0.000 HD
ATOM     30  H   UNL     1       1.215   7.164  20.188  0.00  0.00    +0.000 HD
ENDBRANCH  21  28
ENDBRANCH   1  24
BRANCH   8  31
ATOM     31  O   UNL     1      -7.916  16.276  22.972  0.00  0.00    +0.000 OA
ATOM     32  H   UNL     1      -7.414  17.065  23.241  0.00  0.00    +0.000 HD
ENDBRANCH   8  31
TORSDOF 3
ENDMDL
MODEL 6
REMARK VINA RESULT:      -7.0      7.098      9.898
REMARK  Name = 
REMARK  3 active torsions:
REMARK  status: ('A' for Active; 'I' for Inactive)
REMARK    1  A    between atoms: N_1  and  C_2
REMARK    2  A    between atoms: C_5  and  C_6
REMARK    3  A    between atoms: C_13  and  O_14
REMARK                            x       y       z     vdW  Elec       q    Type
REMARK                         _______ _______ _______ _____ _____    ______ ____
ROOT
ATOM      1  C   UNL     1       5.839  15.250  19.027  0.00  0.00    +0.000 A 
ATOM      2  C   UNL     1       6.163  14.751  17.744  0.00  0.00    +0.000 A 
ATOM      3  C   UNL     1       7.408  14.169  17.610  0.00  0.00    +0.000 A 
ATOM      4  N   UNL     1       7.707  12.940  17.070  0.00  0.00    +0.000 N 
ATOM      5  C   UNL     1       8.697  12.387  17.869  0.00  0.00    +0.000 A 
ATOM      6  C   UNL     1       8.912  11.076  18.270  0.00  0.00    +0.000 A 
ATOM      7  C   UNL     1      10.118  10.812  18.911  0.00  0.00    +0.000 A 
ATOM      8  C   UNL     1      11.067  11.821  19.055  0.00  0.00    +0.000 A 
ATOM      9  C   UNL     1      10.758  13.163  18.825  0.00  0.00    +0.000 A 
ATOM     10  C   UNL     1       9.475  13.459  18.331  0.00  0.00    +0.000 A 
ATOM     11  C   UNL     1       8.534  14.513  18.323  0.00  0.00    +0.000 A 
ATOM     12  C   UNL     1       8.282  15.151  19.584  0.00  0.00    +0.000 A 
ATOM     13  C   UNL     1       6.896  15.184  19.953  0.00  0.00    +0.000 A 
ATOM     14  C   UNL     1       6.932  14.719  21.322  0.00  0.00    +0.000 C 
ATOM     15  O   UNL     1       6.282  13.880  21.936  0.00  0.00    +0.000 OA
ATOM     16  N   UNL     1       8.174  15.082  21.764  0.00  0.00    +0.000 N 
ATOM     17  C   UNL     1       9.086  15.274  20.764  0.00  0.00    +0.000 C 
ATOM     18  O   UNL     1      10.274  15.481  20.959  0.00  0.00    +0.000 OA
ATOM     19  H   UNL     1       7.028  12.379  16.585  0.00  0.00    +0.000 HD
ATOM     20  H   UNL     1       8.508  14.698  22.635  0.00  0.00    +0.000 HD
ENDROOT
BRANCH   1  24
ATOM     21  C   UNL     1       1.750  16.370  19.797  0.00  0.00    +0.000 A 
ATOM     22  C   UNL     1       2.098  15.417  18.858  0.00  0.00    +0.000 A 
ATOM     23  C   UNL     1       3.444  15.185  18.561  0.00  0.00    +0.000 A 
ATOM     24  C   UNL     1       4.525  15.902  19.180  0.00  0.00    +0.000 A 
ATOM     25  C   UNL     1       4.117  16.971  19.989  0.00  0.00    +0.000 A 
ATOM     26 BR   UNL     1       5.261  18.178  20.885  0.00  0.00    +0.000 Br
ATOM     27  C   UNL     1       2.756  17.212  20.264  0.00  0.00    +0.000 A 
BRANCH  21  28
ATOM     28  N   UNL     1       0.416  16.618  20.123  0.00  0.00    +0.000 N 
ATOM     29  H   UNL     1       0.068  16.033  20.880  0.00  0.00    +0.000 HD
ATOM     30  H   UNL     1       0.217  17.603  20.297  0.00  0.00    +0.000 HD
ENDBRANCH  21  28
ENDBRANCH   1  24
BRANCH   8  31
ATOM     31  O   UNL     1      12.333  11.507  19.462  0.00  0.00    +0.000 OA
ATOM     32  H   UNL     1      12.260  10.811  20.137  0.00  0.00    +0.000 HD
ENDBRANCH   8  31
TORSDOF 3
ENDMDL
MODEL 7
REMARK VINA RESULT:      -6.9      6.814      9.634
REMARK  Name = 
REMARK  3 active torsions:
REMARK  status: ('A' for Active; 'I' for Inactive)
REMARK    1  A    between atoms: N_1  and  C_2
REMARK    2  A    between atoms: C_5  and  C_6
REMARK    3  A    between atoms: C_13  and  O_14
REMARK                            x       y       z     vdW  Elec       q    Type
REMARK                         _______ _______ _______ _____ _____    ______ ____
ROOT
ATOM      1  C   UNL     1       5.375  15.012  19.126  0.00  0.00    +0.000 A 
ATOM      2  C   UNL     1       5.721  14.591  17.822  0.00  0.00    +0.000 A 
ATOM      3  C   UNL     1       7.029  14.189  17.635  0.00  0.00    +0.000 A 
ATOM      4  N   UNL     1       7.476  13.026  17.054  0.00  0.00    +0.000 N 
ATOM      5  C   UNL     1       8.560  12.598  17.807  0.00  0.00    +0.000 A 
ATOM      6  C   UNL     1       8.966  11.321  18.167  0.00  0.00    +0.000 A 
ATOM      7  C   UNL     1      10.218  11.213  18.763  0.00  0.00    +0.000 A 
ATOM      8  C   UNL     1      11.024  12.340  18.905  0.00  0.00    +0.000 A 
ATOM      9  C   UNL     1      10.525  13.631  18.720  0.00  0.00    +0.000 A 
ATOM     10  C   UNL     1       9.197  13.757  18.273  0.00  0.00    +0.000 A 
ATOM     11  C   UNL     1       8.121  14.671  18.322  0.00  0.00    +0.000 A 
ATOM     12  C   UNL     1       7.826  15.240  19.606  0.00  0.00    +0.000 A 
ATOM     13  C   UNL     1       6.462  15.073  20.018  0.00  0.00    +0.000 A 
ATOM     14  C   UNL     1       6.608  14.588  21.373  0.00  0.00    +0.000 C 
ATOM     15  O   UNL     1       6.101  13.655  21.984  0.00  0.00    +0.000 OA
ATOM     16  N   UNL     1       7.803  15.109  21.786  0.00  0.00    +0.000 N 
ATOM     17  C   UNL     1       8.645  15.448  20.763  0.00  0.00    +0.000 C 
ATOM     18  O   UNL     1       9.799  15.813  20.928  0.00  0.00    +0.000 OA
ATOM     19  H   UNL     1       6.864  12.387  16.576  0.00  0.00    +0.000 HD
ATOM     20  H   UNL     1       8.216  14.757  22.636  0.00  0.00    +0.000 HD
ENDROOT
BRANCH   1  24
ATOM     21  C   UNL     1       1.577  17.044  19.244  0.00  0.00    +0.000 A 
ATOM     22  C   UNL     1       2.720  17.566  19.818  0.00  0.00    +0.000 A 
ATOM     23  C   UNL     1       3.893  16.807  19.859  0.00  0.00    +0.000 A 
ATOM     24  C   UNL     1       3.990  15.472  19.337  0.00  0.00    +0.000 A 
ATOM     25  C   UNL     1       2.766  14.925  18.928  0.00  0.00    +0.000 A 
ATOM     26 BR   UNL     1       2.502  13.173  18.273  0.00  0.00    +0.000 Br
ATOM     27  C   UNL     1       1.583  15.691  18.911  0.00  0.00    +0.000 A 
BRANCH  21  28
ATOM     28  N   UNL     1       0.393  17.779  19.177  0.00  0.00    +0.000 N 
ATOM     29  H   UNL     1       0.141  18.223  20.058  0.00  0.00    +0.000 HD
ATOM     30  H   UNL     1       0.372  18.448  18.408  0.00  0.00    +0.000 HD
ENDBRANCH  21  28
ENDBRANCH   1  24
BRANCH   8  31
ATOM     31  O   UNL     1      12.333  12.196  19.264  0.00  0.00    +0.000 OA
ATOM     32  H   UNL     1      12.546  11.247  19.223  0.00  0.00    +0.000 HD
ENDBRANCH   8  31
TORSDOF 3
ENDMDL
MODEL 8
REMARK VINA RESULT:      -6.9      2.301      3.862
REMARK  Name = 
REMARK  3 active torsions:
REMARK  status: ('A' for Active; 'I' for Inactive)
REMARK    1  A    between atoms: N_1  and  C_2
REMARK    2  A    between atoms: C_5  and  C_6
REMARK    3  A    between atoms: C_13  and  O_14
REMARK                            x       y       z     vdW  Elec       q    Type
REMARK                         _______ _______ _______ _____ _____    ______ ____
ROOT
ATOM      1  C   UNL     1       0.681   9.665  20.458  0.00  0.00    +0.000 A 
ATOM      2  C   UNL     1       0.612  10.049  21.816  0.00  0.00    +0.000 A 
ATOM      3  C   UNL     1      -0.053  11.228  22.087  0.00  0.00    +0.000 A 
ATOM      4  N   UNL     1      -1.051  11.437  23.010  0.00  0.00    +0.000 N 
ATOM      5  C   UNL     1      -1.974  12.281  22.410  0.00  0.00    +0.000 A 
ATOM      6  C   UNL     1      -3.359  12.310  22.485  0.00  0.00    +0.000 A 
ATOM      7  C   UNL     1      -3.989  13.415  21.921  0.00  0.00    +0.000 A 
ATOM      8  C   UNL     1      -3.231  14.453  21.386  0.00  0.00    +0.000 A 
ATOM      9  C   UNL     1      -1.862  14.318  21.145  0.00  0.00    +0.000 A 
ATOM     10  C   UNL     1      -1.242  13.127  21.564  0.00  0.00    +0.000 A 
ATOM     11  C   UNL     1      -0.131  12.314  21.245  0.00  0.00    +0.000 A 
ATOM     12  C   UNL     1       0.065  12.020  19.854  0.00  0.00    +0.000 A 
ATOM     13  C   UNL     1       0.158  10.618  19.564  0.00  0.00    +0.000 A 
ATOM     14  C   UNL     1      -0.748  10.475  18.445  0.00  0.00    +0.000 C 
ATOM     15  O   UNL     1      -1.648   9.681  18.198  0.00  0.00    +0.000 OA
ATOM     16  N   UNL     1      -0.732  11.704  17.846  0.00  0.00    +0.000 N 
ATOM     17  C   UNL     1      -0.335  12.719  18.670  0.00  0.00    +0.000 C 
ATOM     18  O   UNL     1      -0.373  13.900  18.358  0.00  0.00    +0.000 OA
ATOM     19  H   UNL     1      -1.313  10.747  23.692  0.00  0.00    +0.000 HD
ATOM     20  H   UNL     1      -1.432  11.911  17.150  0.00  0.00    +0.000 HD
ENDROOT
BRANCH   1  24
ATOM     21  C   UNL     1       2.031   5.655  19.641  0.00  0.00    +0.000 A 
ATOM     22  C   UNL     1       1.531   6.038  20.871  0.00  0.00    +0.000 A 
ATOM     23  C   UNL     1       1.227   7.379  21.117  0.00  0.00    +0.000 A 
ATOM     24  C   UNL     1       1.414   8.423  20.148  0.00  0.00    +0.000 A 
ATOM     25  C   UNL     1       2.084   8.015  18.986  0.00  0.00    +0.000 A 
ATOM     26 BR   UNL     1       2.577   9.132  17.544  0.00  0.00    +0.000 Br
ATOM     27  C   UNL     1       2.408   6.663  18.757  0.00  0.00    +0.000 A 
BRANCH  21  28
ATOM     28  N   UNL     1       2.335   4.322  19.359  0.00  0.00    +0.000 N 
ATOM     29  H   UNL     1       2.276   4.094  18.369  0.00  0.00    +0.000 HD
ATOM     30  H   UNL     1       3.222   4.015  19.757  0.00  0.00    +0.000 HD
ENDBRANCH  21  28
ENDBRANCH   1  24
BRANCH   8  31
ATOM     31  O   UNL     1      -3.835  15.632  21.056  0.00  0.00    +0.000 OA
ATOM     32  H   UNL     1      -4.081  16.079  21.885  0.00  0.00    +0.000 HD
ENDBRANCH   8  31
TORSDOF 3
ENDMDL
MODEL 9
REMARK VINA RESULT:      -6.8      5.136      7.049
REMARK  Name = 
REMARK  3 active torsions:
REMARK  status: ('A' for Active; 'I' for Inactive)
REMARK    1  A    between atoms: N_1  and  C_2
REMARK    2  A    between atoms: C_5  and  C_6
REMARK    3  A    between atoms: C_13  and  O_14
REMARK                            x       y       z     vdW  Elec       q    Type
REMARK                         _______ _______ _______ _____ _____    ______ ____
ROOT
ATOM      1  C   UNL     1      -3.227  12.276  19.684  0.00  0.00    +0.000 A 
ATOM      2  C   UNL     1      -4.515  12.509  20.218  0.00  0.00    +0.000 A 
ATOM      3  C   UNL     1      -4.574  13.278  21.364  0.00  0.00    +0.000 A 
ATOM      4  N   UNL     1      -5.367  14.377  21.598  0.00  0.00    +0.000 N 
ATOM      5  C   UNL     1      -4.583  15.291  22.288  0.00  0.00    +0.000 A 
ATOM      6  C   UNL     1      -4.526  16.675  22.214  0.00  0.00    +0.000 A 
ATOM      7  C   UNL     1      -3.773  17.319  23.190  0.00  0.00    +0.000 A 
ATOM      8  C   UNL     1      -3.185  16.584  24.216  0.00  0.00    +0.000 A 
ATOM      9  C   UNL     1      -3.089  15.192  24.165  0.00  0.00    +0.000 A 
ATOM     10  C   UNL     1      -3.710  14.537  23.085  0.00  0.00    +0.000 A 
ATOM     11  C   UNL     1      -3.599  13.345  22.334  0.00  0.00    +0.000 A 
ATOM     12  C   UNL     1      -2.280  12.989  21.894  0.00  0.00    +0.000 A 
ATOM     13  C   UNL     1      -2.177  12.770  20.480  0.00  0.00    +0.000 A 
ATOM     14  C   UNL     1      -1.007  13.546  20.133  0.00  0.00    +0.000 C 
ATOM     15  O   UNL     1      -0.778  14.360  19.246  0.00  0.00    +0.000 OA
ATOM     16  N   UNL     1      -0.262  13.554  21.280  0.00  0.00    +0.000 N 
ATOM     17  C   UNL     1      -0.986  13.315  22.415  0.00  0.00    +0.000 C 
ATOM     18  O   UNL     1      -0.526  13.401  23.543  0.00  0.00    +0.000 OA
ATOM     19  H   UNL     1      -6.103  14.659  20.974  0.00  0.00    +0.000 HD
ATOM     20  H   UNL     1       0.516  14.193  21.347  0.00  0.00    +0.000 HD
ENDROOT
BRANCH   1  24
ATOM     21  C   UNL     1      -3.096  10.571  15.729  0.00  0.00    +0.000 A 
ATOM     22  C   UNL     1      -4.230  11.167  16.247  0.00  0.00    +0.000 A 
ATOM     23  C   UNL     1      -4.254  11.590  17.579  0.00  0.00    +0.000 A 
ATOM     24  C   UNL     1      -3.144  11.431  18.478  0.00  0.00    +0.000 A 
ATOM     25  C   UNL     1      -2.090  10.667  17.960  0.00  0.00    +0.000 A 
ATOM     26 BR   UNL     1      -0.516  10.184  18.887  0.00  0.00    +0.000 Br
ATOM     27  C   UNL     1      -2.085  10.226  16.622  0.00  0.00    +0.000 A 
BRANCH  21  28
ATOM     28  N   UNL     1      -3.037  10.148  14.400  0.00  0.00    +0.000 N 
ATOM     29  H   UNL     1      -2.611   9.230  14.287  0.00  0.00    +0.000 HD
ATOM     30  H   UNL     1      -3.932  10.202  13.916  0.00  0.00    +0.000 HD
ENDBRANCH  21  28
ENDBRANCH   1  24
BRANCH   8  31
ATOM     31  O   UNL     1      -2.656  17.231  25.295  0.00  0.00    +0.000 OA
ATOM     32  H   UNL     1      -1.756  16.887  25.432  0.00  0.00    +0.000 HD
ENDBRANCH   8  31
TORSDOF 3
ENDMDL
