MODEL 1
REMARK VINA RESULT:      -8.8      0.000      0.000
REMARK  Name = 
REMARK  5 active torsions:
REMARK  status: ('A' for Active; 'I' for Inactive)
REMARK    1  A    between atoms: C_2  and  C_15
REMARK    2  A    between atoms: N_3  and  C_4
REMARK    3  A    between atoms: C_7  and  N_8
REMARK    4  A    between atoms: C_19  and  S_20
REMARK    5  A    between atoms: S_20  and  N_23
REMARK                            x       y       z     vdW  Elec       q    Type
REMARK                         _______ _______ _______ _____ _____    ______ ____
ROOT
ATOM      1  O   UNL     1       8.325   6.748  18.945  0.00  0.00    +0.000 OA
ATOM      2  C   UNL     1       7.706   7.135  17.960  0.00  0.00    +0.000 C 
ATOM      3  N   UNL     1       7.682   8.420  17.440  0.00  0.00    +0.000 N 
ATOM      4  H   UNL     1       7.021   8.612  16.698  0.00  0.00    +0.000 HD
ENDROOT
BRANCH   3   5
ATOM      5  C   UNL     1       8.333   9.537  18.012  0.00  0.00    +0.000 A 
ATOM      6  C   UNL     1       9.086   9.455  19.186  0.00  0.00    +0.000 A 
ATOM      7  C   UNL     1       9.655  10.591  19.768  0.00  0.00    +0.000 A 
ATOM      8  C   UNL     1       9.482  11.841  19.174  0.00  0.00    +0.000 A 
ATOM      9  C   UNL     1       8.751  11.938  17.980  0.00  0.00    +0.000 A 
ATOM     10  C   UNL     1       8.194  10.787  17.398  0.00  0.00    +0.000 A 
BRANCH   8  11
ATOM     11  N   UNL     1      10.036  12.998  19.776  0.00  0.00    +0.000 N 
ATOM     12  C   UNL     1       9.870  13.475  21.052  0.00  0.00    +0.000 A 
ATOM     13  N   UNL     1      10.548  14.590  21.194  0.00  0.00    +0.000 NA
ATOM     14  N   UNL     1      11.153  14.809  19.982  0.00  0.00    +0.000 NA
ATOM     15  N   UNL     1      10.858  13.848  19.120  0.00  0.00    +0.000 NA
ENDBRANCH   8  11
ENDBRANCH   3   5
BRANCH   2  16
ATOM     16  C   UNL     1       6.821   6.142  17.310  0.00  0.00    +0.000 A 
ATOM     17  C   UNL     1       6.787   5.974  15.922  0.00  0.00    +0.000 A 
ATOM     18  C   UNL     1       5.972   4.980  15.373  0.00  0.00    +0.000 A 
ATOM     19  C   UNL     1       5.196   4.168  16.208  0.00  0.00    +0.000 A 
ATOM     20  C   UNL     1       5.236   4.342  17.599  0.00  0.00    +0.000 A 
ATOM     21  C   UNL     1       6.047   5.327  18.153  0.00  0.00    +0.000 A 
BRANCH  20  22
ATOM     22  S   UNL     1       4.168   3.322  18.590  0.00  0.00    +0.000 S 
ATOM     23  O   UNL     1       3.677   2.297  17.690  0.00  0.00    +0.000 OA
ATOM     24  O   UNL     1       4.902   2.979  19.785  0.00  0.00    +0.000 OA
BRANCH  22  25
ATOM     25  N   UNL     1       2.837   4.294  19.036  0.00  0.00    +0.000 NA
ATOM     26  C   UNL     1       2.695   4.630  20.493  0.00  0.00    +0.000 C 
ATOM     27  C   UNL     1       2.033   3.487  21.281  0.00  0.00    +0.000 C 
ATOM     28  O   UNL     1       0.778   3.094  20.705  0.00  0.00    +0.000 OA
ATOM     29  C   UNL     1       0.936   2.696  19.335  0.00  0.00    +0.000 C 
ATOM     30  C   UNL     1       1.508   3.846  18.502  0.00  0.00    +0.000 C 
ENDBRANCH  22  25
ENDBRANCH  20  22
ENDBRANCH   2  16
TORSDOF 5
ENDMDL
MODEL 2
REMARK VINA RESULT:      -8.7      1.175      1.518
REMARK  Name = 
REMARK  5 active torsions:
REMARK  status: ('A' for Active; 'I' for Inactive)
REMARK    1  A    between atoms: C_2  and  C_15
REMARK    2  A    between atoms: N_3  and  C_4
REMARK    3  A    between atoms: C_7  and  N_8
REMARK    4  A    between atoms: C_19  and  S_20
REMARK    5  A    between atoms: S_20  and  N_23
REMARK                            x       y       z     vdW  Elec       q    Type
REMARK                         _______ _______ _______ _____ _____    ______ ____
ROOT
ATOM      1  O   UNL     1       8.276   6.808  18.882  0.00  0.00    +0.000 OA
ATOM      2  C   UNL     1       7.672   7.219  17.897  0.00  0.00    +0.000 C 
ATOM      3  N   UNL     1       7.665   8.515  17.403  0.00  0.00    +0.000 N 
ATOM      4  H   UNL     1       7.014   8.727  16.657  0.00  0.00    +0.000 HD
ENDROOT
BRANCH   3   5
ATOM      5  C   UNL     1       8.318   9.615  18.004  0.00  0.00    +0.000 A 
ATOM      6  C   UNL     1       9.040   9.507  19.195  0.00  0.00    +0.000 A 
ATOM      7  C   UNL     1       9.611  10.627  19.805  0.00  0.00    +0.000 A 
ATOM      8  C   UNL     1       9.472  11.888  19.222  0.00  0.00    +0.000 A 
ATOM      9  C   UNL     1       8.772  12.010  18.012  0.00  0.00    +0.000 A 
ATOM     10  C   UNL     1       8.212  10.875  17.402  0.00  0.00    +0.000 A 
BRANCH   8  11
ATOM     11  N   UNL     1      10.028  13.028  19.852  0.00  0.00    +0.000 N 
ATOM     12  C   UNL     1      10.826  14.010  19.319  0.00  0.00    +0.000 A 
ATOM     13  N   UNL     1      11.136  14.876  20.254  0.00  0.00    +0.000 NA
ATOM     14  N   UNL     1      10.513  14.428  21.392  0.00  0.00    +0.000 NA
ATOM     15  N   UNL     1       9.833  13.317  21.158  0.00  0.00    +0.000 NA
ENDBRANCH   8  11
ENDBRANCH   3   5
BRANCH   2  16
ATOM     16  C   UNL     1       6.786   6.247  17.218  0.00  0.00    +0.000 A 
ATOM     17  C   UNL     1       7.177   5.571  16.057  0.00  0.00    +0.000 A 
ATOM     18  C   UNL     1       6.319   4.622  15.496  0.00  0.00    +0.000 A 
ATOM     19  C   UNL     1       5.079   4.360  16.089  0.00  0.00    +0.000 A 
ATOM     20  C   UNL     1       4.694   5.041  17.252  0.00  0.00    +0.000 A 
ATOM     21  C   UNL     1       5.544   5.985  17.819  0.00  0.00    +0.000 A 
BRANCH  20  22
ATOM     22  S   UNL     1       3.073   4.708  17.907  0.00  0.00    +0.000 S 
ATOM     23  O   UNL     1       2.409   5.996  17.952  0.00  0.00    +0.000 OA
ATOM     24  O   UNL     1       2.528   3.611  17.144  0.00  0.00    +0.000 OA
BRANCH  22  25
ATOM     25  N   UNL     1       3.293   4.188  19.518  0.00  0.00    +0.000 NA
ATOM     26  C   UNL     1       3.294   2.706  19.762  0.00  0.00    +0.000 C 
ATOM     27  C   UNL     1       1.867   2.139  19.850  0.00  0.00    +0.000 C 
ATOM     28  O   UNL     1       1.072   2.834  20.822  0.00  0.00    +0.000 OA
ATOM     29  C   UNL     1       1.009   4.238  20.535  0.00  0.00    +0.000 C 
ATOM     30  C   UNL     1       2.410   4.853  20.533  0.00  0.00    +0.000 C 
ENDBRANCH  22  25
ENDBRANCH  20  22
ENDBRANCH   2  16
TORSDOF 5
ENDMDL
MODEL 3
REMARK VINA RESULT:      -8.5      5.855      8.133
REMARK  Name = 
REMARK  5 active torsions:
REMARK  status: ('A' for Active; 'I' for Inactive)
REMARK    1  A    between atoms: C_2  and  C_15
REMARK    2  A    between atoms: N_3  and  C_4
REMARK    3  A    between atoms: C_7  and  N_8
REMARK    4  A    between atoms: C_19  and  S_20
REMARK    5  A    between atoms: S_20  and  N_23
REMARK                            x       y       z     vdW  Elec       q    Type
REMARK                         _______ _______ _______ _____ _____    ______ ____
ROOT
ATOM      1  O   UNL     1       2.136   8.342  19.448  0.00  0.00    +0.000 OA
ATOM      2  C   UNL     1       1.608   7.542  20.212  0.00  0.00    +0.000 C 
ATOM      3  N   UNL     1       0.688   7.824  21.210  0.00  0.00    +0.000 N 
ATOM      4  H   UNL     1       0.441   7.074  21.844  0.00  0.00    +0.000 HD
ENDROOT
BRANCH   3   5
ATOM      5  C   UNL     1       0.245   9.120  21.562  0.00  0.00    +0.000 A 
ATOM      6  C   UNL     1       0.569  10.257  20.818  0.00  0.00    +0.000 A 
ATOM      7  C   UNL     1       0.180  11.534  21.233  0.00  0.00    +0.000 A 
ATOM      8  C   UNL     1      -0.553  11.694  22.409  0.00  0.00    +0.000 A 
ATOM      9  C   UNL     1      -0.910  10.559  23.154  0.00  0.00    +0.000 A 
ATOM     10  C   UNL     1      -0.522   9.280  22.722  0.00  0.00    +0.000 A 
BRANCH   8  11
ATOM     11  N   UNL     1      -0.926  12.989  22.845  0.00  0.00    +0.000 N 
ATOM     12  C   UNL     1      -2.122  13.418  23.365  0.00  0.00    +0.000 A 
ATOM     13  N   UNL     1      -2.052  14.702  23.622  0.00  0.00    +0.000 NA
ATOM     14  N   UNL     1      -0.783  15.081  23.259  0.00  0.00    +0.000 NA
ATOM     15  N   UNL     1      -0.092  14.052  22.797  0.00  0.00    +0.000 NA
ENDBRANCH   8  11
ENDBRANCH   3   5
BRANCH   2  16
ATOM     16  C   UNL     1       2.069   6.139  20.115  0.00  0.00    +0.000 A 
ATOM     17  C   UNL     1       1.476   5.109  20.853  0.00  0.00    +0.000 A 
ATOM     18  C   UNL     1       1.920   3.796  20.674  0.00  0.00    +0.000 A 
ATOM     19  C   UNL     1       2.950   3.521  19.767  0.00  0.00    +0.000 A 
ATOM     20  C   UNL     1       3.539   4.558  19.031  0.00  0.00    +0.000 A 
ATOM     21  C   UNL     1       3.102   5.867  19.201  0.00  0.00    +0.000 A 
BRANCH  20  22
ATOM     22  S   UNL     1       4.893   4.142  17.953  0.00  0.00    +0.000 S 
ATOM     23  O   UNL     1       6.078   4.222  18.784  0.00  0.00    +0.000 OA
ATOM     24  O   UNL     1       4.533   2.917  17.279  0.00  0.00    +0.000 OA
BRANCH  22  25
ATOM     25  N   UNL     1       4.995   5.387  16.791  0.00  0.00    +0.000 NA
ATOM     26  C   UNL     1       5.397   4.991  15.399  0.00  0.00    +0.000 C 
ATOM     27  C   UNL     1       6.922   4.839  15.266  0.00  0.00    +0.000 C 
ATOM     28  O   UNL     1       7.619   6.015  15.701  0.00  0.00    +0.000 OA
ATOM     29  C   UNL     1       7.291   6.341  17.060  0.00  0.00    +0.000 C 
ATOM     30  C   UNL     1       5.788   6.591  17.208  0.00  0.00    +0.000 C 
ENDBRANCH  22  25
ENDBRANCH  20  22
ENDBRANCH   2  16
TORSDOF 5
ENDMDL
MODEL 4
REMARK VINA RESULT:      -8.4      1.015      1.620
REMARK  Name = 
REMARK  5 active torsions:
REMARK  status: ('A' for Active; 'I' for Inactive)
REMARK    1  A    between atoms: C_2  and  C_15
REMARK    2  A    between atoms: N_3  and  C_4
REMARK    3  A    between atoms: C_7  and  N_8
REMARK    4  A    between atoms: C_19  and  S_20
REMARK    5  A    between atoms: S_20  and  N_23
REMARK                            x       y       z     vdW  Elec       q    Type
REMARK                         _______ _______ _______ _____ _____    ______ ____
ROOT
ATOM      1  O   UNL     1       8.062   6.676  19.027  0.00  0.00    +0.000 OA
ATOM      2  C   UNL     1       7.589   6.983  17.938  0.00  0.00    +0.000 C 
ATOM      3  N   UNL     1       7.629   8.228  17.331  0.00  0.00    +0.000 N 
ATOM      4  H   UNL     1       7.082   8.357  16.489  0.00  0.00    +0.000 HD
ENDROOT
BRANCH   3   5
ATOM      5  C   UNL     1       8.180   9.395  17.910  0.00  0.00    +0.000 A 
ATOM      6  C   UNL     1       8.023  10.664  17.348  0.00  0.00    +0.000 A 
ATOM      7  C   UNL     1       8.642  11.788  17.901  0.00  0.00    +0.000 A 
ATOM      8  C   UNL     1       9.432  11.659  19.043  0.00  0.00    +0.000 A 
ATOM      9  C   UNL     1       9.579  10.396  19.637  0.00  0.00    +0.000 A 
ATOM     10  C   UNL     1       8.943   9.275  19.078  0.00  0.00    +0.000 A 
BRANCH   8  11
ATOM     11  N   UNL     1      10.082  12.793  19.591  0.00  0.00    +0.000 N 
ATOM     12  C   UNL     1      10.859  13.734  18.964  0.00  0.00    +0.000 A 
ATOM     13  N   UNL     1      11.283  14.609  19.845  0.00  0.00    +0.000 NA
ATOM     14  N   UNL     1      10.754  14.207  21.047  0.00  0.00    +0.000 NA
ATOM     15  N   UNL     1      10.019  13.116  20.903  0.00  0.00    +0.000 NA
ENDBRANCH   8  11
ENDBRANCH   3   5
BRANCH   2  16
ATOM     16  C   UNL     1       6.817   5.931  17.238  0.00  0.00    +0.000 A 
ATOM     17  C   UNL     1       7.253   5.365  16.035  0.00  0.00    +0.000 A 
ATOM     18  C   UNL     1       6.509   4.335  15.454  0.00  0.00    +0.000 A 
ATOM     19  C   UNL     1       5.337   3.882  16.071  0.00  0.00    +0.000 A 
ATOM     20  C   UNL     1       4.907   4.453  17.277  0.00  0.00    +0.000 A 
ATOM     21  C   UNL     1       5.643   5.477  17.863  0.00  0.00    +0.000 A 
BRANCH  20  22
ATOM     22  S   UNL     1       3.370   3.876  17.963  0.00  0.00    +0.000 S 
ATOM     23  O   UNL     1       2.384   4.865  17.574  0.00  0.00    +0.000 OA
ATOM     24  O   UNL     1       3.232   2.491  17.579  0.00  0.00    +0.000 OA
BRANCH  22  25
ATOM     25  N   UNL     1       3.532   3.952  19.660  0.00  0.00    +0.000 NA
ATOM     26  C   UNL     1       3.358   2.668  20.420  0.00  0.00    +0.000 C 
ATOM     27  C   UNL     1       1.875   2.334  20.648  0.00  0.00    +0.000 C 
ATOM     28  O   UNL     1       1.170   3.417  21.274  0.00  0.00    +0.000 OA
ATOM     29  C   UNL     1       1.272   4.620  20.499  0.00  0.00    +0.000 C 
ATOM     30  C   UNL     1       2.737   5.033  20.332  0.00  0.00    +0.000 C 
ENDBRANCH  22  25
ENDBRANCH  20  22
ENDBRANCH   2  16
TORSDOF 5
ENDMDL
MODEL 5
REMARK VINA RESULT:      -8.2      5.870      7.709
REMARK  Name = 
REMARK  5 active torsions:
REMARK  status: ('A' for Active; 'I' for Inactive)
REMARK    1  A    between atoms: C_2  and  C_15
REMARK    2  A    between atoms: N_3  and  C_4
REMARK    3  A    between atoms: C_7  and  N_8
REMARK    4  A    between atoms: C_19  and  S_20
REMARK    5  A    between atoms: S_20  and  N_23
REMARK                            x       y       z     vdW  Elec       q    Type
REMARK                         _______ _______ _______ _____ _____    ______ ____
ROOT
ATOM      1  O   UNL     1       1.510   8.291  21.551  0.00  0.00    +0.000 OA
ATOM      2  C   UNL     1       1.642   7.931  20.386  0.00  0.00    +0.000 C 
ATOM      3  N   UNL     1       1.428   8.692  19.248  0.00  0.00    +0.000 N 
ATOM      4  H   UNL     1       1.453   8.216  18.354  0.00  0.00    +0.000 HD
ENDROOT
BRANCH   3   5
ATOM      5  C   UNL     1       0.949  10.023  19.240  0.00  0.00    +0.000 A 
ATOM      6  C   UNL     1       1.680  11.085  18.701  0.00  0.00    +0.000 A 
ATOM      7  C   UNL     1       1.215  12.401  18.776  0.00  0.00    +0.000 A 
ATOM      8  C   UNL     1      -0.006  12.677  19.393  0.00  0.00    +0.000 A 
ATOM      9  C   UNL     1      -0.765  11.619  19.916  0.00  0.00    +0.000 A 
ATOM     10  C   UNL     1      -0.292  10.298  19.825  0.00  0.00    +0.000 A 
BRANCH   8  11
ATOM     11  N   UNL     1      -0.467  14.013  19.493  0.00  0.00    +0.000 N 
ATOM     12  C   UNL     1      -0.079  15.120  18.780  0.00  0.00    +0.000 A 
ATOM     13  N   UNL     1      -0.746  16.168  19.201  0.00  0.00    +0.000 NA
ATOM     14  N   UNL     1      -1.572  15.703  20.195  0.00  0.00    +0.000 NA
ATOM     15  N   UNL     1      -1.418  14.400  20.372  0.00  0.00    +0.000 NA
ENDBRANCH   8  11
ENDBRANCH   3   5
BRANCH   2  16
ATOM     16  C   UNL     1       1.980   6.505  20.175  0.00  0.00    +0.000 A 
ATOM     17  C   UNL     1       1.222   5.472  20.735  0.00  0.00    +0.000 A 
ATOM     18  C   UNL     1       1.558   4.145  20.451  0.00  0.00    +0.000 A 
ATOM     19  C   UNL     1       2.646   3.860  19.618  0.00  0.00    +0.000 A 
ATOM     20  C   UNL     1       3.400   4.901  19.060  0.00  0.00    +0.000 A 
ATOM     21  C   UNL     1       3.071   6.224  19.336  0.00  0.00    +0.000 A 
BRANCH  20  22
ATOM     22  S   UNL     1       4.813   4.461  18.071  0.00  0.00    +0.000 S 
ATOM     23  O   UNL     1       5.946   4.537  18.972  0.00  0.00    +0.000 OA
ATOM     24  O   UNL     1       4.482   3.233  17.388  0.00  0.00    +0.000 OA
BRANCH  22  25
ATOM     25  N   UNL     1       4.999   5.694  16.906  0.00  0.00    +0.000 NA
ATOM     26  C   UNL     1       5.376   5.267  15.515  0.00  0.00    +0.000 C 
ATOM     27  C   UNL     1       6.887   5.014  15.385  0.00  0.00    +0.000 C 
ATOM     28  O   UNL     1       7.660   6.143  15.818  0.00  0.00    +0.000 OA
ATOM     29  C   UNL     1       7.353   6.494  17.175  0.00  0.00    +0.000 C 
ATOM     30  C   UNL     1       5.870   6.843  17.321  0.00  0.00    +0.000 C 
ENDBRANCH  22  25
ENDBRANCH  20  22
ENDBRANCH   2  16
TORSDOF 5
ENDMDL
MODEL 6
REMARK VINA RESULT:      -8.2      6.151      7.444
REMARK  Name = 
REMARK  5 active torsions:
REMARK  status: ('A' for Active; 'I' for Inactive)
REMARK    1  A    between atoms: C_2  and  C_15
REMARK    2  A    between atoms: N_3  and  C_4
REMARK    3  A    between atoms: C_7  and  N_8
REMARK    4  A    between atoms: C_19  and  S_20
REMARK    5  A    between atoms: S_20  and  N_23
REMARK                            x       y       z     vdW  Elec       q    Type
REMARK                         _______ _______ _______ _____ _____    ______ ____
ROOT
ATOM      1  O   UNL     1       2.012   9.555  17.568  0.00  0.00    +0.000 OA
ATOM      2  C   UNL     1       1.692   9.313  18.726  0.00  0.00    +0.000 C 
ATOM      3  N   UNL     1       1.157  10.200  19.647  0.00  0.00    +0.000 N 
ATOM      4  H   UNL     1       1.066   9.883  20.605  0.00  0.00    +0.000 HD
ENDROOT
BRANCH   3   5
ATOM      5  C   UNL     1       0.945  11.579  19.417  0.00  0.00    +0.000 A 
ATOM      6  C   UNL     1      -0.137  12.064  18.678  0.00  0.00    +0.000 A 
ATOM      7  C   UNL     1      -0.279  13.427  18.402  0.00  0.00    +0.000 A 
ATOM      8  C   UNL     1       0.668  14.337  18.872  0.00  0.00    +0.000 A 
ATOM      9  C   UNL     1       1.747  13.870  19.639  0.00  0.00    +0.000 A 
ATOM     10  C   UNL     1       1.873  12.499  19.919  0.00  0.00    +0.000 A 
BRANCH   8  11
ATOM     11  N   UNL     1       0.541  15.716  18.572  0.00  0.00    +0.000 N 
ATOM     12  C   UNL     1      -0.596  16.478  18.464  0.00  0.00    +0.000 A 
ATOM     13  N   UNL     1      -0.268  17.710  18.152  0.00  0.00    +0.000 NA
ATOM     14  N   UNL     1       1.103  17.717  18.071  0.00  0.00    +0.000 NA
ATOM     15  N   UNL     1       1.602  16.519  18.332  0.00  0.00    +0.000 NA
ENDBRANCH   8  11
ENDBRANCH   3   5
BRANCH   2  16
ATOM     16  C   UNL     1       1.993   7.950  19.219  0.00  0.00    +0.000 A 
ATOM     17  C   UNL     1       1.451   7.454  20.409  0.00  0.00    +0.000 A 
ATOM     18  C   UNL     1       1.728   6.138  20.791  0.00  0.00    +0.000 A 
ATOM     19  C   UNL     1       2.544   5.332  19.989  0.00  0.00    +0.000 A 
ATOM     20  C   UNL     1       3.083   5.836  18.797  0.00  0.00    +0.000 A 
ATOM     21  C   UNL     1       2.810   7.143  18.409  0.00  0.00    +0.000 A 
BRANCH  20  22
ATOM     22  S   UNL     1       4.170   4.777  17.868  0.00  0.00    +0.000 S 
ATOM     23  O   UNL     1       4.851   3.968  18.860  0.00  0.00    +0.000 OA
ATOM     24  O   UNL     1       3.378   4.171  16.825  0.00  0.00    +0.000 OA
BRANCH  22  25
ATOM     25  N   UNL     1       5.336   5.788  17.141  0.00  0.00    +0.000 NA
ATOM     26  C   UNL     1       5.629   5.556  15.685  0.00  0.00    +0.000 C 
ATOM     27  C   UNL     1       6.612   4.393  15.478  0.00  0.00    +0.000 C 
ATOM     28  O   UNL     1       7.818   4.567  16.237  0.00  0.00    +0.000 OA
ATOM     29  C   UNL     1       7.536   4.706  17.637  0.00  0.00    +0.000 C 
ATOM     30  C   UNL     1       6.631   5.915  17.888  0.00  0.00    +0.000 C 
ENDBRANCH  22  25
ENDBRANCH  20  22
ENDBRANCH   2  16
TORSDOF 5
ENDMDL
MODEL 7
REMARK VINA RESULT:      -8.2      6.193      7.440
REMARK  Name = 
REMARK  5 active torsions:
REMARK  status: ('A' for Active; 'I' for Inactive)
REMARK    1  A    between atoms: C_2  and  C_15
REMARK    2  A    between atoms: N_3  and  C_4
REMARK    3  A    between atoms: C_7  and  N_8
REMARK    4  A    between atoms: C_19  and  S_20
REMARK    5  A    between atoms: S_20  and  N_23
REMARK                            x       y       z     vdW  Elec       q    Type
REMARK                         _______ _______ _______ _____ _____    ______ ____
ROOT
ATOM      1  O   UNL     1       2.033   9.502  17.395  0.00  0.00    +0.000 OA
ATOM      2  C   UNL     1       1.759   9.328  18.577  0.00  0.00    +0.000 C 
ATOM      3  N   UNL     1       1.297  10.278  19.475  0.00  0.00    +0.000 N 
ATOM      4  H   UNL     1       1.239  10.011  20.451  0.00  0.00    +0.000 HD
ENDROOT
BRANCH   3   5
ATOM      5  C   UNL     1       1.122  11.651  19.186  0.00  0.00    +0.000 A 
ATOM      6  C   UNL     1       2.188  12.500  18.878  0.00  0.00    +0.000 A 
ATOM      7  C   UNL     1       1.993  13.868  18.671  0.00  0.00    +0.000 A 
ATOM      8  C   UNL     1       0.712  14.414  18.763  0.00  0.00    +0.000 A 
ATOM      9  C   UNL     1      -0.374  13.570  19.045  0.00  0.00    +0.000 A 
ATOM     10  C   UNL     1      -0.167  12.194  19.241  0.00  0.00    +0.000 A 
BRANCH   8  11
ATOM     11  N   UNL     1       0.516  15.804  18.579  0.00  0.00    +0.000 N 
ATOM     12  C   UNL     1       1.444  16.788  18.348  0.00  0.00    +0.000 A 
ATOM     13  N   UNL     1       0.839  17.948  18.255  0.00  0.00    +0.000 NA
ATOM     14  N   UNL     1      -0.497  17.681  18.427  0.00  0.00    +0.000 NA
ATOM     15  N   UNL     1      -0.704  16.387  18.614  0.00  0.00    +0.000 NA
ENDBRANCH   8  11
ENDBRANCH   3   5
BRANCH   2  16
ATOM     16  C   UNL     1       2.036   7.981  19.123  0.00  0.00    +0.000 A 
ATOM     17  C   UNL     1       1.465   7.532  20.319  0.00  0.00    +0.000 A 
ATOM     18  C   UNL     1       1.720   6.228  20.752  0.00  0.00    +0.000 A 
ATOM     19  C   UNL     1       2.544   5.386  19.996  0.00  0.00    +0.000 A 
ATOM     20  C   UNL     1       3.113   5.843  18.799  0.00  0.00    +0.000 A 
ATOM     21  C   UNL     1       2.861   7.138  18.360  0.00  0.00    +0.000 A 
BRANCH  20  22
ATOM     22  S   UNL     1       4.208   4.741  17.931  0.00  0.00    +0.000 S 
ATOM     23  O   UNL     1       4.908   4.008  18.966  0.00  0.00    +0.000 OA
ATOM     24  O   UNL     1       3.416   4.058  16.936  0.00  0.00    +0.000 OA
BRANCH  22  25
ATOM     25  N   UNL     1       5.354   5.720  17.130  0.00  0.00    +0.000 NA
ATOM     26  C   UNL     1       5.632   5.404  15.688  0.00  0.00    +0.000 C 
ATOM     27  C   UNL     1       6.628   4.241  15.539  0.00  0.00    +0.000 C 
ATOM     28  O   UNL     1       7.840   4.474  16.272  0.00  0.00    +0.000 OA
ATOM     29  C   UNL     1       7.571   4.695  17.665  0.00  0.00    +0.000 C 
ATOM     30  C   UNL     1       6.655   5.906  17.853  0.00  0.00    +0.000 C 
ENDBRANCH  22  25
ENDBRANCH  20  22
ENDBRANCH   2  16
TORSDOF 5
ENDMDL
MODEL 8
REMARK VINA RESULT:      -8.2      0.977      1.506
REMARK  Name = 
REMARK  5 active torsions:
REMARK  status: ('A' for Active; 'I' for Inactive)
REMARK    1  A    between atoms: C_2  and  C_15
REMARK    2  A    between atoms: N_3  and  C_4
REMARK    3  A    between atoms: C_7  and  N_8
REMARK    4  A    between atoms: C_19  and  S_20
REMARK    5  A    between atoms: S_20  and  N_23
REMARK                            x       y       z     vdW  Elec       q    Type
REMARK                         _______ _______ _______ _____ _____    ______ ____
ROOT
ATOM      1  O   UNL     1       8.136   6.680  18.987  0.00  0.00    +0.000 OA
ATOM      2  C   UNL     1       7.585   6.984  17.935  0.00  0.00    +0.000 C 
ATOM      3  N   UNL     1       7.565   8.233  17.335  0.00  0.00    +0.000 N 
ATOM      4  H   UNL     1       6.959   8.358  16.533  0.00  0.00    +0.000 HD
ENDROOT
BRANCH   3   5
ATOM      5  C   UNL     1       8.136   9.406  17.882  0.00  0.00    +0.000 A 
ATOM      6  C   UNL     1       7.906  10.677  17.350  0.00  0.00    +0.000 A 
ATOM      7  C   UNL     1       8.544  11.808  17.865  0.00  0.00    +0.000 A 
ATOM      8  C   UNL     1       9.429  11.685  18.937  0.00  0.00    +0.000 A 
ATOM      9  C   UNL     1       9.650  10.418  19.501  0.00  0.00    +0.000 A 
ATOM     10  C   UNL     1       8.994   9.290  18.981  0.00  0.00    +0.000 A 
BRANCH   8  11
ATOM     11  N   UNL     1      10.096  12.826  19.445  0.00  0.00    +0.000 N 
ATOM     12  C   UNL     1      11.437  13.019  19.667  0.00  0.00    +0.000 A 
ATOM     13  N   UNL     1      11.630  14.218  20.164  0.00  0.00    +0.000 NA
ATOM     14  N   UNL     1      10.384  14.786  20.248  0.00  0.00    +0.000 NA
ATOM     15  N   UNL     1       9.451  13.958  19.807  0.00  0.00    +0.000 NA
ENDBRANCH   8  11
ENDBRANCH   3   5
BRANCH   2  16
ATOM     16  C   UNL     1       6.783   5.924  17.284  0.00  0.00    +0.000 A 
ATOM     17  C   UNL     1       6.956   5.583  15.938  0.00  0.00    +0.000 A 
ATOM     18  C   UNL     1       6.208   4.533  15.397  0.00  0.00    +0.000 A 
ATOM     19  C   UNL     1       5.294   3.838  16.197  0.00  0.00    +0.000 A 
ATOM     20  C   UNL     1       5.127   4.185  17.545  0.00  0.00    +0.000 A 
ATOM     21  C   UNL     1       5.869   5.226  18.091  0.00  0.00    +0.000 A 
BRANCH  20  22
ATOM     22  S   UNL     1       3.894   3.305  18.478  0.00  0.00    +0.000 S 
ATOM     23  O   UNL     1       3.725   2.041  17.789  0.00  0.00    +0.000 OA
ATOM     24  O   UNL     1       4.300   3.354  19.863  0.00  0.00    +0.000 OA
BRANCH  22  25
ATOM     25  N   UNL     1       2.437   4.179  18.312  0.00  0.00    +0.000 NA
ATOM     26  C   UNL     1       2.538   5.678  18.301  0.00  0.00    +0.000 C 
ATOM     27  C   UNL     1       2.639   6.255  19.723  0.00  0.00    +0.000 C 
ATOM     28  O   UNL     1       1.565   5.805  20.563  0.00  0.00    +0.000 OA
ATOM     29  C   UNL     1       1.526   4.372  20.634  0.00  0.00    +0.000 C 
ATOM     30  C   UNL     1       1.333   3.767  19.241  0.00  0.00    +0.000 C 
ENDBRANCH  22  25
ENDBRANCH  20  22
ENDBRANCH   2  16
TORSDOF 5
ENDMDL
MODEL 9
REMARK VINA RESULT:      -8.2      0.869      1.176
REMARK  Name = 
REMARK  5 active torsions:
REMARK  status: ('A' for Active; 'I' for Inactive)
REMARK    1  A    between atoms: C_2  and  C_15
REMARK    2  A    between atoms: N_3  and  C_4
REMARK    3  A    between atoms: C_7  and  N_8
REMARK    4  A    between atoms: C_19  and  S_20
REMARK    5  A    between atoms: S_20  and  N_23
REMARK                            x       y       z     vdW  Elec       q    Type
REMARK                         _______ _______ _______ _____ _____    ______ ____
ROOT
ATOM      1  O   UNL     1       8.213   6.684  19.028  0.00  0.00    +0.000 OA
ATOM      2  C   UNL     1       7.576   7.045  18.045  0.00  0.00    +0.000 C 
ATOM      3  N   UNL     1       7.561   8.309  17.477  0.00  0.00    +0.000 N 
ATOM      4  H   UNL     1       6.884   8.486  16.745  0.00  0.00    +0.000 HD
ENDROOT
BRANCH   3   5
ATOM      5  C   UNL     1       8.246   9.435  17.988  0.00  0.00    +0.000 A 
ATOM      6  C   UNL     1       9.047   9.378  19.132  0.00  0.00    +0.000 A 
ATOM      7  C   UNL     1       9.651  10.523  19.657  0.00  0.00    +0.000 A 
ATOM      8  C   UNL     1       9.466  11.759  19.035  0.00  0.00    +0.000 A 
ATOM      9  C   UNL     1       8.687  11.830  17.870  0.00  0.00    +0.000 A 
ATOM     10  C   UNL     1       8.094  10.669  17.345  0.00  0.00    +0.000 A 
BRANCH   8  11
ATOM     11  N   UNL     1      10.056  12.926  19.580  0.00  0.00    +0.000 N 
ATOM     12  C   UNL     1      11.149  13.630  19.140  0.00  0.00    +0.000 A 
ATOM     13  N   UNL     1      11.371  14.641  19.947  0.00  0.00    +0.000 NA
ATOM     14  N   UNL     1      10.391  14.568  20.907  0.00  0.00    +0.000 NA
ATOM     15  N   UNL     1       9.586  13.540  20.689  0.00  0.00    +0.000 NA
ENDBRANCH   8  11
ENDBRANCH   3   5
BRANCH   2  16
ATOM     16  C   UNL     1       6.656   6.045  17.457  0.00  0.00    +0.000 A 
ATOM     17  C   UNL     1       6.439   5.956  16.077  0.00  0.00    +0.000 A 
ATOM     18  C   UNL     1       5.604   4.953  15.579  0.00  0.00    +0.000 A 
ATOM     19  C   UNL     1       4.988   4.053  16.456  0.00  0.00    +0.000 A 
ATOM     20  C   UNL     1       5.211   4.147  17.837  0.00  0.00    +0.000 A 
ATOM     21  C   UNL     1       6.043   5.141  18.340  0.00  0.00    +0.000 A 
BRANCH  20  22
ATOM     22  S   UNL     1       4.337   3.014  18.895  0.00  0.00    +0.000 S 
ATOM     23  O   UNL     1       3.843   1.975  18.013  0.00  0.00    +0.000 OA
ATOM     24  O   UNL     1       5.215   2.705  19.998  0.00  0.00    +0.000 OA
BRANCH  22  25
ATOM     25  N   UNL     1       2.983   3.857  19.504  0.00  0.00    +0.000 NA
ATOM     26  C   UNL     1       1.885   3.035  20.115  0.00  0.00    +0.000 C 
ATOM     27  C   UNL     1       0.949   2.447  19.047  0.00  0.00    +0.000 C 
ATOM     28  O   UNL     1       0.426   3.460  18.175  0.00  0.00    +0.000 OA
ATOM     29  C   UNL     1       1.482   4.188  17.531  0.00  0.00    +0.000 C 
ATOM     30  C   UNL     1       2.381   4.865  18.569  0.00  0.00    +0.000 C 
ENDBRANCH  22  25
ENDBRANCH  20  22
ENDBRANCH   2  16
TORSDOF 5
ENDMDL
