MODEL 1
REMARK VINA RESULT:      -7.8      0.000      0.000
REMARK  Name = 
REMARK  4 active torsions:
REMARK  status: ('A' for Active; 'I' for Inactive)
REMARK    1  A    between atoms: C_1  and  N_2
REMARK    2  A    between atoms: C_3  and  O_4
REMARK    3  A    between atoms: C_5  and  C_6
REMARK    4  A    between atoms: N_8  and  C_9
REMARK                            x       y       z     vdW  Elec       q    Type
REMARK                         _______ _______ _______ _____ _____    ______ ____
ROOT
ATOM      1  C   UNL     1       1.417   2.559  19.901  0.00  0.00    +0.000 C 
ATOM      2  N   UNL     1       2.162   3.683  19.293  0.00  0.00    +0.000 N 
ATOM      3  C   UNL     1       1.976   5.061  19.593  0.00  0.00    +0.000 C 
ATOM      4  C   UNL     1       2.631   6.049  18.940  0.00  0.00    +0.000 C 
ATOM      5  C   UNL     1       3.628   5.828  17.842  0.00  0.00    +0.000 A 
ATOM      6  C   UNL     1       4.370   6.878  17.257  0.00  0.00    +0.000 A 
ATOM      7  C   UNL     1       5.265   6.667  16.193  0.00  0.00    +0.000 A 
ATOM      8  C   UNL     1       5.476   5.395  15.693  0.00  0.00    +0.000 A 
ATOM      9  C   UNL     1       4.793   4.334  16.268  0.00  0.00    +0.000 A 
ATOM     10  C   UNL     1       3.884   4.567  17.321  0.00  0.00    +0.000 A 
ATOM     11  S   UNL     1       3.066   3.170  17.958  0.00  0.00    +0.000 S 
ATOM     12  O   UNL     1       2.130   2.728  16.948  0.00  0.00    +0.000 OA
ATOM     13  O   UNL     1       4.087   2.283  18.466  0.00  0.00    +0.000 OA
ENDROOT
BRANCH   4  14
ATOM     14  C   UNL     1       2.200   7.487  19.253  0.00  0.00    +0.000 C 
ATOM     15  O   UNL     1       2.137   7.831  20.432  0.00  0.00    +0.000 OA
ATOM     16  N   UNL     1       1.864   8.301  18.186  0.00  0.00    +0.000 N 
ATOM     17  H   UNL     1       2.021   7.922  17.257  0.00  0.00    +0.000 HD
BRANCH  16  18
ATOM     18  C   UNL     1       1.323   9.610  18.259  0.00  0.00    +0.000 A 
ATOM     19  C   UNL     1       2.104  10.765  18.356  0.00  0.00    +0.000 A 
ATOM     20  C   UNL     1       1.520  12.020  18.543  0.00  0.00    +0.000 A 
ATOM     21  C   UNL     1       0.137  12.141  18.620  0.00  0.00    +0.000 A 
ATOM     22  C   UNL     1      -0.660  11.009  18.468  0.00  0.00    +0.000 A 
ATOM     23  C   UNL     1      -0.071   9.750  18.276  0.00  0.00    +0.000 A 
ENDBRANCH  16  18
ENDBRANCH   4  14
BRANCH   3  24
ATOM     24  O   UNL     1       1.118   5.338  20.635  0.00  0.00    +0.000 OA
ATOM     25  H   UNL     1       1.562   5.086  21.457  0.00  0.00    +0.000 HD
ENDBRANCH   3  24
TORSDOF 3
ENDMDL
MODEL 2
REMARK VINA RESULT:      -7.8      2.469      6.273
REMARK  Name = 
REMARK  4 active torsions:
REMARK  status: ('A' for Active; 'I' for Inactive)
REMARK    1  A    between atoms: C_1  and  N_2
REMARK    2  A    between atoms: C_3  and  O_4
REMARK    3  A    between atoms: C_5  and  C_6
REMARK    4  A    between atoms: N_8  and  C_9
REMARK                            x       y       z     vdW  Elec       q    Type
REMARK                         _______ _______ _______ _____ _____    ______ ____
ROOT
ATOM      1  C   UNL     1       2.361   1.821  20.204  0.00  0.00    +0.000 C 
ATOM      2  N   UNL     1       2.697   3.048  19.449  0.00  0.00    +0.000 N 
ATOM      3  C   UNL     1       3.666   3.145  18.412  0.00  0.00    +0.000 C 
ATOM      4  C   UNL     1       3.987   4.317  17.817  0.00  0.00    +0.000 C 
ATOM      5  C   UNL     1       3.371   5.641  18.155  0.00  0.00    +0.000 A 
ATOM      6  C   UNL     1       3.655   6.825  17.440  0.00  0.00    +0.000 A 
ATOM      7  C   UNL     1       3.111   8.072  17.796  0.00  0.00    +0.000 A 
ATOM      8  C   UNL     1       2.239   8.178  18.865  0.00  0.00    +0.000 A 
ATOM      9  C   UNL     1       1.907   7.030  19.567  0.00  0.00    +0.000 A 
ATOM     10  C   UNL     1       2.478   5.791  19.208  0.00  0.00    +0.000 A 
ATOM     11  S   UNL     1       2.010   4.418  20.166  0.00  0.00    +0.000 S 
ATOM     12  O   UNL     1       2.622   4.577  21.466  0.00  0.00    +0.000 OA
ATOM     13  O   UNL     1       0.577   4.282  20.031  0.00  0.00    +0.000 OA
ENDROOT
BRANCH   4  14
ATOM     14  C   UNL     1       5.169   4.293  16.840  0.00  0.00    +0.000 C 
ATOM     15  O   UNL     1       6.303   4.431  17.298  0.00  0.00    +0.000 OA
ATOM     16  N   UNL     1       4.885   4.162  15.493  0.00  0.00    +0.000 N 
ATOM     17  H   UNL     1       3.916   3.991  15.247  0.00  0.00    +0.000 HD
BRANCH  16  18
ATOM     18  C   UNL     1       5.811   4.246  14.422  0.00  0.00    +0.000 A 
ATOM     19  C   UNL     1       6.935   5.077  14.435  0.00  0.00    +0.000 A 
ATOM     20  C   UNL     1       7.751   5.210  13.308  0.00  0.00    +0.000 A 
ATOM     21  C   UNL     1       7.462   4.497  12.151  0.00  0.00    +0.000 A 
ATOM     22  C   UNL     1       6.380   3.620  12.137  0.00  0.00    +0.000 A 
ATOM     23  C   UNL     1       5.565   3.485  13.271  0.00  0.00    +0.000 A 
ENDBRANCH  16  18
ENDBRANCH   4  14
BRANCH   3  24
ATOM     24  O   UNL     1       4.231   1.957  18.005  0.00  0.00    +0.000 OA
ATOM     25  H   UNL     1       4.350   1.403  18.790  0.00  0.00    +0.000 HD
ENDBRANCH   3  24
TORSDOF 3
ENDMDL
MODEL 3
REMARK VINA RESULT:      -7.6      1.562      3.364
REMARK  Name = 
REMARK  4 active torsions:
REMARK  status: ('A' for Active; 'I' for Inactive)
REMARK    1  A    between atoms: C_1  and  N_2
REMARK    2  A    between atoms: C_3  and  O_4
REMARK    3  A    between atoms: C_5  and  C_6
REMARK    4  A    between atoms: N_8  and  C_9
REMARK                            x       y       z     vdW  Elec       q    Type
REMARK                         _______ _______ _______ _____ _____    ______ ____
ROOT
ATOM      1  C   UNL     1       5.965   5.588  16.479  0.00  0.00    +0.000 C 
ATOM      2  N   UNL     1       4.777   5.497  17.356  0.00  0.00    +0.000 N 
ATOM      3  C   UNL     1       3.928   6.579  17.719  0.00  0.00    +0.000 C 
ATOM      4  C   UNL     1       2.905   6.447  18.594  0.00  0.00    +0.000 C 
ATOM      5  C   UNL     1       2.530   5.167  19.279  0.00  0.00    +0.000 A 
ATOM      6  C   UNL     1       1.392   5.043  20.106  0.00  0.00    +0.000 A 
ATOM      7  C   UNL     1       1.077   3.852  20.784  0.00  0.00    +0.000 A 
ATOM      8  C   UNL     1       1.873   2.730  20.639  0.00  0.00    +0.000 A 
ATOM      9  C   UNL     1       2.978   2.803  19.806  0.00  0.00    +0.000 A 
ATOM     10  C   UNL     1       3.290   4.012  19.149  0.00  0.00    +0.000 A 
ATOM     11  S   UNL     1       4.709   4.001  18.143  0.00  0.00    +0.000 S 
ATOM     12  O   UNL     1       5.853   3.923  19.023  0.00  0.00    +0.000 OA
ATOM     13  O   UNL     1       4.487   3.005  17.119  0.00  0.00    +0.000 OA
ENDROOT
BRANCH   4  14
ATOM     14  C   UNL     1       2.188   7.735  19.018  0.00  0.00    +0.000 C 
ATOM     15  O   UNL     1       2.047   7.952  20.220  0.00  0.00    +0.000 OA
ATOM     16  N   UNL     1       1.702   8.557  18.017  0.00  0.00    +0.000 N 
ATOM     17  H   UNL     1       1.939   8.302  17.064  0.00  0.00    +0.000 HD
BRANCH  16  18
ATOM     18  C   UNL     1       0.905   9.717  18.189  0.00  0.00    +0.000 A 
ATOM     19  C   UNL     1       1.402  10.931  18.671  0.00  0.00    +0.000 A 
ATOM     20  C   UNL     1       0.552  12.009  18.933  0.00  0.00    +0.000 A 
ATOM     21  C   UNL     1      -0.813  11.893  18.698  0.00  0.00    +0.000 A 
ATOM     22  C   UNL     1      -1.319  10.710  18.163  0.00  0.00    +0.000 A 
ATOM     23  C   UNL     1      -0.463   9.631  17.897  0.00  0.00    +0.000 A 
ENDBRANCH  16  18
ENDBRANCH   4  14
BRANCH   3  24
ATOM     24  O   UNL     1       4.174   7.775  17.081  0.00  0.00    +0.000 OA
ATOM     25  H   UNL     1       4.707   8.322  17.675  0.00  0.00    +0.000 HD
ENDBRANCH   3  24
TORSDOF 3
ENDMDL
MODEL 4
REMARK VINA RESULT:      -7.6      1.545      3.499
REMARK  Name = 
REMARK  4 active torsions:
REMARK  status: ('A' for Active; 'I' for Inactive)
REMARK    1  A    between atoms: C_1  and  N_2
REMARK    2  A    between atoms: C_3  and  O_4
REMARK    3  A    between atoms: C_5  and  C_6
REMARK    4  A    between atoms: N_8  and  C_9
REMARK                            x       y       z     vdW  Elec       q    Type
REMARK                         _______ _______ _______ _____ _____    ______ ____
ROOT
ATOM      1  C   UNL     1       5.916   5.657  16.497  0.00  0.00    +0.000 C 
ATOM      2  N   UNL     1       4.732   5.548  17.378  0.00  0.00    +0.000 N 
ATOM      3  C   UNL     1       3.882   6.621  17.762  0.00  0.00    +0.000 C 
ATOM      4  C   UNL     1       2.862   6.472  18.639  0.00  0.00    +0.000 C 
ATOM      5  C   UNL     1       2.493   5.180  19.304  0.00  0.00    +0.000 A 
ATOM      6  C   UNL     1       1.358   5.039  20.132  0.00  0.00    +0.000 A 
ATOM      7  C   UNL     1       1.049   3.836  20.791  0.00  0.00    +0.000 A 
ATOM      8  C   UNL     1       1.847   2.718  20.624  0.00  0.00    +0.000 A 
ATOM      9  C   UNL     1       2.949   2.808  19.788  0.00  0.00    +0.000 A 
ATOM     10  C   UNL     1       3.255   4.029  19.151  0.00  0.00    +0.000 A 
ATOM     11  S   UNL     1       4.670   4.038  18.139  0.00  0.00    +0.000 S 
ATOM     12  O   UNL     1       5.818   3.948  19.013  0.00  0.00    +0.000 OA
ATOM     13  O   UNL     1       4.447   3.059  17.100  0.00  0.00    +0.000 OA
ENDROOT
BRANCH   4  14
ATOM     14  C   UNL     1       2.144   7.751  19.087  0.00  0.00    +0.000 C 
ATOM     15  O   UNL     1       2.035   7.963  20.294  0.00  0.00    +0.000 OA
ATOM     16  N   UNL     1       1.621   8.571  18.103  0.00  0.00    +0.000 N 
ATOM     17  H   UNL     1       1.834   8.321  17.143  0.00  0.00    +0.000 HD
BRANCH  16  18
ATOM     18  C   UNL     1       0.817   9.722  18.301  0.00  0.00    +0.000 A 
ATOM     19  C   UNL     1      -0.561   9.749  18.073  0.00  0.00    +0.000 A 
ATOM     20  C   UNL     1      -1.288  10.939  18.171  0.00  0.00    +0.000 A 
ATOM     21  C   UNL     1      -0.645  12.122  18.516  0.00  0.00    +0.000 A 
ATOM     22  C   UNL     1       0.718  12.103  18.803  0.00  0.00    +0.000 A 
ATOM     23  C   UNL     1       1.444  10.907  18.709  0.00  0.00    +0.000 A 
ENDBRANCH  16  18
ENDBRANCH   4  14
BRANCH   3  24
ATOM     24  O   UNL     1       4.123   7.829  17.144  0.00  0.00    +0.000 OA
ATOM     25  H   UNL     1       3.419   8.439  17.405  0.00  0.00    +0.000 HD
ENDBRANCH   3  24
TORSDOF 3
ENDMDL
MODEL 5
REMARK VINA RESULT:      -7.6      0.253      1.008
REMARK  Name = 
REMARK  4 active torsions:
REMARK  status: ('A' for Active; 'I' for Inactive)
REMARK    1  A    between atoms: C_1  and  N_2
REMARK    2  A    between atoms: C_3  and  O_4
REMARK    3  A    between atoms: C_5  and  C_6
REMARK    4  A    between atoms: N_8  and  C_9
REMARK                            x       y       z     vdW  Elec       q    Type
REMARK                         _______ _______ _______ _____ _____    ______ ____
ROOT
ATOM      1  C   UNL     1       1.429   2.533  19.977  0.00  0.00    +0.000 C 
ATOM      2  N   UNL     1       2.159   3.675  19.387  0.00  0.00    +0.000 N 
ATOM      3  C   UNL     1       1.987   5.042  19.739  0.00  0.00    +0.000 C 
ATOM      4  C   UNL     1       2.626   6.050  19.101  0.00  0.00    +0.000 C 
ATOM      5  C   UNL     1       3.590   5.865  17.968  0.00  0.00    +0.000 A 
ATOM      6  C   UNL     1       4.318   6.932  17.397  0.00  0.00    +0.000 A 
ATOM      7  C   UNL     1       5.181   6.757  16.301  0.00  0.00    +0.000 A 
ATOM      8  C   UNL     1       5.372   5.501  15.751  0.00  0.00    +0.000 A 
ATOM      9  C   UNL     1       4.703   4.423  16.310  0.00  0.00    +0.000 A 
ATOM     10  C   UNL     1       3.825   4.622  17.396  0.00  0.00    +0.000 A 
ATOM     11  S   UNL     1       3.022   3.206  18.008  0.00  0.00    +0.000 S 
ATOM     12  O   UNL     1       2.056   2.801  17.012  0.00  0.00    +0.000 OA
ATOM     13  O   UNL     1       4.055   2.299  18.455  0.00  0.00    +0.000 OA
ENDROOT
BRANCH   4  14
ATOM     14  C   UNL     1       2.209   7.478  19.475  0.00  0.00    +0.000 C 
ATOM     15  O   UNL     1       2.161   7.775  20.668  0.00  0.00    +0.000 OA
ATOM     16  N   UNL     1       1.869   8.337  18.445  0.00  0.00    +0.000 N 
ATOM     17  H   UNL     1       2.012   7.994  17.501  0.00  0.00    +0.000 HD
BRANCH  16  18
ATOM     18  C   UNL     1       1.338   9.645  18.576  0.00  0.00    +0.000 A 
ATOM     19  C   UNL     1       0.016   9.908  18.948  0.00  0.00    +0.000 A 
ATOM     20  C   UNL     1      -0.490  11.211  18.949  0.00  0.00    +0.000 A 
ATOM     21  C   UNL     1       0.328  12.277  18.592  0.00  0.00    +0.000 A 
ATOM     22  C   UNL     1       1.663  12.040  18.273  0.00  0.00    +0.000 A 
ATOM     23  C   UNL     1       2.170  10.732  18.277  0.00  0.00    +0.000 A 
ENDBRANCH  16  18
ENDBRANCH   4  14
BRANCH   3  24
ATOM     24  O   UNL     1       1.161   5.286  20.814  0.00  0.00    +0.000 OA
ATOM     25  H   UNL     1       1.003   4.442  21.261  0.00  0.00    +0.000 HD
ENDBRANCH   3  24
TORSDOF 3
ENDMDL
MODEL 6
REMARK VINA RESULT:      -7.5      3.747      7.842
REMARK  Name = 
REMARK  4 active torsions:
REMARK  status: ('A' for Active; 'I' for Inactive)
REMARK    1  A    between atoms: C_1  and  N_2
REMARK    2  A    between atoms: C_3  and  O_4
REMARK    3  A    between atoms: C_5  and  C_6
REMARK    4  A    between atoms: N_8  and  C_9
REMARK                            x       y       z     vdW  Elec       q    Type
REMARK                         _______ _______ _______ _____ _____    ______ ____
ROOT
ATOM      1  C   UNL     1       1.752  14.065  18.586  0.00  0.00    +0.000 C 
ATOM      2  N   UNL     1       1.494  12.732  19.172  0.00  0.00    +0.000 N 
ATOM      3  C   UNL     1       1.796  11.484  18.561  0.00  0.00    +0.000 C 
ATOM      4  C   UNL     1       1.457  10.296  19.114  0.00  0.00    +0.000 C 
ATOM      5  C   UNL     1       0.743  10.138  20.422  0.00  0.00    +0.000 A 
ATOM      6  C   UNL     1       0.501   8.881  21.019  0.00  0.00    +0.000 A 
ATOM      7  C   UNL     1      -0.214   8.741  22.221  0.00  0.00    +0.000 A 
ATOM      8  C   UNL     1      -0.690   9.855  22.890  0.00  0.00    +0.000 A 
ATOM      9  C   UNL     1      -0.439  11.108  22.354  0.00  0.00    +0.000 A 
ATOM     10  C   UNL     1       0.264  11.229  21.136  0.00  0.00    +0.000 A 
ATOM     11  S   UNL     1       0.508  12.845  20.543  0.00  0.00    +0.000 S 
ATOM     12  O   UNL     1      -0.780  13.339  20.108  0.00  0.00    +0.000 OA
ATOM     13  O   UNL     1       1.274  13.548  21.547  0.00  0.00    +0.000 OA
ENDROOT
BRANCH   4  14
ATOM     14  C   UNL     1       1.692   9.045  18.259  0.00  0.00    +0.000 C 
ATOM     15  O   UNL     1       1.035   8.915  17.227  0.00  0.00    +0.000 OA
ATOM     16  N   UNL     1       2.602   8.112  18.724  0.00  0.00    +0.000 N 
ATOM     17  H   UNL     1       3.128   8.365  19.555  0.00  0.00    +0.000 HD
BRANCH  16  18
ATOM     18  C   UNL     1       2.871   6.839  18.160  0.00  0.00    +0.000 A 
ATOM     19  C   UNL     1       2.033   5.732  18.319  0.00  0.00    +0.000 A 
ATOM     20  C   UNL     1       2.401   4.471  17.842  0.00  0.00    +0.000 A 
ATOM     21  C   UNL     1       3.612   4.302  17.182  0.00  0.00    +0.000 A 
ATOM     22  C   UNL     1       4.434   5.405  16.964  0.00  0.00    +0.000 A 
ATOM     23  C   UNL     1       4.060   6.671  17.440  0.00  0.00    +0.000 A 
ENDBRANCH  16  18
ENDBRANCH   4  14
BRANCH   3  24
ATOM     24  O   UNL     1       2.507  11.548  17.383  0.00  0.00    +0.000 OA
ATOM     25  H   UNL     1       3.440  11.405  17.594  0.00  0.00    +0.000 HD
ENDBRANCH   3  24
TORSDOF 3
ENDMDL
MODEL 7
REMARK VINA RESULT:      -7.5      2.546      4.048
REMARK  Name = 
REMARK  4 active torsions:
REMARK  status: ('A' for Active; 'I' for Inactive)
REMARK    1  A    between atoms: C_1  and  N_2
REMARK    2  A    between atoms: C_3  and  O_4
REMARK    3  A    between atoms: C_5  and  C_6
REMARK    4  A    between atoms: N_8  and  C_9
REMARK                            x       y       z     vdW  Elec       q    Type
REMARK                         _______ _______ _______ _____ _____    ______ ____
ROOT
ATOM      1  C   UNL     1       5.794   6.215  16.772  0.00  0.00    +0.000 C 
ATOM      2  N   UNL     1       4.664   5.929  17.683  0.00  0.00    +0.000 N 
ATOM      3  C   UNL     1       3.658   6.856  18.073  0.00  0.00    +0.000 C 
ATOM      4  C   UNL     1       2.696   6.557  18.977  0.00  0.00    +0.000 C 
ATOM      5  C   UNL     1       2.558   5.233  19.667  0.00  0.00    +0.000 A 
ATOM      6  C   UNL     1       1.480   4.923  20.525  0.00  0.00    +0.000 A 
ATOM      7  C   UNL     1       1.386   3.698  21.207  0.00  0.00    +0.000 A 
ATOM      8  C   UNL     1       2.352   2.722  21.036  0.00  0.00    +0.000 A 
ATOM      9  C   UNL     1       3.406   2.976  20.172  0.00  0.00    +0.000 A 
ATOM     10  C   UNL     1       3.494   4.220  19.511  0.00  0.00    +0.000 A 
ATOM     11  S   UNL     1       4.866   4.442  18.465  0.00  0.00    +0.000 S 
ATOM     12  O   UNL     1       6.033   4.555  19.312  0.00  0.00    +0.000 OA
ATOM     13  O   UNL     1       4.784   3.423  17.444  0.00  0.00    +0.000 OA
ENDROOT
BRANCH   4  14
ATOM     14  C   UNL     1       1.789   7.709  19.426  0.00  0.00    +0.000 C 
ATOM     15  O   UNL     1       1.270   8.410  18.559  0.00  0.00    +0.000 OA
ATOM     16  N   UNL     1       1.644   7.918  20.786  0.00  0.00    +0.000 N 
ATOM     17  H   UNL     1       2.070   7.231  21.400  0.00  0.00    +0.000 HD
BRANCH  16  18
ATOM     18  C   UNL     1       0.961   8.994  21.408  0.00  0.00    +0.000 A 
ATOM     19  C   UNL     1       0.187   8.854  22.563  0.00  0.00    +0.000 A 
ATOM     20  C   UNL     1      -0.559   9.921  23.069  0.00  0.00    +0.000 A 
ATOM     21  C   UNL     1      -0.528  11.157  22.432  0.00  0.00    +0.000 A 
ATOM     22  C   UNL     1       0.282  11.331  21.313  0.00  0.00    +0.000 A 
ATOM     23  C   UNL     1       1.033  10.259  20.809  0.00  0.00    +0.000 A 
ENDBRANCH  16  18
ENDBRANCH   4  14
BRANCH   3  24
ATOM     24  O   UNL     1       3.685   8.076  17.434  0.00  0.00    +0.000 OA
ATOM     25  H   UNL     1       2.994   8.629  17.825  0.00  0.00    +0.000 HD
ENDBRANCH   3  24
TORSDOF 3
ENDMDL
MODEL 8
REMARK VINA RESULT:      -7.4      2.528      6.336
REMARK  Name = 
REMARK  4 active torsions:
REMARK  status: ('A' for Active; 'I' for Inactive)
REMARK    1  A    between atoms: C_1  and  N_2
REMARK    2  A    between atoms: C_3  and  O_4
REMARK    3  A    between atoms: C_5  and  C_6
REMARK    4  A    between atoms: N_8  and  C_9
REMARK                            x       y       z     vdW  Elec       q    Type
REMARK                         _______ _______ _______ _____ _____    ______ ____
ROOT
ATOM      1  C   UNL     1       2.390   1.663  20.099  0.00  0.00    +0.000 C 
ATOM      2  N   UNL     1       2.695   2.919  19.378  0.00  0.00    +0.000 N 
ATOM      3  C   UNL     1       3.624   3.058  18.311  0.00  0.00    +0.000 C 
ATOM      4  C   UNL     1       3.921   4.252  17.748  0.00  0.00    +0.000 C 
ATOM      5  C   UNL     1       3.315   5.561  18.158  0.00  0.00    +0.000 A 
ATOM      6  C   UNL     1       3.570   6.772  17.478  0.00  0.00    +0.000 A 
ATOM      7  C   UNL     1       3.037   8.002  17.900  0.00  0.00    +0.000 A 
ATOM      8  C   UNL     1       2.204   8.066  19.004  0.00  0.00    +0.000 A 
ATOM      9  C   UNL     1       1.902   6.891  19.675  0.00  0.00    +0.000 A 
ATOM     10  C   UNL     1       2.461   5.668  19.248  0.00  0.00    +0.000 A 
ATOM     11  S   UNL     1       2.032   4.259  20.171  0.00  0.00    +0.000 S 
ATOM     12  O   UNL     1       2.692   4.372  21.453  0.00  0.00    +0.000 OA
ATOM     13  O   UNL     1       0.596   4.123  20.083  0.00  0.00    +0.000 OA
ENDROOT
BRANCH   4  14
ATOM     14  C   UNL     1       5.067   4.269  16.729  0.00  0.00    +0.000 C 
ATOM     15  O   UNL     1       6.212   4.433  17.145  0.00  0.00    +0.000 OA
ATOM     16  N   UNL     1       4.736   4.143  15.391  0.00  0.00    +0.000 N 
ATOM     17  H   UNL     1       3.763   3.948  15.179  0.00  0.00    +0.000 HD
BRANCH  16  18
ATOM     18  C   UNL     1       5.619   4.261  14.287  0.00  0.00    +0.000 A 
ATOM     19  C   UNL     1       5.473   3.537  13.101  0.00  0.00    +0.000 A 
ATOM     20  C   UNL     1       6.435   3.603  12.090  0.00  0.00    +0.000 A 
ATOM     21  C   UNL     1       7.555   4.411  12.245  0.00  0.00    +0.000 A 
ATOM     22  C   UNL     1       7.689   5.184  13.396  0.00  0.00    +0.000 A 
ATOM     23  C   UNL     1       6.720   5.119  14.408  0.00  0.00    +0.000 A 
ENDBRANCH  16  18
ENDBRANCH   4  14
BRANCH   3  24
ATOM     24  O   UNL     1       4.177   1.888  17.839  0.00  0.00    +0.000 OA
ATOM     25  H   UNL     1       3.452   1.310  17.563  0.00  0.00    +0.000 HD
ENDBRANCH   3  24
TORSDOF 3
ENDMDL
MODEL 9
REMARK VINA RESULT:      -7.4      2.507      3.946
REMARK  Name = 
REMARK  4 active torsions:
REMARK  status: ('A' for Active; 'I' for Inactive)
REMARK    1  A    between atoms: C_1  and  N_2
REMARK    2  A    between atoms: C_3  and  O_4
REMARK    3  A    between atoms: C_5  and  C_6
REMARK    4  A    between atoms: N_8  and  C_9
REMARK                            x       y       z     vdW  Elec       q    Type
REMARK                         _______ _______ _______ _____ _____    ______ ____
ROOT
ATOM      1  C   UNL     1       5.990   6.066  16.841  0.00  0.00    +0.000 C 
ATOM      2  N   UNL     1       4.801   5.811  17.683  0.00  0.00    +0.000 N 
ATOM      3  C   UNL     1       3.789   6.760  17.999  0.00  0.00    +0.000 C 
ATOM      4  C   UNL     1       2.769   6.490  18.846  0.00  0.00    +0.000 C 
ATOM      5  C   UNL     1       2.565   5.178  19.542  0.00  0.00    +0.000 A 
ATOM      6  C   UNL     1       1.430   4.897  20.335  0.00  0.00    +0.000 A 
ATOM      7  C   UNL     1       1.273   3.682  21.025  0.00  0.00    +0.000 A 
ATOM      8  C   UNL     1       2.230   2.688  20.925  0.00  0.00    +0.000 A 
ATOM      9  C   UNL     1       3.340   2.913  20.125  0.00  0.00    +0.000 A 
ATOM     10  C   UNL     1       3.491   4.146  19.456  0.00  0.00    +0.000 A 
ATOM     11  S   UNL     1       4.928   4.332  18.495  0.00  0.00    +0.000 S 
ATOM     12  O   UNL     1       6.042   4.436  19.410  0.00  0.00    +0.000 OA
ATOM     13  O   UNL     1       4.890   3.300  17.483  0.00  0.00    +0.000 OA
ENDROOT
BRANCH   4  14
ATOM     14  C   UNL     1       1.856   7.662  19.224  0.00  0.00    +0.000 C 
ATOM     15  O   UNL     1       1.435   8.385  18.322  0.00  0.00    +0.000 OA
ATOM     16  N   UNL     1       1.595   7.864  20.567  0.00  0.00    +0.000 N 
ATOM     17  H   UNL     1       1.946   7.161  21.209  0.00  0.00    +0.000 HD
BRANCH  16  18
ATOM     18  C   UNL     1       0.889   8.954  21.137  0.00  0.00    +0.000 A 
ATOM     19  C   UNL     1       1.003  10.271  20.681  0.00  0.00    +0.000 A 
ATOM     20  C   UNL     1       0.377  11.325  21.351  0.00  0.00    +0.000 A 
ATOM     21  C   UNL     1      -0.390  11.075  22.483  0.00  0.00    +0.000 A 
ATOM     22  C   UNL     1      -0.563   9.763  22.917  0.00  0.00    +0.000 A 
ATOM     23  C   UNL     1       0.063   8.705  22.241  0.00  0.00    +0.000 A 
ENDBRANCH  16  18
ENDBRANCH   4  14
BRANCH   3  24
ATOM     24  O   UNL     1       3.877   7.971  17.348  0.00  0.00    +0.000 OA
ATOM     25  H   UNL     1       4.309   8.597  17.947  0.00  0.00    +0.000 HD
ENDBRANCH   3  24
TORSDOF 3
ENDMDL
