MODEL 1
REMARK VINA RESULT:      -6.0      0.000      0.000
REMARK  Name = 
REMARK  8 active torsions:
REMARK  status: ('A' for Active; 'I' for Inactive)
REMARK    1  A    between atoms: C_1  and  O_2
REMARK    2  A    between atoms: O_2  and  C_3
REMARK    3  A    between atoms: C_6  and  C_7
REMARK    4  A    between atoms: C_7  and  O_9
REMARK    5  A    between atoms: O_9  and  C_10
REMARK    6  A    between atoms: C_10  and  C_11
REMARK    7  A    between atoms: C_11  and  C_12
REMARK    8  A    between atoms: C_15  and  O_16
REMARK                            x       y       z     vdW  Elec       q    Type
REMARK                         _______ _______ _______ _____ _____    ______ ____
ROOT
ATOM      1  O   UNL     1       2.973   2.141  20.128  0.00  0.00    +0.000 OA
ENDROOT
BRANCH   1   2
ATOM      2  C   UNL     1       4.319   2.251  20.178  0.00  0.00    +0.000 C 
ATOM      3  O   UNL     1       5.049   1.755  21.020  0.00  0.00    +0.000 OA
BRANCH   2   7
ATOM      4  C   UNL     1       5.406   5.247  17.308  0.00  0.00    +0.000 A 
ATOM      5  C   UNL     1       5.663   5.428  18.670  0.00  0.00    +0.000 A 
ATOM      6  C   UNL     1       5.351   4.424  19.590  0.00  0.00    +0.000 A 
ATOM      7  C   UNL     1       4.762   3.234  19.153  0.00  0.00    +0.000 A 
ATOM      8  C   UNL     1       4.497   3.059  17.785  0.00  0.00    +0.000 A 
ATOM      9  C   UNL     1       4.811   4.065  16.868  0.00  0.00    +0.000 A 
BRANCH   4  11
ATOM     10  C   UNL     1       6.568   7.290  17.109  0.00  0.00    +0.000 C 
ATOM     11  O   UNL     1       5.733   6.306  16.507  0.00  0.00    +0.000 OA
ENDBRANCH   4  11
ENDBRANCH   2   7
ENDBRANCH   1   2
BRANCH   1  12
ATOM     12  C   UNL     1       2.280   2.726  21.240  0.00  0.00    +0.000 C 
BRANCH  12  13
ATOM     13  C   UNL     1       1.116   3.502  20.624  0.00  0.00    +0.000 C 
BRANCH  13  14
ATOM     14  C   UNL     1       1.543   4.730  19.876  0.00  0.00    +0.000 A 
ATOM     15  C   UNL     1       1.959   5.873  20.575  0.00  0.00    +0.000 A 
ATOM     16  C   UNL     1       2.372   7.013  19.883  0.00  0.00    +0.000 A 
ATOM     17  C   UNL     1       2.361   7.009  18.491  0.00  0.00    +0.000 A 
ATOM     18  C   UNL     1       1.942   5.886  17.786  0.00  0.00    +0.000 A 
ATOM     19  C   UNL     1       1.530   4.747  18.477  0.00  0.00    +0.000 A 
BRANCH  17  20
ATOM     20  O   UNL     1       2.757   8.097  17.777  0.00  0.00    +0.000 OA
ATOM     21  H   UNL     1       3.489   8.529  18.247  0.00  0.00    +0.000 HD
ENDBRANCH  17  20
ENDBRANCH  13  14
ENDBRANCH  12  13
ENDBRANCH   1  12
TORSDOF 7
ENDMDL
MODEL 2
REMARK VINA RESULT:      -6.0      1.553      2.367
REMARK  Name = 
REMARK  8 active torsions:
REMARK  status: ('A' for Active; 'I' for Inactive)
REMARK    1  A    between atoms: C_1  and  O_2
REMARK    2  A    between atoms: O_2  and  C_3
REMARK    3  A    between atoms: C_6  and  C_7
REMARK    4  A    between atoms: C_7  and  O_9
REMARK    5  A    between atoms: O_9  and  C_10
REMARK    6  A    between atoms: C_10  and  C_11
REMARK    7  A    between atoms: C_11  and  C_12
REMARK    8  A    between atoms: C_15  and  O_16
REMARK                            x       y       z     vdW  Elec       q    Type
REMARK                         _______ _______ _______ _____ _____    ______ ____
ROOT
ATOM      1  O   UNL     1       4.088   3.047  17.764  0.00  0.00    +0.000 OA
ENDROOT
BRANCH   1   2
ATOM      2  C   UNL     1       4.976   3.335  18.740  0.00  0.00    +0.000 C 
ATOM      3  O   UNL     1       5.075   2.763  19.813  0.00  0.00    +0.000 OA
BRANCH   2   7
ATOM      4  C   UNL     1       7.166   6.816  17.522  0.00  0.00    +0.000 A 
ATOM      5  C   UNL     1       6.125   6.310  16.739  0.00  0.00    +0.000 A 
ATOM      6  C   UNL     1       5.385   5.206  17.170  0.00  0.00    +0.000 A 
ATOM      7  C   UNL     1       5.695   4.589  18.385  0.00  0.00    +0.000 A 
ATOM      8  C   UNL     1       6.747   5.094  19.165  0.00  0.00    +0.000 A 
ATOM      9  C   UNL     1       7.484   6.198  18.731  0.00  0.00    +0.000 A 
BRANCH   4  11
ATOM     10  C   UNL     1       8.147   8.926  17.907  0.00  0.00    +0.000 C 
ATOM     11  O   UNL     1       7.833   7.883  16.988  0.00  0.00    +0.000 OA
ENDBRANCH   4  11
ENDBRANCH   2   7
ENDBRANCH   1   2
BRANCH   1  12
ATOM     12  C   UNL     1       3.042   2.143  18.151  0.00  0.00    +0.000 C 
BRANCH  12  13
ATOM     13  C   UNL     1       1.752   2.956  18.050  0.00  0.00    +0.000 C 
BRANCH  13  14
ATOM     14  C   UNL     1       1.824   4.284  18.745  0.00  0.00    +0.000 A 
ATOM     15  C   UNL     1       1.629   4.367  20.131  0.00  0.00    +0.000 A 
ATOM     16  C   UNL     1       1.711   5.598  20.784  0.00  0.00    +0.000 A 
ATOM     17  C   UNL     1       1.980   6.746  20.045  0.00  0.00    +0.000 A 
ATOM     18  C   UNL     1       2.166   6.681  18.668  0.00  0.00    +0.000 A 
ATOM     19  C   UNL     1       2.085   5.450  18.016  0.00  0.00    +0.000 A 
BRANCH  17  20
ATOM     20  O   UNL     1       2.071   7.967  20.641  0.00  0.00    +0.000 OA
ATOM     21  H   UNL     1       2.404   7.847  21.545  0.00  0.00    +0.000 HD
ENDBRANCH  17  20
ENDBRANCH  13  14
ENDBRANCH  12  13
ENDBRANCH   1  12
TORSDOF 7
ENDMDL
MODEL 3
REMARK VINA RESULT:      -6.0      1.643      2.396
REMARK  Name = 
REMARK  8 active torsions:
REMARK  status: ('A' for Active; 'I' for Inactive)
REMARK    1  A    between atoms: C_1  and  O_2
REMARK    2  A    between atoms: O_2  and  C_3
REMARK    3  A    between atoms: C_6  and  C_7
REMARK    4  A    between atoms: C_7  and  O_9
REMARK    5  A    between atoms: O_9  and  C_10
REMARK    6  A    between atoms: C_10  and  C_11
REMARK    7  A    between atoms: C_11  and  C_12
REMARK    8  A    between atoms: C_15  and  O_16
REMARK                            x       y       z     vdW  Elec       q    Type
REMARK                         _______ _______ _______ _____ _____    ______ ____
ROOT
ATOM      1  O   UNL     1       2.002   3.459  20.441  0.00  0.00    +0.000 OA
ENDROOT
BRANCH   1   2
ATOM      2  C   UNL     1       2.069   2.834  19.245  0.00  0.00    +0.000 C 
ATOM      3  O   UNL     1       1.348   1.926  18.868  0.00  0.00    +0.000 OA
BRANCH   2   7
ATOM      4  C   UNL     1       5.549   4.398  17.287  0.00  0.00    +0.000 A 
ATOM      5  C   UNL     1       5.547   4.152  18.662  0.00  0.00    +0.000 A 
ATOM      6  C   UNL     1       4.426   3.595  19.281  0.00  0.00    +0.000 A 
ATOM      7  C   UNL     1       3.288   3.294  18.527  0.00  0.00    +0.000 A 
ATOM      8  C   UNL     1       3.290   3.551  17.146  0.00  0.00    +0.000 A 
ATOM      9  C   UNL     1       4.414   4.108  16.531  0.00  0.00    +0.000 A 
BRANCH   4  11
ATOM     10  C   UNL     1       6.961   4.703  15.422  0.00  0.00    +0.000 C 
ATOM     11  O   UNL     1       6.693   4.965  16.797  0.00  0.00    +0.000 OA
ENDBRANCH   4  11
ENDBRANCH   2   7
ENDBRANCH   1   2
BRANCH   1  12
ATOM     12  C   UNL     1       1.157   4.619  20.467  0.00  0.00    +0.000 C 
BRANCH  12  13
ATOM     13  C   UNL     1       2.068   5.770  20.893  0.00  0.00    +0.000 C 
BRANCH  13  14
ATOM     14  C   UNL     1       2.029   6.942  19.957  0.00  0.00    +0.000 A 
ATOM     15  C   UNL     1       2.636   6.858  18.695  0.00  0.00    +0.000 A 
ATOM     16  C   UNL     1       2.590   7.941  17.816  0.00  0.00    +0.000 A 
ATOM     17  C   UNL     1       1.942   9.110  18.205  0.00  0.00    +0.000 A 
ATOM     18  C   UNL     1       1.345   9.211  19.456  0.00  0.00    +0.000 A 
ATOM     19  C   UNL     1       1.390   8.129  20.335  0.00  0.00    +0.000 A 
BRANCH  17  20
ATOM     20  O   UNL     1       1.871  10.189  17.378  0.00  0.00    +0.000 OA
ATOM     21  H   UNL     1       1.030  10.648  17.536  0.00  0.00    +0.000 HD
ENDBRANCH  17  20
ENDBRANCH  13  14
ENDBRANCH  12  13
ENDBRANCH   1  12
TORSDOF 7
ENDMDL
MODEL 4
REMARK VINA RESULT:      -6.0      1.819      3.942
REMARK  Name = 
REMARK  8 active torsions:
REMARK  status: ('A' for Active; 'I' for Inactive)
REMARK    1  A    between atoms: C_1  and  O_2
REMARK    2  A    between atoms: O_2  and  C_3
REMARK    3  A    between atoms: C_6  and  C_7
REMARK    4  A    between atoms: C_7  and  O_9
REMARK    5  A    between atoms: O_9  and  C_10
REMARK    6  A    between atoms: C_10  and  C_11
REMARK    7  A    between atoms: C_11  and  C_12
REMARK    8  A    between atoms: C_15  and  O_16
REMARK                            x       y       z     vdW  Elec       q    Type
REMARK                         _______ _______ _______ _____ _____    ______ ____
ROOT
ATOM      1  O   UNL     1       2.874   5.764  19.921  0.00  0.00    +0.000 OA
ENDROOT
BRANCH   1   2
ATOM      2  C   UNL     1       3.113   6.695  18.971  0.00  0.00    +0.000 C 
ATOM      3  O   UNL     1       2.496   7.735  18.814  0.00  0.00    +0.000 OA
BRANCH   2   7
ATOM      4  C   UNL     1       6.225   5.279  16.383  0.00  0.00    +0.000 A 
ATOM      5  C   UNL     1       6.035   4.723  17.650  0.00  0.00    +0.000 A 
ATOM      6  C   UNL     1       4.987   5.157  18.466  0.00  0.00    +0.000 A 
ATOM      7  C   UNL     1       4.128   6.166  18.021  0.00  0.00    +0.000 A 
ATOM      8  C   UNL     1       4.326   6.729  16.750  0.00  0.00    +0.000 A 
ATOM      9  C   UNL     1       5.376   6.291  15.938  0.00  0.00    +0.000 A 
BRANCH   4  11
ATOM     10  C   UNL     1       7.128   4.738  14.272  0.00  0.00    +0.000 C 
ATOM     11  O   UNL     1       7.296   4.791  15.685  0.00  0.00    +0.000 OA
ENDBRANCH   4  11
ENDBRANCH   2   7
ENDBRANCH   1   2
BRANCH   1  12
ATOM     12  C   UNL     1       1.590   5.867  20.554  0.00  0.00    +0.000 C 
BRANCH  12  13
ATOM     13  C   UNL     1       1.033   4.444  20.566  0.00  0.00    +0.000 C 
BRANCH  13  14
ATOM     14  C   UNL     1       1.892   3.458  19.831  0.00  0.00    +0.000 A 
ATOM     15  C   UNL     1       1.644   3.177  18.479  0.00  0.00    +0.000 A 
ATOM     16  C   UNL     1       2.450   2.272  17.787  0.00  0.00    +0.000 A 
ATOM     17  C   UNL     1       3.498   1.643  18.452  0.00  0.00    +0.000 A 
ATOM     18  C   UNL     1       3.749   1.904  19.794  0.00  0.00    +0.000 A 
ATOM     19  C   UNL     1       2.945   2.809  20.486  0.00  0.00    +0.000 A 
BRANCH  17  20
ATOM     20  O   UNL     1       4.310   0.755  17.815  0.00  0.00    +0.000 OA
ATOM     21  H   UNL     1       5.144   1.201  17.591  0.00  0.00    +0.000 HD
ENDBRANCH  17  20
ENDBRANCH  13  14
ENDBRANCH  12  13
ENDBRANCH   1  12
TORSDOF 7
ENDMDL
MODEL 5
REMARK VINA RESULT:      -5.9      1.919      5.174
REMARK  Name = 
REMARK  8 active torsions:
REMARK  status: ('A' for Active; 'I' for Inactive)
REMARK    1  A    between atoms: C_1  and  O_2
REMARK    2  A    between atoms: O_2  and  C_3
REMARK    3  A    between atoms: C_6  and  C_7
REMARK    4  A    between atoms: C_7  and  O_9
REMARK    5  A    between atoms: O_9  and  C_10
REMARK    6  A    between atoms: C_10  and  C_11
REMARK    7  A    between atoms: C_11  and  C_12
REMARK    8  A    between atoms: C_15  and  O_16
REMARK                            x       y       z     vdW  Elec       q    Type
REMARK                         _______ _______ _______ _____ _____    ______ ____
ROOT
ATOM      1  O   UNL     1       4.273   5.114  17.826  0.00  0.00    +0.000 OA
ENDROOT
BRANCH   1   2
ATOM      2  C   UNL     1       4.095   6.353  17.317  0.00  0.00    +0.000 C 
ATOM      3  O   UNL     1       4.755   6.865  16.428  0.00  0.00    +0.000 OA
BRANCH   2   7
ATOM      4  C   UNL     1       1.373   8.624  19.729  0.00  0.00    +0.000 A 
ATOM      5  C   UNL     1       1.715   9.044  18.441  0.00  0.00    +0.000 A 
ATOM      6  C   UNL     1       2.563   8.270  17.645  0.00  0.00    +0.000 A 
ATOM      7  C   UNL     1       3.089   7.075  18.142  0.00  0.00    +0.000 A 
ATOM      8  C   UNL     1       2.751   6.660  19.440  0.00  0.00    +0.000 A 
ATOM      9  C   UNL     1       1.902   7.436  20.232  0.00  0.00    +0.000 A 
BRANCH   4  11
ATOM     10  C   UNL     1      -0.089  10.473  19.638  0.00  0.00    +0.000 C 
ATOM     11  O   UNL     1       0.555   9.474  20.422  0.00  0.00    +0.000 OA
ENDBRANCH   4  11
ENDBRANCH   2   7
ENDBRANCH   1   2
BRANCH   1  12
ATOM     12  C   UNL     1       4.262   4.057  16.855  0.00  0.00    +0.000 C 
BRANCH  12  13
ATOM     13  C   UNL     1       2.905   3.375  17.020  0.00  0.00    +0.000 C 
BRANCH  13  14
ATOM     14  C   UNL     1       2.515   3.154  18.452  0.00  0.00    +0.000 A 
ATOM     15  C   UNL     1       3.465   2.704  19.381  0.00  0.00    +0.000 A 
ATOM     16  C   UNL     1       3.110   2.511  20.717  0.00  0.00    +0.000 A 
ATOM     17  C   UNL     1       1.802   2.762  21.120  0.00  0.00    +0.000 A 
ATOM     18  C   UNL     1       0.847   3.200  20.208  0.00  0.00    +0.000 A 
ATOM     19  C   UNL     1       1.202   3.393  18.873  0.00  0.00    +0.000 A 
BRANCH  17  20
ATOM     20  O   UNL     1       1.414   2.590  22.413  0.00  0.00    +0.000 OA
ATOM     21  H   UNL     1       1.604   1.675  22.676  0.00  0.00    +0.000 HD
ENDBRANCH  17  20
ENDBRANCH  13  14
ENDBRANCH  12  13
ENDBRANCH   1  12
TORSDOF 7
ENDMDL
MODEL 6
REMARK VINA RESULT:      -5.9      2.001      5.369
REMARK  Name = 
REMARK  8 active torsions:
REMARK  status: ('A' for Active; 'I' for Inactive)
REMARK    1  A    between atoms: C_1  and  O_2
REMARK    2  A    between atoms: O_2  and  C_3
REMARK    3  A    between atoms: C_6  and  C_7
REMARK    4  A    between atoms: C_7  and  O_9
REMARK    5  A    between atoms: O_9  and  C_10
REMARK    6  A    between atoms: C_10  and  C_11
REMARK    7  A    between atoms: C_11  and  C_12
REMARK    8  A    between atoms: C_15  and  O_16
REMARK                            x       y       z     vdW  Elec       q    Type
REMARK                         _______ _______ _______ _____ _____    ______ ____
ROOT
ATOM      1  O   UNL     1       4.577   5.788  18.393  0.00  0.00    +0.000 OA
ENDROOT
BRANCH   1   2
ATOM      2  C   UNL     1       4.034   6.702  17.558  0.00  0.00    +0.000 C 
ATOM      3  O   UNL     1       4.452   7.001  16.452  0.00  0.00    +0.000 OA
BRANCH   2   7
ATOM      4  C   UNL     1       1.082   9.003  19.651  0.00  0.00    +0.000 A 
ATOM      5  C   UNL     1       1.456   9.329  18.345  0.00  0.00    +0.000 A 
ATOM      6  C   UNL     1       2.381   8.543  17.654  0.00  0.00    +0.000 A 
ATOM      7  C   UNL     1       2.953   7.429  18.275  0.00  0.00    +0.000 A 
ATOM      8  C   UNL     1       2.582   7.109  19.591  0.00  0.00    +0.000 A 
ATOM      9  C   UNL     1       1.656   7.898  20.278  0.00  0.00    +0.000 A 
BRANCH   4  11
ATOM     10  C   UNL     1       0.563  10.350  21.516  0.00  0.00    +0.000 C 
ATOM     11  O   UNL     1       0.187   9.858  20.233  0.00  0.00    +0.000 OA
ENDBRANCH   4  11
ENDBRANCH   2   7
ENDBRANCH   1   2
BRANCH   1  12
ATOM     12  C   UNL     1       4.897   4.529  17.781  0.00  0.00    +0.000 C 
BRANCH  12  13
ATOM     13  C   UNL     1       3.554   3.833  17.567  0.00  0.00    +0.000 C 
BRANCH  13  14
ATOM     14  C   UNL     1       2.845   3.493  18.845  0.00  0.00    +0.000 A 
ATOM     15  C   UNL     1       1.476   3.760  18.986  0.00  0.00    +0.000 A 
ATOM     16  C   UNL     1       0.809   3.431  20.167  0.00  0.00    +0.000 A 
ATOM     17  C   UNL     1       1.517   2.841  21.210  0.00  0.00    +0.000 A 
ATOM     18  C   UNL     1       2.878   2.579  21.088  0.00  0.00    +0.000 A 
ATOM     19  C   UNL     1       3.544   2.907  19.907  0.00  0.00    +0.000 A 
BRANCH  17  20
ATOM     20  O   UNL     1       0.907   2.501  22.378  0.00  0.00    +0.000 OA
ATOM     21  H   UNL     1       1.584   2.212  23.010  0.00  0.00    +0.000 HD
ENDBRANCH  17  20
ENDBRANCH  13  14
ENDBRANCH  12  13
ENDBRANCH   1  12
TORSDOF 7
ENDMDL
MODEL 7
REMARK VINA RESULT:      -5.9      1.891      5.235
REMARK  Name = 
REMARK  8 active torsions:
REMARK  status: ('A' for Active; 'I' for Inactive)
REMARK    1  A    between atoms: C_1  and  O_2
REMARK    2  A    between atoms: O_2  and  C_3
REMARK    3  A    between atoms: C_6  and  C_7
REMARK    4  A    between atoms: C_7  and  O_9
REMARK    5  A    between atoms: O_9  and  C_10
REMARK    6  A    between atoms: C_10  and  C_11
REMARK    7  A    between atoms: C_11  and  C_12
REMARK    8  A    between atoms: C_15  and  O_16
REMARK                            x       y       z     vdW  Elec       q    Type
REMARK                         _______ _______ _______ _____ _____    ______ ____
ROOT
ATOM      1  O   UNL     1       4.559   5.415  18.033  0.00  0.00    +0.000 OA
ENDROOT
BRANCH   1   2
ATOM      2  C   UNL     1       4.168   6.477  17.295  0.00  0.00    +0.000 C 
ATOM      3  O   UNL     1       4.604   6.790  16.200  0.00  0.00    +0.000 OA
BRANCH   2   7
ATOM      4  C   UNL     1       1.350   8.730  19.614  0.00  0.00    +0.000 A 
ATOM      5  C   UNL     1       1.912   7.551  20.110  0.00  0.00    +0.000 A 
ATOM      6  C   UNL     1       2.866   6.852  19.368  0.00  0.00    +0.000 A 
ATOM      7  C   UNL     1       3.255   7.323  18.111  0.00  0.00    +0.000 A 
ATOM      8  C   UNL     1       2.683   8.503  17.610  0.00  0.00    +0.000 A 
ATOM      9  C   UNL     1       1.729   9.199  18.356  0.00  0.00    +0.000 A 
BRANCH   4  11
ATOM     10  C   UNL     1       0.003   8.537  21.540  0.00  0.00    +0.000 C 
ATOM     11  O   UNL     1       0.411   9.314  20.418  0.00  0.00    +0.000 OA
ENDBRANCH   4  11
ENDBRANCH   2   7
ENDBRANCH   1   2
BRANCH   1  12
ATOM     12  C   UNL     1       4.646   4.178  17.309  0.00  0.00    +0.000 C 
BRANCH  12  13
ATOM     13  C   UNL     1       3.223   3.621  17.293  0.00  0.00    +0.000 C 
BRANCH  13  14
ATOM     14  C   UNL     1       2.679   3.330  18.661  0.00  0.00    +0.000 A 
ATOM     15  C   UNL     1       1.335   3.602  18.959  0.00  0.00    +0.000 A 
ATOM     16  C   UNL     1       0.821   3.318  20.225  0.00  0.00    +0.000 A 
ATOM     17  C   UNL     1       1.655   2.770  21.194  0.00  0.00    +0.000 A 
ATOM     18  C   UNL     1       2.992   2.504  20.916  0.00  0.00    +0.000 A 
ATOM     19  C   UNL     1       3.506   2.786  19.651  0.00  0.00    +0.000 A 
BRANCH  17  20
ATOM     20  O   UNL     1       1.195   2.476  22.441  0.00  0.00    +0.000 OA
ATOM     21  H   UNL     1       0.653   1.671  22.390  0.00  0.00    +0.000 HD
ENDBRANCH  17  20
ENDBRANCH  13  14
ENDBRANCH  12  13
ENDBRANCH   1  12
TORSDOF 7
ENDMDL
MODEL 8
REMARK VINA RESULT:      -5.8      1.848      3.718
REMARK  Name = 
REMARK  8 active torsions:
REMARK  status: ('A' for Active; 'I' for Inactive)
REMARK    1  A    between atoms: C_1  and  O_2
REMARK    2  A    between atoms: O_2  and  C_3
REMARK    3  A    between atoms: C_6  and  C_7
REMARK    4  A    between atoms: C_7  and  O_9
REMARK    5  A    between atoms: O_9  and  C_10
REMARK    6  A    between atoms: C_10  and  C_11
REMARK    7  A    between atoms: C_11  and  C_12
REMARK    8  A    between atoms: C_15  and  O_16
REMARK                            x       y       z     vdW  Elec       q    Type
REMARK                         _______ _______ _______ _____ _____    ______ ____
ROOT
ATOM      1  O   UNL     1       2.473   5.656  20.592  0.00  0.00    +0.000 OA
ENDROOT
BRANCH   1   2
ATOM      2  C   UNL     1       2.863   6.481  19.595  0.00  0.00    +0.000 C 
ATOM      3  O   UNL     1       2.375   7.566  19.330  0.00  0.00    +0.000 OA
BRANCH   2   7
ATOM      4  C   UNL     1       5.875   4.668  17.140  0.00  0.00    +0.000 A 
ATOM      5  C   UNL     1       6.126   4.969  18.481  0.00  0.00    +0.000 A 
ATOM      6  C   UNL     1       5.122   5.513  19.285  0.00  0.00    +0.000 A 
ATOM      7  C   UNL     1       3.859   5.774  18.745  0.00  0.00    +0.000 A 
ATOM      8  C   UNL     1       3.612   5.479  17.395  0.00  0.00    +0.000 A 
ATOM      9  C   UNL     1       4.620   4.934  16.594  0.00  0.00    +0.000 A 
BRANCH   4  11
ATOM     10  C   UNL     1       6.976   4.492  15.061  0.00  0.00    +0.000 C 
ATOM     11  O   UNL     1       6.940   4.161  16.446  0.00  0.00    +0.000 OA
ENDBRANCH   4  11
ENDBRANCH   2   7
ENDBRANCH   1   2
BRANCH   1  12
ATOM     12  C   UNL     1       1.087   5.286  20.560  0.00  0.00    +0.000 C 
BRANCH  12  13
ATOM     13  C   UNL     1       1.064   3.786  20.850  0.00  0.00    +0.000 C 
BRANCH  13  14
ATOM     14  C   UNL     1       1.978   2.991  19.966  0.00  0.00    +0.000 A 
ATOM     15  C   UNL     1       3.229   2.568  20.441  0.00  0.00    +0.000 A 
ATOM     16  C   UNL     1       4.076   1.815  19.627  0.00  0.00    +0.000 A 
ATOM     17  C   UNL     1       3.673   1.492  18.335  0.00  0.00    +0.000 A 
ATOM     18  C   UNL     1       2.440   1.912  17.847  0.00  0.00    +0.000 A 
ATOM     19  C   UNL     1       1.593   2.664  18.661  0.00  0.00    +0.000 A 
BRANCH  17  20
ATOM     20  O   UNL     1       4.467   0.757  17.508  0.00  0.00    +0.000 OA
ATOM     21  H   UNL     1       3.977  -0.032  17.228  0.00  0.00    +0.000 HD
ENDBRANCH  17  20
ENDBRANCH  13  14
ENDBRANCH  12  13
ENDBRANCH   1  12
TORSDOF 7
ENDMDL
MODEL 9
REMARK VINA RESULT:      -5.8      0.913      1.791
REMARK  Name = 
REMARK  8 active torsions:
REMARK  status: ('A' for Active; 'I' for Inactive)
REMARK    1  A    between atoms: C_1  and  O_2
REMARK    2  A    between atoms: O_2  and  C_3
REMARK    3  A    between atoms: C_6  and  C_7
REMARK    4  A    between atoms: C_7  and  O_9
REMARK    5  A    between atoms: O_9  and  C_10
REMARK    6  A    between atoms: C_10  and  C_11
REMARK    7  A    between atoms: C_11  and  C_12
REMARK    8  A    between atoms: C_15  and  O_16
REMARK                            x       y       z     vdW  Elec       q    Type
REMARK                         _______ _______ _______ _____ _____    ______ ____
ROOT
ATOM      1  O   UNL     1       2.931   2.142  19.875  0.00  0.00    +0.000 OA
ENDROOT
BRANCH   1   2
ATOM      2  C   UNL     1       3.817   1.932  18.878  0.00  0.00    +0.000 C 
ATOM      3  O   UNL     1       4.199   0.846  18.475  0.00  0.00    +0.000 OA
BRANCH   2   7
ATOM      4  C   UNL     1       5.718   5.558  17.602  0.00  0.00    +0.000 A 
ATOM      5  C   UNL     1       5.154   4.677  16.676  0.00  0.00    +0.000 A 
ATOM      6  C   UNL     1       4.493   3.524  17.105  0.00  0.00    +0.000 A 
ATOM      7  C   UNL     1       4.406   3.236  18.470  0.00  0.00    +0.000 A 
ATOM      8  C   UNL     1       4.981   4.119  19.398  0.00  0.00    +0.000 A 
ATOM      9  C   UNL     1       5.640   5.271  18.964  0.00  0.00    +0.000 A 
BRANCH   4  11
ATOM     10  C   UNL     1       7.572   7.012  17.710  0.00  0.00    +0.000 C 
ATOM     11  O   UNL     1       6.358   6.640  17.064  0.00  0.00    +0.000 OA
ENDBRANCH   4  11
ENDBRANCH   2   7
ENDBRANCH   1   2
BRANCH   1  12
ATOM     12  C   UNL     1       1.557   2.184  19.461  0.00  0.00    +0.000 C 
BRANCH  12  13
ATOM     13  C   UNL     1       0.961   3.400  20.170  0.00  0.00    +0.000 C 
BRANCH  13  14
ATOM     14  C   UNL     1       1.458   4.710  19.634  0.00  0.00    +0.000 A 
ATOM     15  C   UNL     1       1.515   4.930  18.250  0.00  0.00    +0.000 A 
ATOM     16  C   UNL     1       1.963   6.153  17.747  0.00  0.00    +0.000 A 
ATOM     17  C   UNL     1       2.361   7.151  18.632  0.00  0.00    +0.000 A 
ATOM     18  C   UNL     1       2.318   6.943  20.006  0.00  0.00    +0.000 A 
ATOM     19  C   UNL     1       1.870   5.721  20.509  0.00  0.00    +0.000 A 
BRANCH  17  20
ATOM     20  O   UNL     1       2.801   8.359  18.185  0.00  0.00    +0.000 OA
ATOM     21  H   UNL     1       2.967   8.932  18.951  0.00  0.00    +0.000 HD
ENDBRANCH  17  20
ENDBRANCH  13  14
ENDBRANCH  12  13
ENDBRANCH   1  12
TORSDOF 7
ENDMDL
