MODEL 1
REMARK VINA RESULT:      -6.7      0.000      0.000
REMARK  Name = 
REMARK  10 active torsions:
REMARK  status: ('A' for Active; 'I' for Inactive)
REMARK    1  A    between atoms: C_1  and  C_2
REMARK    2  A    between atoms: C_2  and  C_3
REMARK    3  A    between atoms: C_3  and  C_4
REMARK    4  A    between atoms: C_7  and  S_8
REMARK    5  A    between atoms: S_8  and  C_9
REMARK    6  A    between atoms: C_9  and  C_10
REMARK    7  A    between atoms: C_13  and  C_14
REMARK    8  A    between atoms: C_14  and  O_16
REMARK    9  A    between atoms: O_16  and  C_17
REMARK   10  A    between atoms: N_19  and  N_20
REMARK                            x       y       z     vdW  Elec       q    Type
REMARK                         _______ _______ _______ _____ _____    ______ ____
ROOT
ATOM      1  C   UNL     1       6.346   4.203  14.064  0.00  0.00    +0.000 A 
ATOM      2  N   UNL     1       7.119   5.256  13.947  0.00  0.00    +0.000 NA
ATOM      3  N   UNL     1       7.617   5.564  15.197  0.00  0.00    +0.000 NA
ATOM      4  C   UNL     1       7.135   4.708  16.053  0.00  0.00    +0.000 A 
ATOM      5  N   UNL     1       6.304   3.809  15.385  0.00  0.00    +0.000 N 
ENDROOT
BRANCH   5   6
ATOM      6  N   UNL     1       5.543   2.674  15.857  0.00  0.00    +0.000 N 
ATOM      7  H   UNL     1       6.131   1.865  16.035  0.00  0.00    +0.000 HD
ATOM      8  H   UNL     1       5.095   2.874  16.754  0.00  0.00    +0.000 HD
ENDBRANCH   5   6
BRANCH   1   9
ATOM      9  C   UNL     1       5.607   3.550  12.941  0.00  0.00    +0.000 C 
BRANCH   9  11
ATOM     10  C   UNL     1       6.155   1.679  11.345  0.00  0.00    +0.000 C 
ATOM     11  C   UNL     1       6.568   3.046  11.864  0.00  0.00    +0.000 C 
ENDBRANCH   9  11
ENDBRANCH   1   9
BRANCH   4  12
ATOM     12  S   UNL     1       7.485   4.709  17.762  0.00  0.00    +0.000 S 
BRANCH  12  13
ATOM     13  C   UNL     1       6.337   5.980  18.471  0.00  0.00    +0.000 C 
BRANCH  13  14
ATOM     14  C   UNL     1       4.907   5.566  18.272  0.00  0.00    +0.000 A 
ATOM     15  C   UNL     1       3.769   6.285  17.970  0.00  0.00    +0.000 A 
ATOM     16  C   UNL     1       2.710   5.352  17.883  0.00  0.00    +0.000 A 
ATOM     17  C   UNL     1       3.246   4.101  18.128  0.00  0.00    +0.000 A 
ATOM     18  O   UNL     1       4.600   4.235  18.360  0.00  0.00    +0.000 OA
BRANCH  17  19
ATOM     19  C   UNL     1       2.629   2.792  18.167  0.00  0.00    +0.000 C 
ATOM     20  O   UNL     1       3.164   1.732  17.830  0.00  0.00    +0.000 OA
BRANCH  19  21
ATOM     21  O   UNL     1       1.355   2.899  18.635  0.00  0.00    +0.000 OA
ATOM     22  C   UNL     1       1.210   2.787  20.049  0.00  0.00    +0.000 C 
ENDBRANCH  19  21
ENDBRANCH  17  19
ENDBRANCH  13  14
ENDBRANCH  12  13
ENDBRANCH   4  12
TORSDOF 8
ENDMDL
MODEL 2
REMARK VINA RESULT:      -6.1      1.117      1.731
REMARK  Name = 
REMARK  10 active torsions:
REMARK  status: ('A' for Active; 'I' for Inactive)
REMARK    1  A    between atoms: C_1  and  C_2
REMARK    2  A    between atoms: C_2  and  C_3
REMARK    3  A    between atoms: C_3  and  C_4
REMARK    4  A    between atoms: C_7  and  S_8
REMARK    5  A    between atoms: S_8  and  C_9
REMARK    6  A    between atoms: C_9  and  C_10
REMARK    7  A    between atoms: C_13  and  C_14
REMARK    8  A    between atoms: C_14  and  O_16
REMARK    9  A    between atoms: O_16  and  C_17
REMARK   10  A    between atoms: N_19  and  N_20
REMARK                            x       y       z     vdW  Elec       q    Type
REMARK                         _______ _______ _______ _____ _____    ______ ____
ROOT
ATOM      1  C   UNL     1       6.353   4.035  13.574  0.00  0.00    +0.000 A 
ATOM      2  N   UNL     1       5.338   3.605  14.286  0.00  0.00    +0.000 NA
ATOM      3  N   UNL     1       5.369   4.246  15.508  0.00  0.00    +0.000 NA
ATOM      4  C   UNL     1       6.400   5.043  15.527  0.00  0.00    +0.000 A 
ATOM      5  N   UNL     1       7.078   4.947  14.311  0.00  0.00    +0.000 N 
ENDROOT
BRANCH   5   6
ATOM      6  N   UNL     1       8.260   5.617  13.816  0.00  0.00    +0.000 N 
ATOM      7  H   UNL     1       8.497   5.328  12.872  0.00  0.00    +0.000 HD
ATOM      8  H   UNL     1       8.114   6.627  13.751  0.00  0.00    +0.000 HD
ENDBRANCH   5   6
BRANCH   1   9
ATOM      9  C   UNL     1       6.682   3.585  12.187  0.00  0.00    +0.000 C 
BRANCH   9  11
ATOM     10  C   UNL     1       6.371   1.318  11.132  0.00  0.00    +0.000 C 
ATOM     11  C   UNL     1       5.674   2.550  11.686  0.00  0.00    +0.000 C 
ENDBRANCH   9  11
ENDBRANCH   1   9
BRANCH   4  12
ATOM     12  S   UNL     1       6.846   6.057  16.875  0.00  0.00    +0.000 S 
BRANCH  12  13
ATOM     13  C   UNL     1       6.103   5.222  18.352  0.00  0.00    +0.000 C 
BRANCH  13  14
ATOM     14  C   UNL     1       4.611   5.390  18.356  0.00  0.00    +0.000 A 
ATOM     15  C   UNL     1       3.801   6.477  18.093  0.00  0.00    +0.000 A 
ATOM     16  C   UNL     1       2.466   6.031  18.228  0.00  0.00    +0.000 A 
ATOM     17  C   UNL     1       2.515   4.690  18.560  0.00  0.00    +0.000 A 
ATOM     18  O   UNL     1       3.835   4.296  18.631  0.00  0.00    +0.000 OA
BRANCH  17  19
ATOM     19  C   UNL     1       1.458   3.733  18.817  0.00  0.00    +0.000 C 
ATOM     20  O   UNL     1       1.131   2.803  18.077  0.00  0.00    +0.000 OA
BRANCH  19  21
ATOM     21  O   UNL     1       0.869   4.012  20.013  0.00  0.00    +0.000 OA
ATOM     22  C   UNL     1       1.569   3.547  21.165  0.00  0.00    +0.000 C 
ENDBRANCH  19  21
ENDBRANCH  17  19
ENDBRANCH  13  14
ENDBRANCH  12  13
ENDBRANCH   4  12
TORSDOF 8
ENDMDL
MODEL 3
REMARK VINA RESULT:      -6.1      1.331      2.052
REMARK  Name = 
REMARK  10 active torsions:
REMARK  status: ('A' for Active; 'I' for Inactive)
REMARK    1  A    between atoms: C_1  and  C_2
REMARK    2  A    between atoms: C_2  and  C_3
REMARK    3  A    between atoms: C_3  and  C_4
REMARK    4  A    between atoms: C_7  and  S_8
REMARK    5  A    between atoms: S_8  and  C_9
REMARK    6  A    between atoms: C_9  and  C_10
REMARK    7  A    between atoms: C_13  and  C_14
REMARK    8  A    between atoms: C_14  and  O_16
REMARK    9  A    between atoms: O_16  and  C_17
REMARK   10  A    between atoms: N_19  and  N_20
REMARK                            x       y       z     vdW  Elec       q    Type
REMARK                         _______ _______ _______ _____ _____    ______ ____
ROOT
ATOM      1  C   UNL     1       6.353   4.085  13.564  0.00  0.00    +0.000 A 
ATOM      2  N   UNL     1       5.390   3.662  14.348  0.00  0.00    +0.000 NA
ATOM      3  N   UNL     1       5.518   4.298  15.566  0.00  0.00    +0.000 NA
ATOM      4  C   UNL     1       6.555   5.086  15.510  0.00  0.00    +0.000 A 
ATOM      5  N   UNL     1       7.139   4.988  14.247  0.00  0.00    +0.000 N 
ENDROOT
BRANCH   5   6
ATOM      6  N   UNL     1       8.287   5.649  13.667  0.00  0.00    +0.000 N 
ATOM      7  H   UNL     1       8.204   5.748  12.659  0.00  0.00    +0.000 HD
ATOM      8  H   UNL     1       8.380   6.605  14.016  0.00  0.00    +0.000 HD
ENDBRANCH   5   6
BRANCH   1   9
ATOM      9  C   UNL     1       6.574   3.636  12.155  0.00  0.00    +0.000 C 
BRANCH   9  11
ATOM     10  C   UNL     1       6.392   1.359  11.092  0.00  0.00    +0.000 C 
ATOM     11  C   UNL     1       5.641   2.482  11.788  0.00  0.00    +0.000 C 
ENDBRANCH   9  11
ENDBRANCH   1   9
BRANCH   4  12
ATOM     12  S   UNL     1       7.109   6.092  16.823  0.00  0.00    +0.000 S 
BRANCH  12  13
ATOM     13  C   UNL     1       7.102   4.975  18.301  0.00  0.00    +0.000 C 
BRANCH  13  14
ATOM     14  C   UNL     1       5.719   4.874  18.877  0.00  0.00    +0.000 A 
ATOM     15  C   UNL     1       4.777   5.830  19.196  0.00  0.00    +0.000 A 
ATOM     16  C   UNL     1       3.644   5.138  19.683  0.00  0.00    +0.000 A 
ATOM     17  C   UNL     1       3.937   3.788  19.633  0.00  0.00    +0.000 A 
ATOM     18  O   UNL     1       5.212   3.628  19.130  0.00  0.00    +0.000 OA
BRANCH  17  19
ATOM     19  C   UNL     1       3.153   2.629  20.004  0.00  0.00    +0.000 C 
ATOM     20  O   UNL     1       2.583   2.459  21.085  0.00  0.00    +0.000 OA
BRANCH  19  21
ATOM     21  O   UNL     1       3.135   1.739  18.973  0.00  0.00    +0.000 OA
ATOM     22  C   UNL     1       2.447   2.172  17.802  0.00  0.00    +0.000 C 
ENDBRANCH  19  21
ENDBRANCH  17  19
ENDBRANCH  13  14
ENDBRANCH  12  13
ENDBRANCH   4  12
TORSDOF 8
ENDMDL
MODEL 4
REMARK VINA RESULT:      -6.1      1.423      1.528
REMARK  Name = 
REMARK  10 active torsions:
REMARK  status: ('A' for Active; 'I' for Inactive)
REMARK    1  A    between atoms: C_1  and  C_2
REMARK    2  A    between atoms: C_2  and  C_3
REMARK    3  A    between atoms: C_3  and  C_4
REMARK    4  A    between atoms: C_7  and  S_8
REMARK    5  A    between atoms: S_8  and  C_9
REMARK    6  A    between atoms: C_9  and  C_10
REMARK    7  A    between atoms: C_13  and  C_14
REMARK    8  A    between atoms: C_14  and  O_16
REMARK    9  A    between atoms: O_16  and  C_17
REMARK   10  A    between atoms: N_19  and  N_20
REMARK                            x       y       z     vdW  Elec       q    Type
REMARK                         _______ _______ _______ _____ _____    ______ ____
ROOT
ATOM      1  C   UNL     1       6.399   4.449  14.365  0.00  0.00    +0.000 A 
ATOM      2  N   UNL     1       7.473   5.202  14.318  0.00  0.00    +0.000 NA
ATOM      3  N   UNL     1       7.589   5.858  15.526  0.00  0.00    +0.000 NA
ATOM      4  C   UNL     1       6.587   5.508  16.282  0.00  0.00    +0.000 A 
ATOM      5  N   UNL     1       5.781   4.606  15.587  0.00  0.00    +0.000 N 
ENDROOT
BRANCH   5   6
ATOM      6  N   UNL     1       4.570   3.912  15.966  0.00  0.00    +0.000 N 
ATOM      7  H   UNL     1       4.762   3.001  16.375  0.00  0.00    +0.000 HD
ATOM      8  H   UNL     1       4.061   4.422  16.691  0.00  0.00    +0.000 HD
ENDBRANCH   5   6
BRANCH   1   9
ATOM      9  C   UNL     1       5.912   3.577  13.253  0.00  0.00    +0.000 C 
BRANCH   9  11
ATOM     10  C   UNL     1       6.950   2.329  11.326  0.00  0.00    +0.000 C 
ATOM     11  C   UNL     1       6.828   3.669  12.033  0.00  0.00    +0.000 C 
ENDBRANCH   9  11
ENDBRANCH   1   9
BRANCH   4  12
ATOM     12  S   UNL     1       6.314   6.092  17.903  0.00  0.00    +0.000 S 
BRANCH  12  13
ATOM     13  C   UNL     1       4.634   6.871  17.840  0.00  0.00    +0.000 C 
BRANCH  13  14
ATOM     14  C   UNL     1       3.690   6.161  18.768  0.00  0.00    +0.000 A 
ATOM     15  C   UNL     1       2.602   6.600  19.495  0.00  0.00    +0.000 A 
ATOM     16  C   UNL     1       2.084   5.472  20.172  0.00  0.00    +0.000 A 
ATOM     17  C   UNL     1       2.871   4.390  19.825  0.00  0.00    +0.000 A 
ATOM     18  O   UNL     1       3.854   4.816  18.955  0.00  0.00    +0.000 OA
BRANCH  17  19
ATOM     19  C   UNL     1       2.803   2.998  20.217  0.00  0.00    +0.000 C 
ATOM     20  O   UNL     1       3.758   2.299  20.565  0.00  0.00    +0.000 OA
BRANCH  19  21
ATOM     21  O   UNL     1       1.514   2.565  20.147  0.00  0.00    +0.000 OA
ATOM     22  C   UNL     1       1.052   2.223  18.842  0.00  0.00    +0.000 C 
ENDBRANCH  19  21
ENDBRANCH  17  19
ENDBRANCH  13  14
ENDBRANCH  12  13
ENDBRANCH   4  12
TORSDOF 8
ENDMDL
MODEL 5
REMARK VINA RESULT:      -6.1      1.600      2.250
REMARK  Name = 
REMARK  10 active torsions:
REMARK  status: ('A' for Active; 'I' for Inactive)
REMARK    1  A    between atoms: C_1  and  C_2
REMARK    2  A    between atoms: C_2  and  C_3
REMARK    3  A    between atoms: C_3  and  C_4
REMARK    4  A    between atoms: C_7  and  S_8
REMARK    5  A    between atoms: S_8  and  C_9
REMARK    6  A    between atoms: C_9  and  C_10
REMARK    7  A    between atoms: C_13  and  C_14
REMARK    8  A    between atoms: C_14  and  O_16
REMARK    9  A    between atoms: O_16  and  C_17
REMARK   10  A    between atoms: N_19  and  N_20
REMARK                            x       y       z     vdW  Elec       q    Type
REMARK                         _______ _______ _______ _____ _____    ______ ____
ROOT
ATOM      1  C   UNL     1       6.358   3.956  13.598  0.00  0.00    +0.000 A 
ATOM      2  N   UNL     1       5.467   3.459  14.422  0.00  0.00    +0.000 NA
ATOM      3  N   UNL     1       5.620   4.081  15.645  0.00  0.00    +0.000 NA
ATOM      4  C   UNL     1       6.601   4.932  15.552  0.00  0.00    +0.000 A 
ATOM      5  N   UNL     1       7.123   4.894  14.258  0.00  0.00    +0.000 N 
ENDROOT
BRANCH   5   6
ATOM      6  N   UNL     1       8.195   5.635  13.633  0.00  0.00    +0.000 N 
ATOM      7  H   UNL     1       8.460   6.455  14.173  0.00  0.00    +0.000 HD
ATOM      8  H   UNL     1       9.048   5.075  13.574  0.00  0.00    +0.000 HD
ENDBRANCH   5   6
BRANCH   1   9
ATOM      9  C   UNL     1       6.531   3.547  12.170  0.00  0.00    +0.000 C 
BRANCH   9  11
ATOM     10  C   UNL     1       4.210   3.234  11.241  0.00  0.00    +0.000 C 
ATOM     11  C   UNL     1       5.462   2.538  11.749  0.00  0.00    +0.000 C 
ENDBRANCH   9  11
ENDBRANCH   1   9
BRANCH   4  12
ATOM     12  S   UNL     1       7.162   5.947  16.856  0.00  0.00    +0.000 S 
BRANCH  12  13
ATOM     13  C   UNL     1       6.521   5.130  18.390  0.00  0.00    +0.000 C 
BRANCH  13  14
ATOM     14  C   UNL     1       5.076   5.478  18.606  0.00  0.00    +0.000 A 
ATOM     15  C   UNL     1       4.241   6.389  17.991  0.00  0.00    +0.000 A 
ATOM     16  C   UNL     1       2.972   6.253  18.601  0.00  0.00    +0.000 A 
ATOM     17  C   UNL     1       3.082   5.260  19.556  0.00  0.00    +0.000 A 
ATOM     18  O   UNL     1       4.376   4.780  19.552  0.00  0.00    +0.000 OA
BRANCH  17  19
ATOM     19  C   UNL     1       2.107   4.709  20.473  0.00  0.00    +0.000 C 
ATOM     20  O   UNL     1       0.970   5.146  20.666  0.00  0.00    +0.000 OA
BRANCH  19  21
ATOM     21  O   UNL     1       2.633   3.621  21.102  0.00  0.00    +0.000 OA
ATOM     22  C   UNL     1       1.685   2.676  21.590  0.00  0.00    +0.000 C 
ENDBRANCH  19  21
ENDBRANCH  17  19
ENDBRANCH  13  14
ENDBRANCH  12  13
ENDBRANCH   4  12
TORSDOF 8
ENDMDL
MODEL 6
REMARK VINA RESULT:      -6.1      1.387      1.935
REMARK  Name = 
REMARK  10 active torsions:
REMARK  status: ('A' for Active; 'I' for Inactive)
REMARK    1  A    between atoms: C_1  and  C_2
REMARK    2  A    between atoms: C_2  and  C_3
REMARK    3  A    between atoms: C_3  and  C_4
REMARK    4  A    between atoms: C_7  and  S_8
REMARK    5  A    between atoms: S_8  and  C_9
REMARK    6  A    between atoms: C_9  and  C_10
REMARK    7  A    between atoms: C_13  and  C_14
REMARK    8  A    between atoms: C_14  and  O_16
REMARK    9  A    between atoms: O_16  and  C_17
REMARK   10  A    between atoms: N_19  and  N_20
REMARK                            x       y       z     vdW  Elec       q    Type
REMARK                         _______ _______ _______ _____ _____    ______ ____
ROOT
ATOM      1  C   UNL     1       6.315   3.908  13.672  0.00  0.00    +0.000 A 
ATOM      2  N   UNL     1       5.441   3.352  14.477  0.00  0.00    +0.000 NA
ATOM      3  N   UNL     1       5.614   3.891  15.736  0.00  0.00    +0.000 NA
ATOM      4  C   UNL     1       6.590   4.752  15.682  0.00  0.00    +0.000 A 
ATOM      5  N   UNL     1       7.088   4.804  14.380  0.00  0.00    +0.000 N 
ENDROOT
BRANCH   5   6
ATOM      6  N   UNL     1       8.145   5.591  13.787  0.00  0.00    +0.000 N 
ATOM      7  H   UNL     1       9.058   5.160  13.905  0.00  0.00    +0.000 HD
ATOM      8  H   UNL     1       8.024   5.673  12.775  0.00  0.00    +0.000 HD
ENDBRANCH   5   6
BRANCH   1   9
ATOM      9  C   UNL     1       6.462   3.598  12.217  0.00  0.00    +0.000 C 
BRANCH   9  11
ATOM     10  C   UNL     1       4.159   3.251  11.257  0.00  0.00    +0.000 C 
ATOM     11  C   UNL     1       5.423   2.574  11.760  0.00  0.00    +0.000 C 
ENDBRANCH   9  11
ENDBRANCH   1   9
BRANCH   4  12
ATOM     12  S   UNL     1       7.171   5.680  17.041  0.00  0.00    +0.000 S 
BRANCH  12  13
ATOM     13  C   UNL     1       5.888   6.992  17.291  0.00  0.00    +0.000 C 
BRANCH  13  14
ATOM     14  C   UNL     1       4.651   6.407  17.911  0.00  0.00    +0.000 A 
ATOM     15  C   UNL     1       3.320   6.759  17.829  0.00  0.00    +0.000 A 
ATOM     16  C   UNL     1       2.603   5.824  18.611  0.00  0.00    +0.000 A 
ATOM     17  C   UNL     1       3.525   4.935  19.132  0.00  0.00    +0.000 A 
ATOM     18  O   UNL     1       4.784   5.292  18.694  0.00  0.00    +0.000 OA
BRANCH  17  19
ATOM     19  C   UNL     1       3.357   3.784  19.995  0.00  0.00    +0.000 C 
ATOM     20  O   UNL     1       3.950   2.708  19.886  0.00  0.00    +0.000 OA
BRANCH  19  21
ATOM     21  O   UNL     1       2.436   4.065  20.958  0.00  0.00    +0.000 OA
ATOM     22  C   UNL     1       1.283   3.227  20.968  0.00  0.00    +0.000 C 
ENDBRANCH  19  21
ENDBRANCH  17  19
ENDBRANCH  13  14
ENDBRANCH  12  13
ENDBRANCH   4  12
TORSDOF 8
ENDMDL
MODEL 7
REMARK VINA RESULT:      -6.1      1.258      1.513
REMARK  Name = 
REMARK  10 active torsions:
REMARK  status: ('A' for Active; 'I' for Inactive)
REMARK    1  A    between atoms: C_1  and  C_2
REMARK    2  A    between atoms: C_2  and  C_3
REMARK    3  A    between atoms: C_3  and  C_4
REMARK    4  A    between atoms: C_7  and  S_8
REMARK    5  A    between atoms: S_8  and  C_9
REMARK    6  A    between atoms: C_9  and  C_10
REMARK    7  A    between atoms: C_13  and  C_14
REMARK    8  A    between atoms: C_14  and  O_16
REMARK    9  A    between atoms: O_16  and  C_17
REMARK   10  A    between atoms: N_19  and  N_20
REMARK                            x       y       z     vdW  Elec       q    Type
REMARK                         _______ _______ _______ _____ _____    ______ ____
ROOT
ATOM      1  C   UNL     1       6.767   4.393  14.374  0.00  0.00    +0.000 A 
ATOM      2  N   UNL     1       7.449   5.505  14.512  0.00  0.00    +0.000 NA
ATOM      3  N   UNL     1       7.571   5.769  15.861  0.00  0.00    +0.000 NA
ATOM      4  C   UNL     1       6.957   4.827  16.520  0.00  0.00    +0.000 A 
ATOM      5  N   UNL     1       6.413   3.913  15.617  0.00  0.00    +0.000 N 
ENDROOT
BRANCH   5   6
ATOM      6  N   UNL     1       5.658   2.697  15.820  0.00  0.00    +0.000 N 
ATOM      7  H   UNL     1       6.251   1.872  15.819  0.00  0.00    +0.000 HD
ATOM      8  H   UNL     1       5.204   2.691  16.736  0.00  0.00    +0.000 HD
ENDBRANCH   5   6
BRANCH   1   9
ATOM      9  C   UNL     1       6.411   3.759  13.068  0.00  0.00    +0.000 C 
BRANCH   9  11
ATOM     10  C   UNL     1       4.546   3.228  11.460  0.00  0.00    +0.000 C 
ATOM     11  C   UNL     1       4.916   3.890  12.777  0.00  0.00    +0.000 C 
ENDBRANCH   9  11
ENDBRANCH   1   9
BRANCH   4  12
ATOM     12  S   UNL     1       6.843   4.745  18.260  0.00  0.00    +0.000 S 
BRANCH  12  13
ATOM     13  C   UNL     1       5.467   5.908  18.691  0.00  0.00    +0.000 C 
BRANCH  13  14
ATOM     14  C   UNL     1       4.135   5.278  18.399  0.00  0.00    +0.000 A 
ATOM     15  C   UNL     1       3.388   5.186  17.242  0.00  0.00    +0.000 A 
ATOM     16  C   UNL     1       2.223   4.453  17.568  0.00  0.00    +0.000 A 
ATOM     17  C   UNL     1       2.311   4.121  18.907  0.00  0.00    +0.000 A 
ATOM     18  O   UNL     1       3.491   4.623  19.414  0.00  0.00    +0.000 OA
BRANCH  17  19
ATOM     19  C   UNL     1       1.409   3.381  19.765  0.00  0.00    +0.000 C 
ATOM     20  O   UNL     1       0.560   2.569  19.391  0.00  0.00    +0.000 OA
BRANCH  19  21
ATOM     21  O   UNL     1       1.639   3.715  21.065  0.00  0.00    +0.000 OA
ATOM     22  C   UNL     1       1.779   2.618  21.965  0.00  0.00    +0.000 C 
ENDBRANCH  19  21
ENDBRANCH  17  19
ENDBRANCH  13  14
ENDBRANCH  12  13
ENDBRANCH   4  12
TORSDOF 8
ENDMDL
MODEL 8
REMARK VINA RESULT:      -6.0      1.545      1.763
REMARK  Name = 
REMARK  10 active torsions:
REMARK  status: ('A' for Active; 'I' for Inactive)
REMARK    1  A    between atoms: C_1  and  C_2
REMARK    2  A    between atoms: C_2  and  C_3
REMARK    3  A    between atoms: C_3  and  C_4
REMARK    4  A    between atoms: C_7  and  S_8
REMARK    5  A    between atoms: S_8  and  C_9
REMARK    6  A    between atoms: C_9  and  C_10
REMARK    7  A    between atoms: C_13  and  C_14
REMARK    8  A    between atoms: C_14  and  O_16
REMARK    9  A    between atoms: O_16  and  C_17
REMARK   10  A    between atoms: N_19  and  N_20
REMARK                            x       y       z     vdW  Elec       q    Type
REMARK                         _______ _______ _______ _____ _____    ______ ____
ROOT
ATOM      1  C   UNL     1       6.061   4.676  14.635  0.00  0.00    +0.000 A 
ATOM      2  N   UNL     1       7.033   3.883  15.018  0.00  0.00    +0.000 NA
ATOM      3  N   UNL     1       7.614   4.429  16.144  0.00  0.00    +0.000 NA
ATOM      4  C   UNL     1       6.999   5.544  16.424  0.00  0.00    +0.000 A 
ATOM      5  N   UNL     1       5.992   5.761  15.483  0.00  0.00    +0.000 N 
ENDROOT
BRANCH   5   6
ATOM      6  N   UNL     1       5.023   6.825  15.343  0.00  0.00    +0.000 N 
ATOM      7  H   UNL     1       5.054   7.477  16.122  0.00  0.00    +0.000 HD
ATOM      8  H   UNL     1       5.215   7.395  14.517  0.00  0.00    +0.000 HD
ENDBRANCH   5   6
BRANCH   1   9
ATOM      9  C   UNL     1       5.182   4.447  13.448  0.00  0.00    +0.000 C 
BRANCH   9  11
ATOM     10  C   UNL     1       4.777   2.832  11.557  0.00  0.00    +0.000 C 
ATOM     11  C   UNL     1       5.819   3.461  12.468  0.00  0.00    +0.000 C 
ENDBRANCH   9  11
ENDBRANCH   1   9
BRANCH   4  12
ATOM     12  S   UNL     1       7.394   6.587  17.766  0.00  0.00    +0.000 S 
BRANCH  12  13
ATOM     13  C   UNL     1       6.908   5.617  19.267  0.00  0.00    +0.000 C 
BRANCH  13  14
ATOM     14  C   UNL     1       5.463   5.214  19.188  0.00  0.00    +0.000 A 
ATOM     15  C   UNL     1       4.339   5.882  18.747  0.00  0.00    +0.000 A 
ATOM     16  C   UNL     1       3.253   4.987  18.889  0.00  0.00    +0.000 A 
ATOM     17  C   UNL     1       3.760   3.808  19.403  0.00  0.00    +0.000 A 
ATOM     18  O   UNL     1       5.121   3.948  19.580  0.00  0.00    +0.000 OA
BRANCH  17  19
ATOM     19  C   UNL     1       3.108   2.561  19.747  0.00  0.00    +0.000 C 
ATOM     20  O   UNL     1       2.712   1.710  18.947  0.00  0.00    +0.000 OA
BRANCH  19  21
ATOM     21  O   UNL     1       2.994   2.462  21.100  0.00  0.00    +0.000 OA
ATOM     22  C   UNL     1       1.677   2.629  21.619  0.00  0.00    +0.000 C 
ENDBRANCH  19  21
ENDBRANCH  17  19
ENDBRANCH  13  14
ENDBRANCH  12  13
ENDBRANCH   4  12
TORSDOF 8
ENDMDL
MODEL 9
REMARK VINA RESULT:      -6.0      1.384      1.654
REMARK  Name = 
REMARK  10 active torsions:
REMARK  status: ('A' for Active; 'I' for Inactive)
REMARK    1  A    between atoms: C_1  and  C_2
REMARK    2  A    between atoms: C_2  and  C_3
REMARK    3  A    between atoms: C_3  and  C_4
REMARK    4  A    between atoms: C_7  and  S_8
REMARK    5  A    between atoms: S_8  and  C_9
REMARK    6  A    between atoms: C_9  and  C_10
REMARK    7  A    between atoms: C_13  and  C_14
REMARK    8  A    between atoms: C_14  and  O_16
REMARK    9  A    between atoms: O_16  and  C_17
REMARK   10  A    between atoms: N_19  and  N_20
REMARK                            x       y       z     vdW  Elec       q    Type
REMARK                         _______ _______ _______ _____ _____    ______ ____
ROOT
ATOM      1  C   UNL     1       6.501   4.214  14.503  0.00  0.00    +0.000 A 
ATOM      2  N   UNL     1       7.484   5.075  14.384  0.00  0.00    +0.000 NA
ATOM      3  N   UNL     1       7.493   5.873  15.510  0.00  0.00    +0.000 NA
ATOM      4  C   UNL     1       6.518   5.497  16.287  0.00  0.00    +0.000 A 
ATOM      5  N   UNL     1       5.837   4.435  15.690  0.00  0.00    +0.000 N 
ENDROOT
BRANCH   5   6
ATOM      6  N   UNL     1       4.703   3.654  16.130  0.00  0.00    +0.000 N 
ATOM      7  H   UNL     1       4.056   4.199  16.693  0.00  0.00    +0.000 HD
ATOM      8  H   UNL     1       4.148   3.327  15.337  0.00  0.00    +0.000 HD
ENDBRANCH   5   6
BRANCH   1   9
ATOM      9  C   UNL     1       6.145   3.171  13.492  0.00  0.00    +0.000 C 
BRANCH   9  11
ATOM     10  C   UNL     1       4.476   3.229  11.606  0.00  0.00    +0.000 C 
ATOM     11  C   UNL     1       5.774   3.803  12.150  0.00  0.00    +0.000 C 
ENDBRANCH   9  11
ENDBRANCH   1   9
BRANCH   4  12
ATOM     12  S   UNL     1       6.137   6.224  17.827  0.00  0.00    +0.000 S 
BRANCH  12  13
ATOM     13  C   UNL     1       4.436   6.922  17.604  0.00  0.00    +0.000 C 
BRANCH  13  14
ATOM     14  C   UNL     1       3.448   6.184  18.461  0.00  0.00    +0.000 A 
ATOM     15  C   UNL     1       2.694   6.574  19.550  0.00  0.00    +0.000 A 
ATOM     16  C   UNL     1       1.922   5.452  19.931  0.00  0.00    +0.000 A 
ATOM     17  C   UNL     1       2.229   4.427  19.056  0.00  0.00    +0.000 A 
ATOM     18  O   UNL     1       3.164   4.882  18.148  0.00  0.00    +0.000 OA
BRANCH  17  19
ATOM     19  C   UNL     1       1.742   3.066  18.974  0.00  0.00    +0.000 C 
ATOM     20  O   UNL     1       0.867   2.657  18.207  0.00  0.00    +0.000 OA
BRANCH  19  21
ATOM     21  O   UNL     1       2.400   2.290  19.880  0.00  0.00    +0.000 OA
ATOM     22  C   UNL     1       3.774   2.043  19.594  0.00  0.00    +0.000 C 
ENDBRANCH  19  21
ENDBRANCH  17  19
ENDBRANCH  13  14
ENDBRANCH  12  13
ENDBRANCH   4  12
TORSDOF 8
ENDMDL
