MODEL 1
REMARK VINA RESULT:      -9.2      0.000      0.000
REMARK  Name = 
REMARK  9 active torsions:
REMARK  status: ('A' for Active; 'I' for Inactive)
REMARK    1  A    between atoms: C_2  and  O_3
REMARK    2  A    between atoms: C_2  and  C_4
REMARK    3  A    between atoms: C_6  and  C_7
REMARK    4  A    between atoms: C_7  and  C_9
REMARK    5  A    between atoms: C_9  and  C_11
REMARK    6  A    between atoms: C_13  and  C_14
REMARK    7  A    between atoms: C_14  and  O_16
REMARK    8  A    between atoms: C_17  and  O_18
REMARK    9  A    between atoms: C_31  and  O_32
REMARK                            x       y       z     vdW  Elec       q    Type
REMARK                         _______ _______ _______ _____ _____    ______ ____
ROOT
ATOM      1  C   UNL     1       1.907   8.080  19.390  0.00  0.00    +0.000 C 
ATOM      2  O   UNL     1       1.738   8.171  20.600  0.00  0.00    +0.000 OA
ENDROOT
BRANCH   1   5
ATOM      3  C   UNL     1       4.354   6.174  17.238  0.00  0.00    +0.000 A 
ATOM      4  C   UNL     1       3.618   7.209  17.821  0.00  0.00    +0.000 A 
ATOM      5  C   UNL     1       2.598   6.925  18.741  0.00  0.00    +0.000 A 
ATOM      6  C   UNL     1       2.268   5.574  19.067  0.00  0.00    +0.000 A 
ATOM      7  C   UNL     1       1.224   5.207  19.958  0.00  0.00    +0.000 A 
ATOM      8  C   UNL     1       0.918   3.879  20.250  0.00  0.00    +0.000 A 
ATOM      9  C   UNL     1       1.648   2.862  19.666  0.00  0.00    +0.000 A 
ATOM     10  C   UNL     1       2.686   3.178  18.793  0.00  0.00    +0.000 A 
ATOM     11  C   UNL     1       3.012   4.518  18.464  0.00  0.00    +0.000 A 
ATOM     12  C   UNL     1       4.056   4.845  17.563  0.00  0.00    +0.000 A 
BRANCH   3  14
ATOM     13  O   UNL     1       5.297   6.321  15.066  0.00  0.00    +0.000 OA
ATOM     14  C   UNL     1       5.408   6.555  16.258  0.00  0.00    +0.000 C 
BRANCH  14  15
ATOM     15  O   UNL     1       6.454   7.223  16.786  0.00  0.00    +0.000 OA
ATOM     16  H   UNL     1       6.521   8.142  16.445  0.00  0.00    +0.000 HD
ENDBRANCH  14  15
ENDBRANCH   3  14
BRANCH  12  17
ATOM     17  O   UNL     1       4.832   3.869  16.980  0.00  0.00    +0.000 OA
ATOM     18  H   UNL     1       5.488   3.555  17.630  0.00  0.00    +0.000 HD
ENDBRANCH  12  17
ENDBRANCH   1   5
BRANCH   1  19
ATOM     19  C   UNL     1       1.386   9.213  18.539  0.00  0.00    +0.000 C 
ATOM     20  O   UNL     1       1.944   9.398  17.466  0.00  0.00    +0.000 OA
BRANCH  19  21
ATOM     21  C   UNL     1       0.262  10.060  19.053  0.00  0.00    +0.000 A 
ATOM     22  C   UNL     1       0.435  10.685  20.299  0.00  0.00    +0.000 A 
ATOM     23  C   UNL     1      -0.550  11.528  20.817  0.00  0.00    +0.000 A 
ATOM     24  C   UNL     1      -1.725  11.737  20.094  0.00  0.00    +0.000 A 
ATOM     25  C   UNL     1      -1.941  11.121  18.843  0.00  0.00    +0.000 A 
ATOM     26  C   UNL     1      -3.134  11.337  18.119  0.00  0.00    +0.000 A 
ATOM     27  C   UNL     1      -3.364  10.727  16.888  0.00  0.00    +0.000 A 
ATOM     28  C   UNL     1      -2.404   9.886  16.354  0.00  0.00    +0.000 A 
ATOM     29  C   UNL     1      -1.217   9.658  17.050  0.00  0.00    +0.000 A 
ATOM     30  C   UNL     1      -0.938  10.264  18.303  0.00  0.00    +0.000 A 
BRANCH  23  31
ATOM     31  C   UNL     1      -0.299  12.140  22.146  0.00  0.00    +0.000 C 
ATOM     32  O   UNL     1      -0.045  13.326  22.272  0.00  0.00    +0.000 OA
BRANCH  31  33
ATOM     33  O   UNL     1      -0.404  11.287  23.184  0.00  0.00    +0.000 OA
ATOM     34  H   UNL     1      -1.230  10.755  23.177  0.00  0.00    +0.000 HD
ENDBRANCH  31  33
ENDBRANCH  23  31
BRANCH  24  35
ATOM     35  O   UNL     1      -2.685  12.572  20.615  0.00  0.00    +0.000 OA
ATOM     36  H   UNL     1      -2.325  12.916  21.458  0.00  0.00    +0.000 HD
ENDBRANCH  24  35
ENDBRANCH  19  21
ENDBRANCH   1  19
TORSDOF 9
ENDMDL
MODEL 2
REMARK VINA RESULT:      -9.2      0.094      8.223
REMARK  Name = 
REMARK  9 active torsions:
REMARK  status: ('A' for Active; 'I' for Inactive)
REMARK    1  A    between atoms: C_2  and  O_3
REMARK    2  A    between atoms: C_2  and  C_4
REMARK    3  A    between atoms: C_6  and  C_7
REMARK    4  A    between atoms: C_7  and  C_9
REMARK    5  A    between atoms: C_9  and  C_11
REMARK    6  A    between atoms: C_13  and  C_14
REMARK    7  A    between atoms: C_14  and  O_16
REMARK    8  A    between atoms: C_17  and  O_18
REMARK    9  A    between atoms: C_31  and  O_32
REMARK                            x       y       z     vdW  Elec       q    Type
REMARK                         _______ _______ _______ _____ _____    ______ ____
ROOT
ATOM      1  C   UNL     1       1.312   9.246  18.561  0.00  0.00    +0.000 C 
ATOM      2  O   UNL     1       1.847   9.414  17.472  0.00  0.00    +0.000 OA
ENDROOT
BRANCH   1   5
ATOM      3  C   UNL     1      -0.643  11.580  20.793  0.00  0.00    +0.000 A 
ATOM      4  C   UNL     1       0.342  10.718  20.305  0.00  0.00    +0.000 A 
ATOM      5  C   UNL     1       0.184  10.089  19.062  0.00  0.00    +0.000 A 
ATOM      6  C   UNL     1      -1.003  10.287  18.291  0.00  0.00    +0.000 A 
ATOM      7  C   UNL     1      -1.252   9.655  17.044  0.00  0.00    +0.000 A 
ATOM      8  C   UNL     1      -2.424   9.860  16.319  0.00  0.00    +0.000 A 
ATOM      9  C   UNL     1      -3.395  10.711  16.811  0.00  0.00    +0.000 A 
ATOM     10  C   UNL     1      -3.188  11.358  18.026  0.00  0.00    +0.000 A 
ATOM     11  C   UNL     1      -2.013  11.158  18.794  0.00  0.00    +0.000 A 
ATOM     12  C   UNL     1      -1.803  11.801  20.040  0.00  0.00    +0.000 A 
BRANCH   3  14
ATOM     13  O   UNL     1      -0.262  13.399  22.268  0.00  0.00    +0.000 OA
ATOM     14  C   UNL     1      -0.411  12.196  22.128  0.00  0.00    +0.000 C 
BRANCH  14  15
ATOM     15  O   UNL     1      -0.437  11.330  23.161  0.00  0.00    +0.000 OA
ATOM     16  H   UNL     1       0.045  11.670  23.947  0.00  0.00    +0.000 HD
ENDBRANCH  14  15
ENDBRANCH   3  14
BRANCH  12  17
ATOM     17  O   UNL     1      -2.727  12.682  20.557  0.00  0.00    +0.000 OA
ATOM     18  H   UNL     1      -2.448  12.943  21.454  0.00  0.00    +0.000 HD
ENDBRANCH  12  17
ENDBRANCH   1   5
BRANCH   1  19
ATOM     19  C   UNL     1       1.848   8.128  19.423  0.00  0.00    +0.000 C 
ATOM     20  O   UNL     1       1.704   8.246  20.632  0.00  0.00    +0.000 OA
BRANCH  19  21
ATOM     21  C   UNL     1       2.546   6.972  18.774  0.00  0.00    +0.000 A 
ATOM     22  C   UNL     1       3.566   7.261  17.853  0.00  0.00    +0.000 A 
ATOM     23  C   UNL     1       4.293   6.235  17.247  0.00  0.00    +0.000 A 
ATOM     24  C   UNL     1       3.990   4.907  17.549  0.00  0.00    +0.000 A 
ATOM     25  C   UNL     1       2.966   4.574  18.462  0.00  0.00    +0.000 A 
ATOM     26  C   UNL     1       2.664   3.227  18.760  0.00  0.00    +0.000 A 
ATOM     27  C   UNL     1       1.650   2.885  19.652  0.00  0.00    +0.000 A 
ATOM     28  C   UNL     1       0.914   3.884  20.264  0.00  0.00    +0.000 A 
ATOM     29  C   UNL     1       1.195   5.222  19.986  0.00  0.00    +0.000 A 
ATOM     30  C   UNL     1       2.223   5.615  19.090  0.00  0.00    +0.000 A 
BRANCH  23  31
ATOM     31  C   UNL     1       5.347   6.622  16.275  0.00  0.00    +0.000 C 
ATOM     32  O   UNL     1       5.252   6.369  15.087  0.00  0.00    +0.000 OA
BRANCH  31  33
ATOM     33  O   UNL     1       6.384   7.293  16.813  0.00  0.00    +0.000 OA
ATOM     34  H   UNL     1       7.072   6.710  17.203  0.00  0.00    +0.000 HD
ENDBRANCH  31  33
ENDBRANCH  23  31
BRANCH  24  35
ATOM     35  O   UNL     1       4.716   3.907  16.948  0.00  0.00    +0.000 OA
ATOM     36  H   UNL     1       5.066   3.346  17.671  0.00  0.00    +0.000 HD
ENDBRANCH  24  35
ENDBRANCH  19  21
ENDBRANCH   1  19
TORSDOF 9
ENDMDL
MODEL 3
REMARK VINA RESULT:      -9.1      1.967      8.444
REMARK  Name = 
REMARK  9 active torsions:
REMARK  status: ('A' for Active; 'I' for Inactive)
REMARK    1  A    between atoms: C_2  and  O_3
REMARK    2  A    between atoms: C_2  and  C_4
REMARK    3  A    between atoms: C_6  and  C_7
REMARK    4  A    between atoms: C_7  and  C_9
REMARK    5  A    between atoms: C_9  and  C_11
REMARK    6  A    between atoms: C_13  and  C_14
REMARK    7  A    between atoms: C_14  and  O_16
REMARK    8  A    between atoms: C_17  and  O_18
REMARK    9  A    between atoms: C_31  and  O_32
REMARK                            x       y       z     vdW  Elec       q    Type
REMARK                         _______ _______ _______ _____ _____    ______ ____
ROOT
ATOM      1  C   UNL     1       1.351   8.837  18.957  0.00  0.00    +0.000 C 
ATOM      2  O   UNL     1       1.150   8.738  17.753  0.00  0.00    +0.000 OA
ENDROOT
BRANCH   1   5
ATOM      3  C   UNL     1      -0.165  10.900  21.732  0.00  0.00    +0.000 A 
ATOM      4  C   UNL     1       0.169   9.830  20.897  0.00  0.00    +0.000 A 
ATOM      5  C   UNL     1       0.962  10.036  19.759  0.00  0.00    +0.000 A 
ATOM      6  C   UNL     1       1.409  11.348  19.412  0.00  0.00    +0.000 A 
ATOM      7  C   UNL     1       2.180  11.640  18.256  0.00  0.00    +0.000 A 
ATOM      8  C   UNL     1       2.594  12.933  17.936  0.00  0.00    +0.000 A 
ATOM      9  C   UNL     1       2.256  13.986  18.764  0.00  0.00    +0.000 A 
ATOM     10  C   UNL     1       1.508  13.742  19.913  0.00  0.00    +0.000 A 
ATOM     11  C   UNL     1       1.059  12.442  20.257  0.00  0.00    +0.000 A 
ATOM     12  C   UNL     1       0.283  12.189  21.416  0.00  0.00    +0.000 A 
BRANCH   3  14
ATOM     13  O   UNL     1      -1.915  11.359  23.266  0.00  0.00    +0.000 OA
ATOM     14  C   UNL     1      -1.024  10.605  22.911  0.00  0.00    +0.000 C 
BRANCH  14  15
ATOM     15  O   UNL     1      -0.775   9.421  23.507  0.00  0.00    +0.000 OA
ATOM     16  H   UNL     1      -0.655   8.693  22.859  0.00  0.00    +0.000 HD
ENDBRANCH  14  15
ENDBRANCH   3  14
BRANCH  12  17
ATOM     17  O   UNL     1      -0.052  13.200  22.288  0.00  0.00    +0.000 OA
ATOM     18  H   UNL     1      -0.296  12.809  23.147  0.00  0.00    +0.000 HD
ENDBRANCH  12  17
ENDBRANCH   1   5
BRANCH   1  19
ATOM     19  C   UNL     1       2.037   7.676  19.635  0.00  0.00    +0.000 C 
ATOM     20  O   UNL     1       2.049   7.680  20.859  0.00  0.00    +0.000 OA
BRANCH  19  21
ATOM     21  C   UNL     1       2.688   6.617  18.798  0.00  0.00    +0.000 A 
ATOM     22  C   UNL     1       3.734   7.011  17.948  0.00  0.00    +0.000 A 
ATOM     23  C   UNL     1       4.419   6.072  17.176  0.00  0.00    +0.000 A 
ATOM     24  C   UNL     1       4.047   4.728  17.239  0.00  0.00    +0.000 A 
ATOM     25  C   UNL     1       2.995   4.293  18.073  0.00  0.00    +0.000 A 
ATOM     26  C   UNL     1       2.624   2.932  18.129  0.00  0.00    +0.000 A 
ATOM     27  C   UNL     1       1.581   2.490  18.941  0.00  0.00    +0.000 A 
ATOM     28  C   UNL     1       0.886   3.402  19.714  0.00  0.00    +0.000 A 
ATOM     29  C   UNL     1       1.236   4.752  19.676  0.00  0.00    +0.000 A 
ATOM     30  C   UNL     1       2.295   5.244  18.870  0.00  0.00    +0.000 A 
BRANCH  23  31
ATOM     31  C   UNL     1       5.504   6.569  16.293  0.00  0.00    +0.000 C 
ATOM     32  O   UNL     1       6.450   7.203  16.728  0.00  0.00    +0.000 OA
BRANCH  31  33
ATOM     33  O   UNL     1       5.366   6.236  14.994  0.00  0.00    +0.000 OA
ATOM     34  H   UNL     1       6.082   5.655  14.656  0.00  0.00    +0.000 HD
ENDBRANCH  31  33
ENDBRANCH  23  31
BRANCH  24  35
ATOM     35  O   UNL     1       4.732   3.813  16.476  0.00  0.00    +0.000 OA
ATOM     36  H   UNL     1       4.957   3.069  17.071  0.00  0.00    +0.000 HD
ENDBRANCH  24  35
ENDBRANCH  19  21
ENDBRANCH   1  19
TORSDOF 9
ENDMDL
MODEL 4
REMARK VINA RESULT:      -9.1      2.361      7.822
REMARK  Name = 
REMARK  9 active torsions:
REMARK  status: ('A' for Active; 'I' for Inactive)
REMARK    1  A    between atoms: C_2  and  O_3
REMARK    2  A    between atoms: C_2  and  C_4
REMARK    3  A    between atoms: C_6  and  C_7
REMARK    4  A    between atoms: C_7  and  C_9
REMARK    5  A    between atoms: C_9  and  C_11
REMARK    6  A    between atoms: C_13  and  C_14
REMARK    7  A    between atoms: C_14  and  O_16
REMARK    8  A    between atoms: C_17  and  O_18
REMARK    9  A    between atoms: C_31  and  O_32
REMARK                            x       y       z     vdW  Elec       q    Type
REMARK                         _______ _______ _______ _____ _____    ______ ____
ROOT
ATOM      1  C   UNL     1       1.905   8.172  19.593  0.00  0.00    +0.000 C 
ATOM      2  O   UNL     1       2.057   7.312  20.452  0.00  0.00    +0.000 OA
ENDROOT
BRANCH   1   5
ATOM      3  C   UNL     1       1.461  11.901  19.213  0.00  0.00    +0.000 A 
ATOM      4  C   UNL     1       1.896  10.586  19.029  0.00  0.00    +0.000 A 
ATOM      5  C   UNL     1       1.470   9.569  19.895  0.00  0.00    +0.000 A 
ATOM      6  C   UNL     1       0.618   9.865  21.003  0.00  0.00    +0.000 A 
ATOM      7  C   UNL     1       0.178   8.897  21.944  0.00  0.00    +0.000 A 
ATOM      8  C   UNL     1      -0.646   9.217  23.022  0.00  0.00    +0.000 A 
ATOM      9  C   UNL     1      -1.068  10.521  23.199  0.00  0.00    +0.000 A 
ATOM     10  C   UNL     1      -0.667  11.500  22.294  0.00  0.00    +0.000 A 
ATOM     11  C   UNL     1       0.183  11.209  21.198  0.00  0.00    +0.000 A 
ATOM     12  C   UNL     1       0.609  12.204  20.282  0.00  0.00    +0.000 A 
BRANCH   3  14
ATOM     13  O   UNL     1       1.943  14.119  18.524  0.00  0.00    +0.000 OA
ATOM     14  C   UNL     1       1.970  12.928  18.263  0.00  0.00    +0.000 C 
BRANCH  14  15
ATOM     15  O   UNL     1       2.509  12.431  17.132  0.00  0.00    +0.000 OA
ATOM     16  H   UNL     1       3.084  11.652  17.302  0.00  0.00    +0.000 HD
ENDBRANCH  14  15
ENDBRANCH   3  14
BRANCH  12  17
ATOM     17  O   UNL     1       0.190  13.511  20.399  0.00  0.00    +0.000 OA
ATOM     18  H   UNL     1      -0.747  13.568  20.135  0.00  0.00    +0.000 HD
ENDBRANCH  12  17
ENDBRANCH   1   5
BRANCH   1  19
ATOM     19  C   UNL     1       2.170   7.765  18.163  0.00  0.00    +0.000 C 
ATOM     20  O   UNL     1       1.488   8.303  17.301  0.00  0.00    +0.000 OA
BRANCH  19  21
ATOM     21  C   UNL     1       3.205   6.720  17.877  0.00  0.00    +0.000 A 
ATOM     22  C   UNL     1       4.517   7.155  17.624  0.00  0.00    +0.000 A 
ATOM     23  C   UNL     1       5.542   6.236  17.399  0.00  0.00    +0.000 A 
ATOM     24  C   UNL     1       5.256   4.870  17.410  0.00  0.00    +0.000 A 
ATOM     25  C   UNL     1       3.950   4.393  17.651  0.00  0.00    +0.000 A 
ATOM     26  C   UNL     1       3.669   3.009  17.658  0.00  0.00    +0.000 A 
ATOM     27  C   UNL     1       2.382   2.525  17.886  0.00  0.00    +0.000 A 
ATOM     28  C   UNL     1       1.348   3.416  18.110  0.00  0.00    +0.000 A 
ATOM     29  C   UNL     1       1.602   4.788  18.108  0.00  0.00    +0.000 A 
ATOM     30  C   UNL     1       2.897   5.324  17.888  0.00  0.00    +0.000 A 
BRANCH  23  31
ATOM     31  C   UNL     1       6.899   6.774  17.125  0.00  0.00    +0.000 C 
ATOM     32  O   UNL     1       7.418   7.609  17.846  0.00  0.00    +0.000 OA
BRANCH  31  33
ATOM     33  O   UNL     1       7.504   6.244  16.044  0.00  0.00    +0.000 OA
ATOM     34  H   UNL     1       6.884   6.019  15.315  0.00  0.00    +0.000 HD
ENDBRANCH  31  33
ENDBRANCH  23  31
BRANCH  24  35
ATOM     35  O   UNL     1       6.276   3.975  17.190  0.00  0.00    +0.000 OA
ATOM     36  H   UNL     1       5.967   3.113  17.535  0.00  0.00    +0.000 HD
ENDBRANCH  24  35
ENDBRANCH  19  21
ENDBRANCH   1  19
TORSDOF 9
ENDMDL
MODEL 5
REMARK VINA RESULT:      -9.1      1.977      2.520
REMARK  Name = 
REMARK  9 active torsions:
REMARK  status: ('A' for Active; 'I' for Inactive)
REMARK    1  A    between atoms: C_2  and  O_3
REMARK    2  A    between atoms: C_2  and  C_4
REMARK    3  A    between atoms: C_6  and  C_7
REMARK    4  A    between atoms: C_7  and  C_9
REMARK    5  A    between atoms: C_9  and  C_11
REMARK    6  A    between atoms: C_13  and  C_14
REMARK    7  A    between atoms: C_14  and  O_16
REMARK    8  A    between atoms: C_17  and  O_18
REMARK    9  A    between atoms: C_31  and  O_32
REMARK                            x       y       z     vdW  Elec       q    Type
REMARK                         _______ _______ _______ _____ _____    ______ ____
ROOT
ATOM      1  C   UNL     1       2.067   7.659  19.570  0.00  0.00    +0.000 C 
ATOM      2  O   UNL     1       2.087   7.641  20.795  0.00  0.00    +0.000 OA
ENDROOT
BRANCH   1   5
ATOM      3  C   UNL     1       4.454   6.064  17.118  0.00  0.00    +0.000 A 
ATOM      4  C   UNL     1       3.759   7.009  17.879  0.00  0.00    +0.000 A 
ATOM      5  C   UNL     1       2.711   6.612  18.722  0.00  0.00    +0.000 A 
ATOM      6  C   UNL     1       2.309   5.242  18.786  0.00  0.00    +0.000 A 
ATOM      7  C   UNL     1       1.232   4.771  19.584  0.00  0.00    +0.000 A 
ATOM      8  C   UNL     1       0.855   3.429  19.620  0.00  0.00    +0.000 A 
ATOM      9  C   UNL     1       1.544   2.503  18.861  0.00  0.00    +0.000 A 
ATOM     10  C   UNL     1       2.612   2.921  18.071  0.00  0.00    +0.000 A 
ATOM     11  C   UNL     1       3.010   4.280  18.001  0.00  0.00    +0.000 A 
ATOM     12  C   UNL     1       4.085   4.716  17.187  0.00  0.00    +0.000 A 
BRANCH   3  14
ATOM     13  O   UNL     1       6.501   7.179  16.677  0.00  0.00    +0.000 OA
ATOM     14  C   UNL     1       5.542   6.566  16.236  0.00  0.00    +0.000 C 
BRANCH  14  15
ATOM     15  O   UNL     1       5.410   6.238  14.935  0.00  0.00    +0.000 OA
ATOM     16  H   UNL     1       4.474   6.261  14.637  0.00  0.00    +0.000 HD
ENDBRANCH  14  15
ENDBRANCH   3  14
BRANCH  12  17
ATOM     17  O   UNL     1       4.821   3.826  16.437  0.00  0.00    +0.000 OA
ATOM     18  H   UNL     1       4.456   3.795  15.534  0.00  0.00    +0.000 HD
ENDBRANCH  12  17
ENDBRANCH   1   5
BRANCH   1  19
ATOM     19  C   UNL     1       1.354   8.817  18.914  0.00  0.00    +0.000 C 
ATOM     20  O   UNL     1       1.140   8.724  17.713  0.00  0.00    +0.000 OA
BRANCH  19  21
ATOM     21  C   UNL     1       0.984  10.013  19.738  0.00  0.00    +0.000 A 
ATOM     22  C   UNL     1       0.198   9.797  20.882  0.00  0.00    +0.000 A 
ATOM     23  C   UNL     1      -0.144  10.857  21.723  0.00  0.00    +0.000 A 
ATOM     24  C   UNL     1       0.289  12.147  21.414  0.00  0.00    +0.000 A 
ATOM     25  C   UNL     1       1.072  12.407  20.269  0.00  0.00    +0.000 A 
ATOM     26  C   UNL     1       1.504  13.716  19.963  0.00  0.00    +0.000 A 
ATOM     27  C   UNL     1       2.270  13.988  18.831  0.00  0.00    +0.000 A 
ATOM     28  C   UNL     1       2.620  12.954  17.980  0.00  0.00    +0.000 A 
ATOM     29  C   UNL     1       2.206  11.653  18.263  0.00  0.00    +0.000 A 
ATOM     30  C   UNL     1       1.431  11.330  19.408  0.00  0.00    +0.000 A 
BRANCH  23  31
ATOM     31  C   UNL     1      -0.989  10.549  22.905  0.00  0.00    +0.000 C 
ATOM     32  O   UNL     1      -1.878  11.297  23.274  0.00  0.00    +0.000 OA
BRANCH  31  33
ATOM     33  O   UNL     1      -0.707   9.376  23.504  0.00  0.00    +0.000 OA
ATOM     34  H   UNL     1      -1.128   9.270  24.385  0.00  0.00    +0.000 HD
ENDBRANCH  31  33
ENDBRANCH  23  31
BRANCH  24  35
ATOM     35  O   UNL     1      -0.052  13.181  22.253  0.00  0.00    +0.000 OA
ATOM     36  H   UNL     1       0.379  12.993  23.112  0.00  0.00    +0.000 HD
ENDBRANCH  24  35
ENDBRANCH  19  21
ENDBRANCH   1  19
TORSDOF 9
ENDMDL
MODEL 6
REMARK VINA RESULT:      -9.1      1.035      8.154
REMARK  Name = 
REMARK  9 active torsions:
REMARK  status: ('A' for Active; 'I' for Inactive)
REMARK    1  A    between atoms: C_2  and  O_3
REMARK    2  A    between atoms: C_2  and  C_4
REMARK    3  A    between atoms: C_6  and  C_7
REMARK    4  A    between atoms: C_7  and  C_9
REMARK    5  A    between atoms: C_9  and  C_11
REMARK    6  A    between atoms: C_13  and  C_14
REMARK    7  A    between atoms: C_14  and  O_16
REMARK    8  A    between atoms: C_17  and  O_18
REMARK    9  A    between atoms: C_31  and  O_32
REMARK                            x       y       z     vdW  Elec       q    Type
REMARK                         _______ _______ _______ _____ _____    ______ ____
ROOT
ATOM      1  C   UNL     1       1.607   9.238  18.341  0.00  0.00    +0.000 C 
ATOM      2  O   UNL     1       2.033   9.161  17.195  0.00  0.00    +0.000 OA
ENDROOT
BRANCH   1   5
ATOM      3  C   UNL     1       0.739  12.462  20.103  0.00  0.00    +0.000 A 
ATOM      4  C   UNL     1       1.425  11.324  19.667  0.00  0.00    +0.000 A 
ATOM      5  C   UNL     1       0.792  10.386  18.839  0.00  0.00    +0.000 A 
ATOM      6  C   UNL     1      -0.576  10.556  18.460  0.00  0.00    +0.000 A 
ATOM      7  C   UNL     1      -1.295   9.631  17.658  0.00  0.00    +0.000 A 
ATOM      8  C   UNL     1      -2.632   9.817  17.312  0.00  0.00    +0.000 A 
ATOM      9  C   UNL     1      -3.304  10.942  17.751  0.00  0.00    +0.000 A 
ATOM     10  C   UNL     1      -2.633  11.880  18.532  0.00  0.00    +0.000 A 
ATOM     11  C   UNL     1      -1.278  11.710  18.914  0.00  0.00    +0.000 A 
ATOM     12  C   UNL     1      -0.595  12.652  19.723  0.00  0.00    +0.000 A 
BRANCH   3  14
ATOM     13  O   UNL     1       1.010  13.781  22.056  0.00  0.00    +0.000 OA
ATOM     14  C   UNL     1       1.474  13.402  20.993  0.00  0.00    +0.000 C 
BRANCH  14  15
ATOM     15  O   UNL     1       2.702  13.747  20.558  0.00  0.00    +0.000 OA
ATOM     16  H   UNL     1       3.022  13.162  19.836  0.00  0.00    +0.000 HD
ENDBRANCH  14  15
ENDBRANCH   3  14
BRANCH  12  17
ATOM     17  O   UNL     1      -1.212  13.804  20.159  0.00  0.00    +0.000 OA
ATOM     18  H   UNL     1      -0.680  14.196  20.875  0.00  0.00    +0.000 HD
ENDBRANCH  12  17
ENDBRANCH   1   5
BRANCH   1  19
ATOM     19  C   UNL     1       1.947   8.102  19.276  0.00  0.00    +0.000 C 
ATOM     20  O   UNL     1       1.617   8.235  20.447  0.00  0.00    +0.000 OA
BRANCH  19  21
ATOM     21  C   UNL     1       2.685   6.911  18.746  0.00  0.00    +0.000 A 
ATOM     22  C   UNL     1       3.698   7.141  17.799  0.00  0.00    +0.000 A 
ATOM     23  C   UNL     1       4.461   6.085  17.299  0.00  0.00    +0.000 A 
ATOM     24  C   UNL     1       4.202   4.785  17.734  0.00  0.00    +0.000 A 
ATOM     25  C   UNL     1       3.189   4.510  18.677  0.00  0.00    +0.000 A 
ATOM     26  C   UNL     1       2.933   3.191  19.110  0.00  0.00    +0.000 A 
ATOM     27  C   UNL     1       1.929   2.905  20.033  0.00  0.00    +0.000 A 
ATOM     28  C   UNL     1       1.158   3.935  20.542  0.00  0.00    +0.000 A 
ATOM     29  C   UNL     1       1.393   5.246  20.130  0.00  0.00    +0.000 A 
ATOM     30  C   UNL     1       2.409   5.583  19.198  0.00  0.00    +0.000 A 
BRANCH  23  31
ATOM     31  C   UNL     1       5.502   6.408  16.291  0.00  0.00    +0.000 C 
ATOM     32  O   UNL     1       5.435   6.008  15.143  0.00  0.00    +0.000 OA
BRANCH  31  33
ATOM     33  O   UNL     1       6.496   7.196  16.748  0.00  0.00    +0.000 OA
ATOM     34  H   UNL     1       6.374   8.148  16.539  0.00  0.00    +0.000 HD
ENDBRANCH  31  33
ENDBRANCH  23  31
BRANCH  24  35
ATOM     35  O   UNL     1       4.964   3.754  17.236  0.00  0.00    +0.000 OA
ATOM     36  H   UNL     1       4.335   3.070  16.927  0.00  0.00    +0.000 HD
ENDBRANCH  24  35
ENDBRANCH  19  21
ENDBRANCH   1  19
TORSDOF 9
ENDMDL
MODEL 7
REMARK VINA RESULT:      -9.1      1.510      3.045
REMARK  Name = 
REMARK  9 active torsions:
REMARK  status: ('A' for Active; 'I' for Inactive)
REMARK    1  A    between atoms: C_2  and  O_3
REMARK    2  A    between atoms: C_2  and  C_4
REMARK    3  A    between atoms: C_6  and  C_7
REMARK    4  A    between atoms: C_7  and  C_9
REMARK    5  A    between atoms: C_9  and  C_11
REMARK    6  A    between atoms: C_13  and  C_14
REMARK    7  A    between atoms: C_14  and  O_16
REMARK    8  A    between atoms: C_17  and  O_18
REMARK    9  A    between atoms: C_31  and  O_32
REMARK                            x       y       z     vdW  Elec       q    Type
REMARK                         _______ _______ _______ _____ _____    ______ ____
ROOT
ATOM      1  C   UNL     1       1.923   8.179  19.135  0.00  0.00    +0.000 C 
ATOM      2  O   UNL     1       1.544   8.326  20.291  0.00  0.00    +0.000 OA
ENDROOT
BRANCH   1   5
ATOM      3  C   UNL     1       4.497   6.110  17.307  0.00  0.00    +0.000 A 
ATOM      4  C   UNL     1       3.702   7.180  17.728  0.00  0.00    +0.000 A 
ATOM      5  C   UNL     1       2.679   6.979  18.666  0.00  0.00    +0.000 A 
ATOM      6  C   UNL     1       2.406   5.673  19.176  0.00  0.00    +0.000 A 
ATOM      7  C   UNL     1       1.363   5.385  20.096  0.00  0.00    +0.000 A 
ATOM      8  C   UNL     1       1.113   4.098  20.570  0.00  0.00    +0.000 A 
ATOM      9  C   UNL     1       1.901   3.046  20.145  0.00  0.00    +0.000 A 
ATOM     10  C   UNL     1       2.940   3.285  19.250  0.00  0.00    +0.000 A 
ATOM     11  C   UNL     1       3.210   4.580  18.738  0.00  0.00    +0.000 A 
ATOM     12  C   UNL     1       4.255   4.828  17.814  0.00  0.00    +0.000 A 
BRANCH   3  14
ATOM     13  O   UNL     1       5.482   5.983  15.152  0.00  0.00    +0.000 OA
ATOM     14  C   UNL     1       5.551   6.400  16.297  0.00  0.00    +0.000 C 
BRANCH  14  15
ATOM     15  O   UNL     1       6.545   7.200  16.732  0.00  0.00    +0.000 OA
ATOM     16  H   UNL     1       6.324   8.153  16.645  0.00  0.00    +0.000 HD
ENDBRANCH  14  15
ENDBRANCH   3  14
BRANCH  12  17
ATOM     17  O   UNL     1       5.087   3.817  17.385  0.00  0.00    +0.000 OA
ATOM     18  H   UNL     1       5.970   4.189  17.205  0.00  0.00    +0.000 HD
ENDBRANCH  12  17
ENDBRANCH   1   5
BRANCH   1  19
ATOM     19  C   UNL     1       1.601   9.287  18.162  0.00  0.00    +0.000 C 
ATOM     20  O   UNL     1       2.388   9.458  17.241  0.00  0.00    +0.000 OA
BRANCH  19  21
ATOM     21  C   UNL     1       0.382  10.129  18.386  0.00  0.00    +0.000 A 
ATOM     22  C   UNL     1      -0.815   9.716  17.777  0.00  0.00    +0.000 A 
ATOM     23  C   UNL     1      -2.001  10.423  17.981  0.00  0.00    +0.000 A 
ATOM     24  C   UNL     1      -1.991  11.563  18.787  0.00  0.00    +0.000 A 
ATOM     25  C   UNL     1      -0.808  12.016  19.409  0.00  0.00    +0.000 A 
ATOM     26  C   UNL     1      -0.807  13.171  20.221  0.00  0.00    +0.000 A 
ATOM     27  C   UNL     1       0.356  13.635  20.833  0.00  0.00    +0.000 A 
ATOM     28  C   UNL     1       1.544  12.952  20.644  0.00  0.00    +0.000 A 
ATOM     29  C   UNL     1       1.567  11.807  19.847  0.00  0.00    +0.000 A 
ATOM     30  C   UNL     1       0.406  11.296  19.211  0.00  0.00    +0.000 A 
BRANCH  23  31
ATOM     31  C   UNL     1      -3.221   9.931  17.292  0.00  0.00    +0.000 C 
ATOM     32  O   UNL     1      -4.283   9.804  17.875  0.00  0.00    +0.000 OA
BRANCH  31  33
ATOM     33  O   UNL     1      -3.055   9.671  15.980  0.00  0.00    +0.000 OA
ATOM     34  H   UNL     1      -2.738  10.442  15.461  0.00  0.00    +0.000 HD
ENDBRANCH  31  33
ENDBRANCH  23  31
BRANCH  24  35
ATOM     35  O   UNL     1      -3.167  12.248  18.982  0.00  0.00    +0.000 OA
ATOM     36  H   UNL     1      -3.325  12.257  19.948  0.00  0.00    +0.000 HD
ENDBRANCH  24  35
ENDBRANCH  19  21
ENDBRANCH   1  19
TORSDOF 9
ENDMDL
MODEL 8
REMARK VINA RESULT:      -9.1      2.407      3.345
REMARK  Name = 
REMARK  9 active torsions:
REMARK  status: ('A' for Active; 'I' for Inactive)
REMARK    1  A    between atoms: C_2  and  O_3
REMARK    2  A    between atoms: C_2  and  C_4
REMARK    3  A    between atoms: C_6  and  C_7
REMARK    4  A    between atoms: C_7  and  C_9
REMARK    5  A    between atoms: C_9  and  C_11
REMARK    6  A    between atoms: C_13  and  C_14
REMARK    7  A    between atoms: C_14  and  O_16
REMARK    8  A    between atoms: C_17  and  O_18
REMARK    9  A    between atoms: C_31  and  O_32
REMARK                            x       y       z     vdW  Elec       q    Type
REMARK                         _______ _______ _______ _____ _____    ______ ____
ROOT
ATOM      1  C   UNL     1       2.323   7.799  18.166  0.00  0.00    +0.000 C 
ATOM      2  O   UNL     1       1.747   8.381  17.254  0.00  0.00    +0.000 OA
ENDROOT
BRANCH   1   5
ATOM      3  C   UNL     1       5.756   6.288  17.743  0.00  0.00    +0.000 A 
ATOM      4  C   UNL     1       4.712   7.208  17.872  0.00  0.00    +0.000 A 
ATOM      5  C   UNL     1       3.382   6.770  17.944  0.00  0.00    +0.000 A 
ATOM      6  C   UNL     1       3.069   5.379  17.846  0.00  0.00    +0.000 A 
ATOM      7  C   UNL     1       1.746   4.863  17.871  0.00  0.00    +0.000 A 
ATOM      8  C   UNL     1       1.468   3.501  17.763  0.00  0.00    +0.000 A 
ATOM      9  C   UNL     1       2.506   2.599  17.631  0.00  0.00    +0.000 A 
ATOM     10  C   UNL     1       3.819   3.061  17.612  0.00  0.00    +0.000 A 
ATOM     11  C   UNL     1       4.132   4.441  17.703  0.00  0.00    +0.000 A 
ATOM     12  C   UNL     1       5.466   4.920  17.667  0.00  0.00    +0.000 A 
BRANCH   3  14
ATOM     13  O   UNL     1       7.491   7.558  16.741  0.00  0.00    +0.000 OA
ATOM     14  C   UNL     1       7.139   6.832  17.656  0.00  0.00    +0.000 C 
BRANCH  14  15
ATOM     15  O   UNL     1       7.939   6.506  18.692  0.00  0.00    +0.000 OA
ATOM     16  H   UNL     1       7.627   6.889  19.541  0.00  0.00    +0.000 HD
ENDBRANCH  14  15
ENDBRANCH   3  14
BRANCH  12  17
ATOM     17  O   UNL     1       6.535   4.058  17.568  0.00  0.00    +0.000 OA
ATOM     18  H   UNL     1       6.253   3.171  17.859  0.00  0.00    +0.000 HD
ENDBRANCH  12  17
ENDBRANCH   1   5
BRANCH   1  19
ATOM     19  C   UNL     1       1.911   8.156  19.574  0.00  0.00    +0.000 C 
ATOM     20  O   UNL     1       1.946   7.256  20.403  0.00  0.00    +0.000 OA
BRANCH  19  21
ATOM     21  C   UNL     1       1.455   9.551  19.874  0.00  0.00    +0.000 A 
ATOM     22  C   UNL     1       1.862  10.571  18.998  0.00  0.00    +0.000 A 
ATOM     23  C   UNL     1       1.435  11.887  19.188  0.00  0.00    +0.000 A 
ATOM     24  C   UNL     1       0.607  12.192  20.269  0.00  0.00    +0.000 A 
ATOM     25  C   UNL     1       0.183  11.197  21.176  0.00  0.00    +0.000 A 
ATOM     26  C   UNL     1      -0.652  11.516  22.269  0.00  0.00    +0.000 A 
ATOM     27  C   UNL     1      -1.070  10.545  23.177  0.00  0.00    +0.000 A 
ATOM     28  C   UNL     1      -0.659   9.234  23.012  0.00  0.00    +0.000 A 
ATOM     29  C   UNL     1       0.166   8.896  21.940  0.00  0.00    +0.000 A 
ATOM     30  C   UNL     1       0.609   9.850  20.987  0.00  0.00    +0.000 A 
BRANCH  23  31
ATOM     31  C   UNL     1       1.920  12.910  18.227  0.00  0.00    +0.000 C 
ATOM     32  O   UNL     1       1.799  14.104  18.441  0.00  0.00    +0.000 OA
BRANCH  31  33
ATOM     33  O   UNL     1       2.521  12.407  17.131  0.00  0.00    +0.000 OA
ATOM     34  H   UNL     1       2.766  13.089  16.466  0.00  0.00    +0.000 HD
ENDBRANCH  31  33
ENDBRANCH  23  31
BRANCH  24  35
ATOM     35  O   UNL     1       0.192  13.490  20.441  0.00  0.00    +0.000 OA
ATOM     36  H   UNL     1      -0.194  13.773  19.587  0.00  0.00    +0.000 HD
ENDBRANCH  24  35
ENDBRANCH  19  21
ENDBRANCH   1  19
TORSDOF 9
ENDMDL
MODEL 9
REMARK VINA RESULT:      -9.1      1.755      3.456
REMARK  Name = 
REMARK  9 active torsions:
REMARK  status: ('A' for Active; 'I' for Inactive)
REMARK    1  A    between atoms: C_2  and  O_3
REMARK    2  A    between atoms: C_2  and  C_4
REMARK    3  A    between atoms: C_6  and  C_7
REMARK    4  A    between atoms: C_7  and  C_9
REMARK    5  A    between atoms: C_9  and  C_11
REMARK    6  A    between atoms: C_13  and  C_14
REMARK    7  A    between atoms: C_14  and  O_16
REMARK    8  A    between atoms: C_17  and  O_18
REMARK    9  A    between atoms: C_31  and  O_32
REMARK                            x       y       z     vdW  Elec       q    Type
REMARK                         _______ _______ _______ _____ _____    ______ ____
ROOT
ATOM      1  C   UNL     1       2.490   8.004  18.073  0.00  0.00    +0.000 C 
ATOM      2  O   UNL     1       2.162   8.790  17.192  0.00  0.00    +0.000 OA
ENDROOT
BRANCH   1   5
ATOM      3  C   UNL     1       5.854   6.329  17.709  0.00  0.00    +0.000 A 
ATOM      4  C   UNL     1       4.853   7.298  17.816  0.00  0.00    +0.000 A 
ATOM      5  C   UNL     1       3.503   6.923  17.874  0.00  0.00    +0.000 A 
ATOM      6  C   UNL     1       3.125   5.548  17.786  0.00  0.00    +0.000 A 
ATOM      7  C   UNL     1       1.779   5.095  17.798  0.00  0.00    +0.000 A 
ATOM      8  C   UNL     1       1.439   3.747  17.700  0.00  0.00    +0.000 A 
ATOM      9  C   UNL     1       2.435   2.795  17.590  0.00  0.00    +0.000 A 
ATOM     10  C   UNL     1       3.769   3.195  17.583  0.00  0.00    +0.000 A 
ATOM     11  C   UNL     1       4.145   4.560  17.665  0.00  0.00    +0.000 A 
ATOM     12  C   UNL     1       5.500   4.975  17.642  0.00  0.00    +0.000 A 
BRANCH   3  14
ATOM     13  O   UNL     1       7.655   7.517  16.725  0.00  0.00    +0.000 OA
ATOM     14  C   UNL     1       7.261   6.806  17.635  0.00  0.00    +0.000 C 
BRANCH  14  15
ATOM     15  O   UNL     1       8.037   6.439  18.675  0.00  0.00    +0.000 OA
ATOM     16  H   UNL     1       7.552   5.885  19.326  0.00  0.00    +0.000 HD
ENDBRANCH  14  15
ENDBRANCH   3  14
BRANCH  12  17
ATOM     17  O   UNL     1       6.528   4.062  17.565  0.00  0.00    +0.000 OA
ATOM     18  H   UNL     1       7.195   4.389  16.933  0.00  0.00    +0.000 HD
ENDBRANCH  12  17
ENDBRANCH   1   5
BRANCH   1  19
ATOM     19  C   UNL     1       1.811   8.154  19.413  0.00  0.00    +0.000 C 
ATOM     20  O   UNL     1       2.168   7.391  20.301  0.00  0.00    +0.000 OA
BRANCH  19  21
ATOM     21  C   UNL     1       0.733   9.181  19.578  0.00  0.00    +0.000 A 
ATOM     22  C   UNL     1       0.154   9.710  18.413  0.00  0.00    +0.000 A 
ATOM     23  C   UNL     1      -0.889  10.634  18.490  0.00  0.00    +0.000 A 
ATOM     24  C   UNL     1      -1.350  11.047  19.741  0.00  0.00    +0.000 A 
ATOM     25  C   UNL     1      -0.790  10.545  20.935  0.00  0.00    +0.000 A 
ATOM     26  C   UNL     1      -1.261  10.970  22.197  0.00  0.00    +0.000 A 
ATOM     27  C   UNL     1      -0.710  10.491  23.384  0.00  0.00    +0.000 A 
ATOM     28  C   UNL     1       0.327   9.576  23.333  0.00  0.00    +0.000 A 
ATOM     29  C   UNL     1       0.808   9.141  22.098  0.00  0.00    +0.000 A 
ATOM     30  C   UNL     1       0.272   9.597  20.866  0.00  0.00    +0.000 A 
BRANCH  23  31
ATOM     31  C   UNL     1      -1.439  11.157  17.214  0.00  0.00    +0.000 C 
ATOM     32  O   UNL     1      -1.978  10.430  16.398  0.00  0.00    +0.000 OA
BRANCH  31  33
ATOM     33  O   UNL     1      -1.316  12.490  17.057  0.00  0.00    +0.000 OA
ATOM     34  H   UNL     1      -1.938  12.869  16.397  0.00  0.00    +0.000 HD
ENDBRANCH  31  33
ENDBRANCH  23  31
BRANCH  24  35
ATOM     35  O   UNL     1      -2.381  11.954  19.803  0.00  0.00    +0.000 OA
ATOM     36  H   UNL     1      -3.202  11.454  19.618  0.00  0.00    +0.000 HD
ENDBRANCH  24  35
ENDBRANCH  19  21
ENDBRANCH   1  19
TORSDOF 9
ENDMDL
