MODEL 1
REMARK VINA RESULT:      -7.9      0.000      0.000
REMARK  Name = 
REMARK  8 active torsions:
REMARK  status: ('A' for Active; 'I' for Inactive)
REMARK    1  A    between atoms: C_1  and  C_2
REMARK    2  A    between atoms: C_2  and  C_3
REMARK    3  A    between atoms: C_3  and  C_4
REMARK    4  A    between atoms: C_5  and  C_6
REMARK    5  A    between atoms: C_6  and  O_7
REMARK    6  A    between atoms: O_7  and  C_8
REMARK    7  A    between atoms: C_15  and  C_16
REMARK    8  A    between atoms: C_16  and  C_17
REMARK                            x       y       z     vdW  Elec       q    Type
REMARK                         _______ _______ _______ _____ _____    ______ ____
ROOT
ATOM      1  C   UNL     1       5.818   4.527  17.574  0.00  0.00    +0.000 A 
ATOM      2  N   UNL     1       5.155   5.622  17.668  0.00  0.00    +0.000 NA
ATOM      3  C   UNL     1       4.110   5.675  18.580  0.00  0.00    +0.000 A 
ATOM      4  O   UNL     1       3.375   6.893  18.535  0.00  0.00    +0.000 OA
ATOM      5  C   UNL     1       2.327   7.120  19.355  0.00  0.00    +0.000 A 
ATOM      6  O   UNL     1       1.668   8.184  19.340  0.00  0.00    +0.000 OA
ATOM      7  C   UNL     1       1.963   6.063  20.291  0.00  0.00    +0.000 A 
ATOM      8  C   UNL     1       2.640   4.901  20.383  0.00  0.00    +0.000 A 
ATOM      9  C   UNL     1       3.773   4.696  19.458  0.00  0.00    +0.000 A 
ATOM     10  C   UNL     1       4.660   3.494  19.366  0.00  0.00    +0.000 A 
ATOM     11  O   UNL     1       4.686   2.547  20.159  0.00  0.00    +0.000 OA
ATOM     12  N   UNL     1       5.550   3.449  18.348  0.00  0.00    +0.000 N 
ATOM     13  H   UNL     1       6.179   2.666  18.409  0.00  0.00    +0.000 HD
ENDROOT
BRANCH   8  14
ATOM     14  C   UNL     1       2.095   3.896  21.391  0.00  0.00    +0.000 C 
ATOM     15  C   UNL     1       1.190   2.802  20.833  0.00  0.00    +0.000 C 
ENDBRANCH   8  14
BRANCH   1  16
ATOM     16  O   UNL     1       6.832   4.321  16.716  0.00  0.00    +0.000 OA
BRANCH  16  17
ATOM     17  C   UNL     1       6.981   5.248  15.621  0.00  0.00    +0.000 C 
BRANCH  17  19
ATOM     18  C   UNL     1       6.199   3.905  13.262  0.00  0.00    +0.000 C 
ATOM     19  C   UNL     1       6.560   4.525  14.351  0.00  0.00    +0.000 C 
BRANCH  18  20
ATOM     20  C   UNL     1       5.778   3.182  11.994  0.00  0.00    +0.000 C 
BRANCH  20  22
ATOM     21  C   UNL     1       3.772   3.638  10.561  0.00  0.00    +0.000 C 
ATOM     22  C   UNL     1       4.257   3.119  11.904  0.00  0.00    +0.000 C 
ENDBRANCH  20  22
ENDBRANCH  18  20
ENDBRANCH  17  19
ENDBRANCH  16  17
ENDBRANCH   1  16
TORSDOF 6
ENDMDL
MODEL 2
REMARK VINA RESULT:      -7.8      1.428      1.630
REMARK  Name = 
REMARK  8 active torsions:
REMARK  status: ('A' for Active; 'I' for Inactive)
REMARK    1  A    between atoms: C_1  and  C_2
REMARK    2  A    between atoms: C_2  and  C_3
REMARK    3  A    between atoms: C_3  and  C_4
REMARK    4  A    between atoms: C_5  and  C_6
REMARK    5  A    between atoms: C_6  and  O_7
REMARK    6  A    between atoms: O_7  and  C_8
REMARK    7  A    between atoms: C_15  and  C_16
REMARK    8  A    between atoms: C_16  and  C_17
REMARK                            x       y       z     vdW  Elec       q    Type
REMARK                         _______ _______ _______ _____ _____    ______ ____
ROOT
ATOM      1  C   UNL     1       6.014   4.590  16.163  0.00  0.00    +0.000 A 
ATOM      2  N   UNL     1       5.606   5.775  16.443  0.00  0.00    +0.000 NA
ATOM      3  C   UNL     1       4.410   5.906  17.135  0.00  0.00    +0.000 A 
ATOM      4  O   UNL     1       3.994   7.256  17.304  0.00  0.00    +0.000 OA
ATOM      5  C   UNL     1       2.856   7.573  17.957  0.00  0.00    +0.000 A 
ATOM      6  O   UNL     1       2.471   8.752  18.125  0.00  0.00    +0.000 OA
ATOM      7  C   UNL     1       2.052   6.474  18.479  0.00  0.00    +0.000 A 
ATOM      8  C   UNL     1       2.414   5.181  18.360  0.00  0.00    +0.000 A 
ATOM      9  C   UNL     1       3.663   4.886  17.628  0.00  0.00    +0.000 A 
ATOM     10  C   UNL     1       4.258   3.539  17.361  0.00  0.00    +0.000 A 
ATOM     11  O   UNL     1       3.882   2.468  17.847  0.00  0.00    +0.000 OA
ATOM     12  N   UNL     1       5.336   3.482  16.544  0.00  0.00    +0.000 N 
ATOM     13  H   UNL     1       5.742   2.563  16.493  0.00  0.00    +0.000 HD
ENDROOT
BRANCH   8  14
ATOM     14  C   UNL     1       1.433   4.164  18.933  0.00  0.00    +0.000 C 
ATOM     15  C   UNL     1       1.386   4.054  20.454  0.00  0.00    +0.000 C 
ENDBRANCH   8  14
BRANCH   1  16
ATOM     16  O   UNL     1       7.134   4.312  15.474  0.00  0.00    +0.000 OA
BRANCH  16  17
ATOM     17  C   UNL     1       7.296   4.932  14.183  0.00  0.00    +0.000 C 
BRANCH  17  19
ATOM     18  C   UNL     1       5.732   3.471  12.340  0.00  0.00    +0.000 C 
ATOM     19  C   UNL     1       6.454   4.146  13.190  0.00  0.00    +0.000 C 
BRANCH  18  20
ATOM     20  C   UNL     1       4.890   2.685  11.348  0.00  0.00    +0.000 C 
BRANCH  20  22
ATOM     21  C   UNL     1       3.225   3.777   9.826  0.00  0.00    +0.000 C 
ATOM     22  C   UNL     1       3.497   3.294  11.240  0.00  0.00    +0.000 C 
ENDBRANCH  20  22
ENDBRANCH  18  20
ENDBRANCH  17  19
ENDBRANCH  16  17
ENDBRANCH   1  16
TORSDOF 6
ENDMDL
MODEL 3
REMARK VINA RESULT:      -7.8      1.278      1.371
REMARK  Name = 
REMARK  8 active torsions:
REMARK  status: ('A' for Active; 'I' for Inactive)
REMARK    1  A    between atoms: C_1  and  C_2
REMARK    2  A    between atoms: C_2  and  C_3
REMARK    3  A    between atoms: C_3  and  C_4
REMARK    4  A    between atoms: C_5  and  C_6
REMARK    5  A    between atoms: C_6  and  O_7
REMARK    6  A    between atoms: O_7  and  C_8
REMARK    7  A    between atoms: C_15  and  C_16
REMARK    8  A    between atoms: C_16  and  C_17
REMARK                            x       y       z     vdW  Elec       q    Type
REMARK                         _______ _______ _______ _____ _____    ______ ____
ROOT
ATOM      1  C   UNL     1       4.781   5.150  16.524  0.00  0.00    +0.000 A 
ATOM      2  N   UNL     1       4.333   6.088  17.277  0.00  0.00    +0.000 NA
ATOM      3  C   UNL     1       3.452   5.745  18.292  0.00  0.00    +0.000 A 
ATOM      4  O   UNL     1       2.934   6.864  19.002  0.00  0.00    +0.000 OA
ATOM      5  C   UNL     1       2.067   6.717  20.024  0.00  0.00    +0.000 A 
ATOM      6  O   UNL     1       1.601   7.684  20.669  0.00  0.00    +0.000 OA
ATOM      7  C   UNL     1       1.665   5.360  20.377  0.00  0.00    +0.000 A 
ATOM      8  C   UNL     1       2.142   4.269  19.747  0.00  0.00    +0.000 A 
ATOM      9  C   UNL     1       3.081   4.482  18.627  0.00  0.00    +0.000 A 
ATOM     10  C   UNL     1       3.730   3.435  17.778  0.00  0.00    +0.000 A 
ATOM     11  O   UNL     1       3.708   2.217  17.982  0.00  0.00    +0.000 OA
ATOM     12  N   UNL     1       4.447   3.852  16.709  0.00  0.00    +0.000 N 
ATOM     13  H   UNL     1       4.937   3.103  16.247  0.00  0.00    +0.000 HD
ENDROOT
BRANCH   8  14
ATOM     14  C   UNL     1       1.583   2.933  20.223  0.00  0.00    +0.000 C 
ATOM     15  C   UNL     1       1.684   2.653  21.720  0.00  0.00    +0.000 C 
ENDBRANCH   8  14
BRANCH   1  16
ATOM     16  O   UNL     1       5.614   5.338  15.485  0.00  0.00    +0.000 OA
BRANCH  16  17
ATOM     17  C   UNL     1       6.406   4.213  15.053  0.00  0.00    +0.000 C 
BRANCH  17  19
ATOM     18  C   UNL     1       5.475   3.455  12.496  0.00  0.00    +0.000 C 
ATOM     19  C   UNL     1       5.905   3.805  13.676  0.00  0.00    +0.000 C 
BRANCH  18  20
ATOM     20  C   UNL     1       4.974   3.047  11.120  0.00  0.00    +0.000 C 
BRANCH  20  22
ATOM     21  C   UNL     1       3.111   4.049   9.776  0.00  0.00    +0.000 C 
ATOM     22  C   UNL     1       3.468   3.260  11.024  0.00  0.00    +0.000 C 
ENDBRANCH  20  22
ENDBRANCH  18  20
ENDBRANCH  17  19
ENDBRANCH  16  17
ENDBRANCH   1  16
TORSDOF 6
ENDMDL
MODEL 4
REMARK VINA RESULT:      -7.8      1.144      1.461
REMARK  Name = 
REMARK  8 active torsions:
REMARK  status: ('A' for Active; 'I' for Inactive)
REMARK    1  A    between atoms: C_1  and  C_2
REMARK    2  A    between atoms: C_2  and  C_3
REMARK    3  A    between atoms: C_3  and  C_4
REMARK    4  A    between atoms: C_5  and  C_6
REMARK    5  A    between atoms: C_6  and  O_7
REMARK    6  A    between atoms: O_7  and  C_8
REMARK    7  A    between atoms: C_15  and  C_16
REMARK    8  A    between atoms: C_16  and  C_17
REMARK                            x       y       z     vdW  Elec       q    Type
REMARK                         _______ _______ _______ _____ _____    ______ ____
ROOT
ATOM      1  C   UNL     1       5.353   4.103  16.977  0.00  0.00    +0.000 A 
ATOM      2  N   UNL     1       4.972   5.218  17.484  0.00  0.00    +0.000 NA
ATOM      3  C   UNL     1       3.891   5.204  18.354  0.00  0.00    +0.000 A 
ATOM      4  O   UNL     1       3.484   6.499  18.779  0.00  0.00    +0.000 OA
ATOM      5  C   UNL     1       2.451   6.675  19.630  0.00  0.00    +0.000 A 
ATOM      6  O   UNL     1       2.077   7.802  20.025  0.00  0.00    +0.000 OA
ATOM      7  C   UNL     1       1.753   5.483  20.097  0.00  0.00    +0.000 A 
ATOM      8  C   UNL     1       2.114   4.235  19.737  0.00  0.00    +0.000 A 
ATOM      9  C   UNL     1       3.244   4.095  18.796  0.00  0.00    +0.000 A 
ATOM     10  C   UNL     1       3.815   2.825  18.250  0.00  0.00    +0.000 A 
ATOM     11  O   UNL     1       3.534   1.681  18.623  0.00  0.00    +0.000 OA
ATOM     12  N   UNL     1       4.758   2.926  17.285  0.00  0.00    +0.000 N 
ATOM     13  H   UNL     1       5.168   2.040  17.040  0.00  0.00    +0.000 HD
ENDROOT
BRANCH   8  14
ATOM     14  C   UNL     1       1.247   3.110  20.292  0.00  0.00    +0.000 C 
ATOM     15  C   UNL     1       1.585   2.628  21.699  0.00  0.00    +0.000 C 
ENDBRANCH   8  14
BRANCH   1  16
ATOM     16  O   UNL     1       6.362   3.968  16.098  0.00  0.00    +0.000 OA
BRANCH  16  17
ATOM     17  C   UNL     1       6.397   4.875  14.978  0.00  0.00    +0.000 C 
BRANCH  17  19
ATOM     18  C   UNL     1       5.526   3.444  12.703  0.00  0.00    +0.000 C 
ATOM     19  C   UNL     1       5.928   4.105  13.753  0.00  0.00    +0.000 C 
BRANCH  18  20
ATOM     20  C   UNL     1       5.059   2.674  11.479  0.00  0.00    +0.000 C 
BRANCH  20  22
ATOM     21  C   UNL     1       7.390   1.831  11.107  0.00  0.00    +0.000 C 
ATOM     22  C   UNL     1       5.930   1.441  11.268  0.00  0.00    +0.000 C 
ENDBRANCH  20  22
ENDBRANCH  18  20
ENDBRANCH  17  19
ENDBRANCH  16  17
ENDBRANCH   1  16
TORSDOF 6
ENDMDL
MODEL 5
REMARK VINA RESULT:      -7.5      1.105      1.357
REMARK  Name = 
REMARK  8 active torsions:
REMARK  status: ('A' for Active; 'I' for Inactive)
REMARK    1  A    between atoms: C_1  and  C_2
REMARK    2  A    between atoms: C_2  and  C_3
REMARK    3  A    between atoms: C_3  and  C_4
REMARK    4  A    between atoms: C_5  and  C_6
REMARK    5  A    between atoms: C_6  and  O_7
REMARK    6  A    between atoms: O_7  and  C_8
REMARK    7  A    between atoms: C_15  and  C_16
REMARK    8  A    between atoms: C_16  and  C_17
REMARK                            x       y       z     vdW  Elec       q    Type
REMARK                         _______ _______ _______ _____ _____    ______ ____
ROOT
ATOM      1  C   UNL     1       5.855   4.549  18.391  0.00  0.00    +0.000 A 
ATOM      2  N   UNL     1       5.243   5.626  18.726  0.00  0.00    +0.000 NA
ATOM      3  C   UNL     1       3.984   5.510  19.299  0.00  0.00    +0.000 A 
ATOM      4  O   UNL     1       3.348   6.760  19.538  0.00  0.00    +0.000 OA
ATOM      5  C   UNL     1       2.122   6.837  20.095  0.00  0.00    +0.000 A 
ATOM      6  O   UNL     1       1.542   7.924  20.321  0.00  0.00    +0.000 OA
ATOM      7  C   UNL     1       1.457   5.585  20.437  0.00  0.00    +0.000 A 
ATOM      8  C   UNL     1       2.027   4.379  20.247  0.00  0.00    +0.000 A 
ATOM      9  C   UNL     1       3.366   4.346  19.626  0.00  0.00    +0.000 A 
ATOM     10  C   UNL     1       4.187   3.136  19.309  0.00  0.00    +0.000 A 
ATOM     11  O   UNL     1       3.943   1.978  19.662  0.00  0.00    +0.000 OA
ATOM     12  N   UNL     1       5.329   3.320  18.605  0.00  0.00    +0.000 N 
ATOM     13  H   UNL     1       5.878   2.481  18.519  0.00  0.00    +0.000 HD
ENDROOT
BRANCH   8  14
ATOM     14  C   UNL     1       1.171   3.176  20.629  0.00  0.00    +0.000 C 
ATOM     15  C   UNL     1       1.512   2.497  21.952  0.00  0.00    +0.000 C 
ENDBRANCH   8  14
BRANCH   1  16
ATOM     16  O   UNL     1       7.061   4.509  17.799  0.00  0.00    +0.000 OA
BRANCH  16  17
ATOM     17  C   UNL     1       7.299   5.417  16.705  0.00  0.00    +0.000 C 
BRANCH  17  19
ATOM     18  C   UNL     1       6.017   4.349  14.425  0.00  0.00    +0.000 C 
ATOM     19  C   UNL     1       6.610   4.842  15.477  0.00  0.00    +0.000 C 
BRANCH  18  20
ATOM     20  C   UNL     1       5.327   3.775  13.199  0.00  0.00    +0.000 C 
BRANCH  20  22
ATOM     21  C   UNL     1       7.326   4.475  11.857  0.00  0.00    +0.000 C 
ATOM     22  C   UNL     1       6.362   3.342  12.167  0.00  0.00    +0.000 C 
ENDBRANCH  20  22
ENDBRANCH  18  20
ENDBRANCH  17  19
ENDBRANCH  16  17
ENDBRANCH   1  16
TORSDOF 6
ENDMDL
MODEL 6
REMARK VINA RESULT:      -7.5      1.770      3.422
REMARK  Name = 
REMARK  8 active torsions:
REMARK  status: ('A' for Active; 'I' for Inactive)
REMARK    1  A    between atoms: C_1  and  C_2
REMARK    2  A    between atoms: C_2  and  C_3
REMARK    3  A    between atoms: C_3  and  C_4
REMARK    4  A    between atoms: C_5  and  C_6
REMARK    5  A    between atoms: C_6  and  O_7
REMARK    6  A    between atoms: O_7  and  C_8
REMARK    7  A    between atoms: C_15  and  C_16
REMARK    8  A    between atoms: C_16  and  C_17
REMARK                            x       y       z     vdW  Elec       q    Type
REMARK                         _______ _______ _______ _____ _____    ______ ____
ROOT
ATOM      1  C   UNL     1       5.618   5.108  15.255  0.00  0.00    +0.000 A 
ATOM      2  N   UNL     1       5.170   4.004  15.732  0.00  0.00    +0.000 NA
ATOM      3  C   UNL     1       4.406   4.056  16.889  0.00  0.00    +0.000 A 
ATOM      4  O   UNL     1       4.045   2.775  17.393  0.00  0.00    +0.000 OA
ATOM      5  C   UNL     1       3.300   2.635  18.509  0.00  0.00    +0.000 A 
ATOM      6  O   UNL     1       2.963   1.521  18.970  0.00  0.00    +0.000 OA
ATOM      7  C   UNL     1       2.880   3.852  19.195  0.00  0.00    +0.000 A 
ATOM      8  C   UNL     1       3.182   5.086  18.747  0.00  0.00    +0.000 A 
ATOM      9  C   UNL     1       4.008   5.187  17.527  0.00  0.00    +0.000 A 
ATOM     10  C   UNL     1       4.475   6.437  16.851  0.00  0.00    +0.000 A 
ATOM     11  O   UNL     1       4.110   7.587  17.115  0.00  0.00    +0.000 OA
ATOM     12  N   UNL     1       5.347   6.306  15.824  0.00  0.00    +0.000 N 
ATOM     13  H   UNL     1       5.536   7.176  15.354  0.00  0.00    +0.000 HD
ENDROOT
BRANCH   8  14
ATOM     14  C   UNL     1       2.692   6.242  19.612  0.00  0.00    +0.000 C 
ATOM     15  C   UNL     1       1.712   5.885  20.725  0.00  0.00    +0.000 C 
ENDBRANCH   8  14
BRANCH   1  16
ATOM     16  O   UNL     1       6.394   5.207  14.162  0.00  0.00    +0.000 OA
BRANCH  16  17
ATOM     17  C   UNL     1       6.701   3.993  13.447  0.00  0.00    +0.000 C 
BRANCH  17  19
ATOM     18  C   UNL     1       4.535   3.462  11.713  0.00  0.00    +0.000 C 
ATOM     19  C   UNL     1       5.535   3.707  12.513  0.00  0.00    +0.000 C 
BRANCH  18  20
ATOM     20  C   UNL     1       3.370   3.177  10.780  0.00  0.00    +0.000 C 
BRANCH  20  22
ATOM     21  C   UNL     1       2.199   4.776   9.244  0.00  0.00    +0.000 C 
ATOM     22  C   UNL     1       3.489   4.020   9.516  0.00  0.00    +0.000 C 
ENDBRANCH  20  22
ENDBRANCH  18  20
ENDBRANCH  17  19
ENDBRANCH  16  17
ENDBRANCH   1  16
TORSDOF 6
ENDMDL
MODEL 7
REMARK VINA RESULT:      -7.5      1.190      1.596
REMARK  Name = 
REMARK  8 active torsions:
REMARK  status: ('A' for Active; 'I' for Inactive)
REMARK    1  A    between atoms: C_1  and  C_2
REMARK    2  A    between atoms: C_2  and  C_3
REMARK    3  A    between atoms: C_3  and  C_4
REMARK    4  A    between atoms: C_5  and  C_6
REMARK    5  A    between atoms: C_6  and  O_7
REMARK    6  A    between atoms: O_7  and  C_8
REMARK    7  A    between atoms: C_15  and  C_16
REMARK    8  A    between atoms: C_16  and  C_17
REMARK                            x       y       z     vdW  Elec       q    Type
REMARK                         _______ _______ _______ _____ _____    ______ ____
ROOT
ATOM      1  C   UNL     1       5.966   4.610  18.831  0.00  0.00    +0.000 A 
ATOM      2  N   UNL     1       5.269   5.605  19.246  0.00  0.00    +0.000 NA
ATOM      3  C   UNL     1       3.959   5.365  19.636  0.00  0.00    +0.000 A 
ATOM      4  O   UNL     1       3.241   6.544  19.981  0.00  0.00    +0.000 OA
ATOM      5  C   UNL     1       1.955   6.500  20.387  0.00  0.00    +0.000 A 
ATOM      6  O   UNL     1       1.303   7.521  20.702  0.00  0.00    +0.000 OA
ATOM      7  C   UNL     1       1.315   5.191  20.453  0.00  0.00    +0.000 A 
ATOM      8  C   UNL     1       1.958   4.046  20.155  0.00  0.00    +0.000 A 
ATOM      9  C   UNL     1       3.362   4.147  19.705  0.00  0.00    +0.000 A 
ATOM     10  C   UNL     1       4.270   3.025  19.313  0.00  0.00    +0.000 A 
ATOM     11  O   UNL     1       4.040   1.820  19.455  0.00  0.00    +0.000 OA
ATOM     12  N   UNL     1       5.476   3.349  18.792  0.00  0.00    +0.000 N 
ATOM     13  H   UNL     1       6.070   2.549  18.648  0.00  0.00    +0.000 HD
ENDROOT
BRANCH   8  14
ATOM     14  C   UNL     1       1.121   2.774  20.243  0.00  0.00    +0.000 C 
ATOM     15  C   UNL     1       0.618   2.203  18.920  0.00  0.00    +0.000 C 
ENDBRANCH   8  14
BRANCH   1  16
ATOM     16  O   UNL     1       7.234   4.697  18.394  0.00  0.00    +0.000 OA
BRANCH  16  17
ATOM     17  C   UNL     1       7.508   5.614  17.315  0.00  0.00    +0.000 C 
BRANCH  17  19
ATOM     18  C   UNL     1       6.120   4.681  15.039  0.00  0.00    +0.000 C 
ATOM     19  C   UNL     1       6.761   5.111  16.089  0.00  0.00    +0.000 C 
BRANCH  18  20
ATOM     20  C   UNL     1       5.373   4.179  13.814  0.00  0.00    +0.000 C 
BRANCH  20  22
ATOM     21  C   UNL     1       5.604   2.763  11.758  0.00  0.00    +0.000 C 
ATOM     22  C   UNL     1       6.347   3.551  12.823  0.00  0.00    +0.000 C 
ENDBRANCH  20  22
ENDBRANCH  18  20
ENDBRANCH  17  19
ENDBRANCH  16  17
ENDBRANCH   1  16
TORSDOF 6
ENDMDL
MODEL 8
REMARK VINA RESULT:      -7.4      2.358      4.057
REMARK  Name = 
REMARK  8 active torsions:
REMARK  status: ('A' for Active; 'I' for Inactive)
REMARK    1  A    between atoms: C_1  and  C_2
REMARK    2  A    between atoms: C_2  and  C_3
REMARK    3  A    between atoms: C_3  and  C_4
REMARK    4  A    between atoms: C_5  and  C_6
REMARK    5  A    between atoms: C_6  and  O_7
REMARK    6  A    between atoms: O_7  and  C_8
REMARK    7  A    between atoms: C_15  and  C_16
REMARK    8  A    between atoms: C_16  and  C_17
REMARK                            x       y       z     vdW  Elec       q    Type
REMARK                         _______ _______ _______ _____ _____    ______ ____
ROOT
ATOM      1  C   UNL     1       4.386   4.764  16.663  0.00  0.00    +0.000 A 
ATOM      2  N   UNL     1       4.081   5.813  17.337  0.00  0.00    +0.000 NA
ATOM      3  C   UNL     1       3.206   5.670  18.405  0.00  0.00    +0.000 A 
ATOM      4  O   UNL     1       2.852   6.902  19.022  0.00  0.00    +0.000 OA
ATOM      5  C   UNL     1       2.014   6.952  20.078  0.00  0.00    +0.000 A 
ATOM      6  O   UNL     1       1.691   8.021  20.643  0.00  0.00    +0.000 OA
ATOM      7  C   UNL     1       1.469   5.690  20.566  0.00  0.00    +0.000 A 
ATOM      8  C   UNL     1       1.790   4.498  20.027  0.00  0.00    +0.000 A 
ATOM      9  C   UNL     1       2.703   4.496  18.866  0.00  0.00    +0.000 A 
ATOM     10  C   UNL     1       3.191   3.306  18.100  0.00  0.00    +0.000 A 
ATOM     11  O   UNL     1       3.033   2.123  18.417  0.00  0.00    +0.000 OA
ATOM     12  N   UNL     1       3.909   3.537  16.977  0.00  0.00    +0.000 N 
ATOM     13  H   UNL     1       4.289   2.697  16.573  0.00  0.00    +0.000 HD
ENDROOT
BRANCH   8  14
ATOM     14  C   UNL     1       1.097   3.286  20.642  0.00  0.00    +0.000 C 
ATOM     15  C   UNL     1       1.819   2.612  21.804  0.00  0.00    +0.000 C 
ENDBRANCH   8  14
BRANCH   1  16
ATOM     16  O   UNL     1       5.193   4.757  15.588  0.00  0.00    +0.000 OA
BRANCH  16  17
ATOM     17  C   UNL     1       6.588   4.461  15.802  0.00  0.00    +0.000 C 
BRANCH  17  19
ATOM     18  C   UNL     1       7.617   6.440  17.535  0.00  0.00    +0.000 C 
ATOM     19  C   UNL     1       7.142   5.526  16.735  0.00  0.00    +0.000 C 
BRANCH  18  20
ATOM     20  C   UNL     1       8.171   7.505  18.467  0.00  0.00    +0.000 C 
BRANCH  20  22
ATOM     21  C   UNL     1       8.883   9.907  18.560  0.00  0.00    +0.000 C 
ATOM     22  C   UNL     1       8.023   8.885  17.836  0.00  0.00    +0.000 C 
ENDBRANCH  20  22
ENDBRANCH  18  20
ENDBRANCH  17  19
ENDBRANCH  16  17
ENDBRANCH   1  16
TORSDOF 6
ENDMDL
MODEL 9
REMARK VINA RESULT:      -7.4      1.220      1.475
REMARK  Name = 
REMARK  8 active torsions:
REMARK  status: ('A' for Active; 'I' for Inactive)
REMARK    1  A    between atoms: C_1  and  C_2
REMARK    2  A    between atoms: C_2  and  C_3
REMARK    3  A    between atoms: C_3  and  C_4
REMARK    4  A    between atoms: C_5  and  C_6
REMARK    5  A    between atoms: C_6  and  O_7
REMARK    6  A    between atoms: O_7  and  C_8
REMARK    7  A    between atoms: C_15  and  C_16
REMARK    8  A    between atoms: C_16  and  C_17
REMARK                            x       y       z     vdW  Elec       q    Type
REMARK                         _______ _______ _______ _____ _____    ______ ____
ROOT
ATOM      1  C   UNL     1       4.970   5.776  16.671  0.00  0.00    +0.000 A 
ATOM      2  N   UNL     1       4.355   6.778  17.185  0.00  0.00    +0.000 NA
ATOM      3  C   UNL     1       3.524   6.546  18.272  0.00  0.00    +0.000 A 
ATOM      4  O   UNL     1       2.811   7.699  18.703  0.00  0.00    +0.000 OA
ATOM      5  C   UNL     1       1.960   7.659  19.749  0.00  0.00    +0.000 A 
ATOM      6  O   UNL     1       1.325   8.660  20.152  0.00  0.00    +0.000 OA
ATOM      7  C   UNL     1       1.785   6.378  20.425  0.00  0.00    +0.000 A 
ATOM      8  C   UNL     1       2.452   5.264  20.066  0.00  0.00    +0.000 A 
ATOM      9  C   UNL     1       3.365   5.357  18.909  0.00  0.00    +0.000 A 
ATOM     10  C   UNL     1       4.198   4.261  18.323  0.00  0.00    +0.000 A 
ATOM     11  O   UNL     1       4.376   3.141  18.813  0.00  0.00    +0.000 OA
ATOM     12  N   UNL     1       4.856   4.523  17.169  0.00  0.00    +0.000 N 
ATOM     13  H   UNL     1       5.474   3.778  16.891  0.00  0.00    +0.000 HD
ENDROOT
BRANCH   8  14
ATOM     14  C   UNL     1       2.116   4.007  20.862  0.00  0.00    +0.000 C 
ATOM     15  C   UNL     1       1.051   3.094  20.264  0.00  0.00    +0.000 C 
ENDBRANCH   8  14
BRANCH   1  16
ATOM     16  O   UNL     1       5.780   5.846  15.600  0.00  0.00    +0.000 OA
BRANCH  16  17
ATOM     17  C   UNL     1       6.589   4.691  15.298  0.00  0.00    +0.000 C 
BRANCH  17  19
ATOM     18  C   UNL     1       5.616   3.582  12.889  0.00  0.00    +0.000 C 
ATOM     19  C   UNL     1       6.066   4.094  14.001  0.00  0.00    +0.000 C 
BRANCH  18  20
ATOM     20  C   UNL     1       5.092   2.986  11.594  0.00  0.00    +0.000 C 
BRANCH  20  22
ATOM     21  C   UNL     1       7.228   1.794  11.042  0.00  0.00    +0.000 C 
ATOM     22  C   UNL     1       5.746   1.633  11.335  0.00  0.00    +0.000 C 
ENDBRANCH  20  22
ENDBRANCH  18  20
ENDBRANCH  17  19
ENDBRANCH  16  17
ENDBRANCH   1  16
TORSDOF 6
ENDMDL
