MODEL 1
REMARK VINA RESULT:      -7.2      0.000      0.000
REMARK  Name = 
REMARK  9 active torsions:
REMARK  status: ('A' for Active; 'I' for Inactive)
REMARK    1  A    between atoms: C_1  and  C_2
REMARK    2  A    between atoms: C_2  and  O_3
REMARK    3  A    between atoms: O_3  and  C_4
REMARK    4  A    between atoms: C_6  and  C_7
REMARK    5  A    between atoms: C_8  and  C_9
REMARK    6  A    between atoms: C_11  and  N_12
REMARK    7  A    between atoms: C_23  and  O_24
REMARK    8  A    between atoms: O_24  and  C_25
REMARK    9  A    between atoms: C_25  and  C_26
REMARK                            x       y       z     vdW  Elec       q    Type
REMARK                         _______ _______ _______ _____ _____    ______ ____
ROOT
ATOM      1  C   UNL     1       3.581   5.386  19.026  0.00  0.00    +0.000 A 
ATOM      2  C   UNL     1       3.424   4.274  19.908  0.00  0.00    +0.000 A 
ATOM      3  C   UNL     1       2.430   4.299  20.889  0.00  0.00    +0.000 A 
ATOM      4  N   UNL     1       1.648   5.369  21.096  0.00  0.00    +0.000 NA
ATOM      5  C   UNL     1       1.815   6.457  20.304  0.00  0.00    +0.000 A 
ATOM      6  C   UNL     1       2.722   6.505  19.237  0.00  0.00    +0.000 A 
ATOM      7  C   UNL     1       2.800   7.785  18.421  0.00  0.00    +0.000 C 
ATOM      8  N   UNL     1       1.677   8.711  18.578  0.00  0.00    +0.000 NA
ATOM      9  C   UNL     1       1.425   8.921  20.003  0.00  0.00    +0.000 C 
ATOM     10  C   UNL     1       0.923   7.627  20.630  0.00  0.00    +0.000 C 
ATOM     11  H   UNL     1       0.851   8.323  18.127  0.00  0.00    +0.000 HD
ENDROOT
BRANCH   1  14
ATOM     12  C   UNL     1       6.730   6.157  16.967  0.00  0.00    +0.000 A 
ATOM     13  C   UNL     1       5.805   6.086  18.025  0.00  0.00    +0.000 A 
ATOM     14  C   UNL     1       4.608   5.371  17.933  0.00  0.00    +0.000 A 
ATOM     15  C   UNL     1       4.437   4.644  16.753  0.00  0.00    +0.000 A 
ATOM     16  C   UNL     1       5.427   4.536  15.763  0.00  0.00    +0.000 A 
ATOM     17 CL   UNL     1       5.049   3.334  14.570  0.00  0.00    +0.000 Cl
ATOM     18  C   UNL     1       6.578   5.330  15.829  0.00  0.00    +0.000 A 
BRANCH  12  19
ATOM     19  O   UNL     1       7.818   7.007  16.987  0.00  0.00    +0.000 OA
BRANCH  19  21
ATOM     20  C   UNL     1       8.210   9.174  17.970  0.00  0.00    +0.000 C 
ATOM     21  C   UNL     1       8.142   7.676  18.212  0.00  0.00    +0.000 C 
ENDBRANCH  19  21
ENDBRANCH  12  19
BRANCH  18  22
ATOM     22  O   UNL     1       7.604   5.427  14.919  0.00  0.00    +0.000 OA
BRANCH  22  23
ATOM     23  C   UNL     1       7.379   5.037  13.571  0.00  0.00    +0.000 C 
ATOM     24  C   UNL     1       8.318   5.788  12.649  0.00  0.00    +0.000 C 
ENDBRANCH  22  23
ENDBRANCH  18  22
ENDBRANCH   1  14
BRANCH   3  25
ATOM     25  N   UNL     1       2.225   3.250  21.785  0.00  0.00    +0.000 N 
ATOM     26  H   UNL     1       2.055   2.352  21.342  0.00  0.00    +0.000 HD
ATOM     27  H   UNL     1       1.478   3.513  22.422  0.00  0.00    +0.000 HD
ENDBRANCH   3  25
BRANCH   2  28
ATOM     28  C   UNL     1       4.258   3.098  19.856  0.00  0.00    +0.000 C 
ATOM     29  N   UNL     1       4.888   2.125  19.884  0.00  0.00    +0.000 NA
ENDBRANCH   2  28
TORSDOF 7
ENDMDL
MODEL 2
REMARK VINA RESULT:      -6.9      0.805      3.258
REMARK  Name = 
REMARK  9 active torsions:
REMARK  status: ('A' for Active; 'I' for Inactive)
REMARK    1  A    between atoms: C_1  and  C_2
REMARK    2  A    between atoms: C_2  and  O_3
REMARK    3  A    between atoms: O_3  and  C_4
REMARK    4  A    between atoms: C_6  and  C_7
REMARK    5  A    between atoms: C_8  and  C_9
REMARK    6  A    between atoms: C_11  and  N_12
REMARK    7  A    between atoms: C_23  and  O_24
REMARK    8  A    between atoms: O_24  and  C_25
REMARK    9  A    between atoms: C_25  and  C_26
REMARK                            x       y       z     vdW  Elec       q    Type
REMARK                         _______ _______ _______ _____ _____    ______ ____
ROOT
ATOM      1  C   UNL     1       3.567   5.669  18.868  0.00  0.00    +0.000 A 
ATOM      2  C   UNL     1       2.727   6.810  19.043  0.00  0.00    +0.000 A 
ATOM      3  C   UNL     1       1.796   6.837  20.083  0.00  0.00    +0.000 A 
ATOM      4  N   UNL     1       1.596   5.790  20.898  0.00  0.00    +0.000 NA
ATOM      5  C   UNL     1       2.344   4.675  20.717  0.00  0.00    +0.000 A 
ATOM      6  C   UNL     1       3.364   4.574  19.761  0.00  0.00    +0.000 A 
ATOM      7  C   UNL     1       4.136   3.268  19.671  0.00  0.00    +0.000 C 
ATOM      8  N   UNL     1       4.006   2.370  20.820  0.00  0.00    +0.000 NA
ATOM      9  C   UNL     1       2.589   2.211  21.146  0.00  0.00    +0.000 C 
ATOM     10  C   UNL     1       2.027   3.534  21.649  0.00  0.00    +0.000 C 
ATOM     11  H   UNL     1       4.509   2.761  21.615  0.00  0.00    +0.000 HD
ENDROOT
BRANCH   1  14
ATOM     12  C   UNL     1       6.775   6.341  16.865  0.00  0.00    +0.000 A 
ATOM     13  C   UNL     1       5.832   6.293  17.909  0.00  0.00    +0.000 A 
ATOM     14  C   UNL     1       4.608   5.628  17.789  0.00  0.00    +0.000 A 
ATOM     15  C   UNL     1       4.425   4.925  16.597  0.00  0.00    +0.000 A 
ATOM     16  C   UNL     1       5.425   4.790  15.620  0.00  0.00    +0.000 A 
ATOM     17 CL   UNL     1       5.016   3.622  14.404  0.00  0.00    +0.000 Cl
ATOM     18  C   UNL     1       6.606   5.537  15.714  0.00  0.00    +0.000 A 
BRANCH  12  19
ATOM     19  O   UNL     1       7.895   7.145  16.913  0.00  0.00    +0.000 OA
BRANCH  19  21
ATOM     20  C   UNL     1       8.243   9.290  17.960  0.00  0.00    +0.000 C 
ATOM     21  C   UNL     1       8.228   7.783  18.153  0.00  0.00    +0.000 C 
ENDBRANCH  19  21
ENDBRANCH  12  19
BRANCH  18  22
ATOM     22  O   UNL     1       7.648   5.604  14.819  0.00  0.00    +0.000 OA
BRANCH  22  23
ATOM     23  C   UNL     1       7.496   5.034  13.527  0.00  0.00    +0.000 C 
ATOM     24  C   UNL     1       8.297   5.824  12.512  0.00  0.00    +0.000 C 
ENDBRANCH  22  23
ENDBRANCH  18  22
ENDBRANCH   1  14
BRANCH   3  25
ATOM     25  N   UNL     1       0.944   7.918  20.309  0.00  0.00    +0.000 N 
ATOM     26  H   UNL     1      -0.006   7.655  20.551  0.00  0.00    +0.000 HD
ATOM     27  H   UNL     1       0.980   8.530  19.498  0.00  0.00    +0.000 HD
ENDBRANCH   3  25
BRANCH   2  28
ATOM     28  C   UNL     1       2.774   7.967  18.182  0.00  0.00    +0.000 C 
ATOM     29  N   UNL     1       2.747   8.928  17.535  0.00  0.00    +0.000 NA
ENDBRANCH   2  28
TORSDOF 7
ENDMDL
MODEL 3
REMARK VINA RESULT:      -6.3      3.573      6.452
REMARK  Name = 
REMARK  9 active torsions:
REMARK  status: ('A' for Active; 'I' for Inactive)
REMARK    1  A    between atoms: C_1  and  C_2
REMARK    2  A    between atoms: C_2  and  O_3
REMARK    3  A    between atoms: O_3  and  C_4
REMARK    4  A    between atoms: C_6  and  C_7
REMARK    5  A    between atoms: C_8  and  C_9
REMARK    6  A    between atoms: C_11  and  N_12
REMARK    7  A    between atoms: C_23  and  O_24
REMARK    8  A    between atoms: O_24  and  C_25
REMARK    9  A    between atoms: C_25  and  C_26
REMARK                            x       y       z     vdW  Elec       q    Type
REMARK                         _______ _______ _______ _____ _____    ______ ____
ROOT
ATOM      1  C   UNL     1       3.103   5.495  18.171  0.00  0.00    +0.000 A 
ATOM      2  C   UNL     1       2.590   4.231  18.591  0.00  0.00    +0.000 A 
ATOM      3  C   UNL     1       3.193   3.052  18.147  0.00  0.00    +0.000 A 
ATOM      4  N   UNL     1       4.207   3.048  17.268  0.00  0.00    +0.000 NA
ATOM      5  C   UNL     1       4.676   4.236  16.814  0.00  0.00    +0.000 A 
ATOM      6  C   UNL     1       4.201   5.476  17.260  0.00  0.00    +0.000 A 
ATOM      7  C   UNL     1       4.825   6.734  16.676  0.00  0.00    +0.000 C 
ATOM      8  N   UNL     1       6.104   6.551  15.988  0.00  0.00    +0.000 NA
ATOM      9  C   UNL     1       5.984   5.443  15.041  0.00  0.00    +0.000 C 
ATOM     10  C   UNL     1       5.787   4.138  15.801  0.00  0.00    +0.000 C 
ATOM     11  H   UNL     1       6.832   6.354  16.672  0.00  0.00    +0.000 HD
ENDROOT
BRANCH   1  14
ATOM     12  C   UNL     1       1.818   9.113  18.296  0.00  0.00    +0.000 A 
ATOM     13  C   UNL     1       2.286   7.872  17.823  0.00  0.00    +0.000 A 
ATOM     14  C   UNL     1       2.507   6.779  18.666  0.00  0.00    +0.000 A 
ATOM     15  C   UNL     1       2.133   6.968  19.998  0.00  0.00    +0.000 A 
ATOM     16  C   UNL     1       1.482   8.123  20.460  0.00  0.00    +0.000 A 
ATOM     17 CL   UNL     1       0.876   7.946  22.076  0.00  0.00    +0.000 Cl
ATOM     18  C   UNL     1       1.353   9.240  19.626  0.00  0.00    +0.000 A 
BRANCH  12  19
ATOM     19  O   UNL     1       1.776  10.241  17.503  0.00  0.00    +0.000 OA
BRANCH  19  21
ATOM     20  C   UNL     1       2.185  12.560  18.022  0.00  0.00    +0.000 C 
ATOM     21  C   UNL     1       2.808  11.225  17.655  0.00  0.00    +0.000 C 
ENDBRANCH  19  21
ENDBRANCH  12  19
BRANCH  18  22
ATOM     22  O   UNL     1       0.831  10.476  19.926  0.00  0.00    +0.000 OA
BRANCH  22  23
ATOM     23  C   UNL     1      -0.553  10.595  20.225  0.00  0.00    +0.000 C 
ATOM     24  C   UNL     1      -1.342  10.826  18.952  0.00  0.00    +0.000 C 
ENDBRANCH  22  23
ENDBRANCH  18  22
ENDBRANCH   1  14
BRANCH   3  25
ATOM     25  N   UNL     1       2.741   1.785  18.516  0.00  0.00    +0.000 N 
ATOM     26  H   UNL     1       2.599   1.669  19.515  0.00  0.00    +0.000 HD
ATOM     27  H   UNL     1       3.380   1.093  18.135  0.00  0.00    +0.000 HD
ENDBRANCH   3  25
BRANCH   2  28
ATOM     28  C   UNL     1       1.448   4.089  19.461  0.00  0.00    +0.000 C 
ATOM     29  N   UNL     1       0.550   3.893  20.167  0.00  0.00    +0.000 NA
ENDBRANCH   2  28
TORSDOF 7
ENDMDL
MODEL 4
REMARK VINA RESULT:      -6.1      3.674      6.701
REMARK  Name = 
REMARK  9 active torsions:
REMARK  status: ('A' for Active; 'I' for Inactive)
REMARK    1  A    between atoms: C_1  and  C_2
REMARK    2  A    between atoms: C_2  and  O_3
REMARK    3  A    between atoms: O_3  and  C_4
REMARK    4  A    between atoms: C_6  and  C_7
REMARK    5  A    between atoms: C_8  and  C_9
REMARK    6  A    between atoms: C_11  and  N_12
REMARK    7  A    between atoms: C_23  and  O_24
REMARK    8  A    between atoms: O_24  and  C_25
REMARK    9  A    between atoms: C_25  and  C_26
REMARK                            x       y       z     vdW  Elec       q    Type
REMARK                         _______ _______ _______ _____ _____    ______ ____
ROOT
ATOM      1  C   UNL     1       3.064   5.451  18.278  0.00  0.00    +0.000 A 
ATOM      2  C   UNL     1       2.524   4.197  18.697  0.00  0.00    +0.000 A 
ATOM      3  C   UNL     1       3.076   3.006  18.220  0.00  0.00    +0.000 A 
ATOM      4  N   UNL     1       4.062   2.983  17.310  0.00  0.00    +0.000 NA
ATOM      5  C   UNL     1       4.555   4.161  16.858  0.00  0.00    +0.000 A 
ATOM      6  C   UNL     1       4.133   5.410  17.333  0.00  0.00    +0.000 A 
ATOM      7  C   UNL     1       4.778   6.656  16.747  0.00  0.00    +0.000 C 
ATOM      8  N   UNL     1       6.029   6.443  16.018  0.00  0.00    +0.000 NA
ATOM      9  C   UNL     1       5.846   5.352  15.061  0.00  0.00    +0.000 C 
ATOM     10  C   UNL     1       5.632   4.043  15.810  0.00  0.00    +0.000 C 
ATOM     11  H   UNL     1       6.771   6.213  16.677  0.00  0.00    +0.000 HD
ENDROOT
BRANCH   1  14
ATOM     12  C   UNL     1       1.574   8.091  20.635  0.00  0.00    +0.000 A 
ATOM     13  C   UNL     1       2.171   6.913  20.149  0.00  0.00    +0.000 A 
ATOM     14  C   UNL     1       2.524   6.746  18.807  0.00  0.00    +0.000 A 
ATOM     15  C   UNL     1       2.337   7.868  17.996  0.00  0.00    +0.000 A 
ATOM     16  C   UNL     1       1.929   9.117  18.491  0.00  0.00    +0.000 A 
ATOM     17 CL   UNL     1       2.077  10.381  17.312  0.00  0.00    +0.000 Cl
ATOM     18  C   UNL     1       1.493   9.241  19.816  0.00  0.00    +0.000 A 
BRANCH  12  19
ATOM     19  O   UNL     1       1.059   8.190  21.912  0.00  0.00    +0.000 OA
BRANCH  19  21
ATOM     20  C   UNL     1      -0.567   9.475  23.144  0.00  0.00    +0.000 C 
ATOM     21  C   UNL     1      -0.346   8.427  22.068  0.00  0.00    +0.000 C 
ENDBRANCH  19  21
ENDBRANCH  12  19
BRANCH  18  22
ATOM     22  O   UNL     1       0.979  10.350  20.446  0.00  0.00    +0.000 OA
BRANCH  22  23
ATOM     23  C   UNL     1       0.283  11.326  19.683  0.00  0.00    +0.000 C 
ATOM     24  C   UNL     1      -1.147  10.883  19.452  0.00  0.00    +0.000 C 
ENDBRANCH  22  23
ENDBRANCH  18  22
ENDBRANCH   1  14
BRANCH   3  25
ATOM     25  N   UNL     1       2.596   1.749  18.586  0.00  0.00    +0.000 N 
ATOM     26  H   UNL     1       2.915   0.992  17.990  0.00  0.00    +0.000 HD
ATOM     27  H   UNL     1       1.582   1.796  18.640  0.00  0.00    +0.000 HD
ENDBRANCH   3  25
BRANCH   2  28
ATOM     28  C   UNL     1       1.405   4.080  19.599  0.00  0.00    +0.000 C 
ATOM     29  N   UNL     1       0.476   3.922  20.275  0.00  0.00    +0.000 NA
ENDBRANCH   2  28
TORSDOF 7
ENDMDL
MODEL 5
REMARK VINA RESULT:      -6.1      3.745      6.650
REMARK  Name = 
REMARK  9 active torsions:
REMARK  status: ('A' for Active; 'I' for Inactive)
REMARK    1  A    between atoms: C_1  and  C_2
REMARK    2  A    between atoms: C_2  and  O_3
REMARK    3  A    between atoms: O_3  and  C_4
REMARK    4  A    between atoms: C_6  and  C_7
REMARK    5  A    between atoms: C_8  and  C_9
REMARK    6  A    between atoms: C_11  and  N_12
REMARK    7  A    between atoms: C_23  and  O_24
REMARK    8  A    between atoms: O_24  and  C_25
REMARK    9  A    between atoms: C_25  and  C_26
REMARK                            x       y       z     vdW  Elec       q    Type
REMARK                         _______ _______ _______ _____ _____    ______ ____
ROOT
ATOM      1  C   UNL     1       3.405   5.725  17.952  0.00  0.00    +0.000 A 
ATOM      2  C   UNL     1       4.707   5.779  17.369  0.00  0.00    +0.000 A 
ATOM      3  C   UNL     1       5.290   4.616  16.858  0.00  0.00    +0.000 A 
ATOM      4  N   UNL     1       4.705   3.413  16.957  0.00  0.00    +0.000 NA
ATOM      5  C   UNL     1       3.491   3.330  17.556  0.00  0.00    +0.000 A 
ATOM      6  C   UNL     1       2.782   4.443  18.024  0.00  0.00    +0.000 A 
ATOM      7  C   UNL     1       1.423   4.210  18.666  0.00  0.00    +0.000 C 
ATOM      8  N   UNL     1       0.812   2.905  18.408  0.00  0.00    +0.000 NA
ATOM      9  C   UNL     1       1.794   1.855  18.677  0.00  0.00    +0.000 C 
ATOM     10  C   UNL     1       2.925   1.937  17.661  0.00  0.00    +0.000 C 
ATOM     11  H   UNL     1       0.505   2.860  17.438  0.00  0.00    +0.000 HD
ENDROOT
BRANCH   1  14
ATOM     12  C   UNL     1       1.975   9.284  18.160  0.00  0.00    +0.000 A 
ATOM     13  C   UNL     1       2.516   8.084  17.662  0.00  0.00    +0.000 A 
ATOM     14  C   UNL     1       2.734   6.963  18.468  0.00  0.00    +0.000 A 
ATOM     15  C   UNL     1       2.282   7.078  19.784  0.00  0.00    +0.000 A 
ATOM     16  C   UNL     1       1.562   8.186  20.259  0.00  0.00    +0.000 A 
ATOM     17 CL   UNL     1       0.879   7.914  21.830  0.00  0.00    +0.000 Cl
ATOM     18  C   UNL     1       1.434   9.334  19.467  0.00  0.00    +0.000 A 
BRANCH  12  19
ATOM     19  O   UNL     1       1.930  10.444  17.415  0.00  0.00    +0.000 OA
BRANCH  19  21
ATOM     20  C   UNL     1       2.063  12.790  17.957  0.00  0.00    +0.000 C 
ATOM     21  C   UNL     1       2.840  11.503  17.741  0.00  0.00    +0.000 C 
ENDBRANCH  19  21
ENDBRANCH  12  19
BRANCH  18  22
ATOM     22  O   UNL     1       0.849  10.535  19.791  0.00  0.00    +0.000 OA
BRANCH  22  23
ATOM     23  C   UNL     1      -0.548  10.585  20.045  0.00  0.00    +0.000 C 
ATOM     24  C   UNL     1      -1.317  10.498  18.743  0.00  0.00    +0.000 C 
ENDBRANCH  22  23
ENDBRANCH  18  22
ENDBRANCH   1  14
BRANCH   3  25
ATOM     25  N   UNL     1       6.558   4.597  16.278  0.00  0.00    +0.000 N 
ATOM     26  H   UNL     1       7.294   4.271  16.897  0.00  0.00    +0.000 HD
ATOM     27  H   UNL     1       6.752   5.521  15.901  0.00  0.00    +0.000 HD
ENDBRANCH   3  25
BRANCH   2  28
ATOM     28  C   UNL     1       5.486   6.989  17.281  0.00  0.00    +0.000 C 
ATOM     29  N   UNL     1       6.088   7.968  17.128  0.00  0.00    +0.000 NA
ENDBRANCH   2  28
TORSDOF 7
ENDMDL
MODEL 6
REMARK VINA RESULT:      -6.1      1.552      2.763
REMARK  Name = 
REMARK  9 active torsions:
REMARK  status: ('A' for Active; 'I' for Inactive)
REMARK    1  A    between atoms: C_1  and  C_2
REMARK    2  A    between atoms: C_2  and  O_3
REMARK    3  A    between atoms: O_3  and  C_4
REMARK    4  A    between atoms: C_6  and  C_7
REMARK    5  A    between atoms: C_8  and  C_9
REMARK    6  A    between atoms: C_11  and  N_12
REMARK    7  A    between atoms: C_23  and  O_24
REMARK    8  A    between atoms: O_24  and  C_25
REMARK    9  A    between atoms: C_25  and  C_26
REMARK                            x       y       z     vdW  Elec       q    Type
REMARK                         _______ _______ _______ _____ _____    ______ ____
ROOT
ATOM      1  C   UNL     1       3.690   5.056  19.126  0.00  0.00    +0.000 A 
ATOM      2  C   UNL     1       3.495   3.901  19.943  0.00  0.00    +0.000 A 
ATOM      3  C   UNL     1       2.459   3.876  20.879  0.00  0.00    +0.000 A 
ATOM      4  N   UNL     1       1.668   4.936  21.106  0.00  0.00    +0.000 NA
ATOM      5  C   UNL     1       1.869   6.063  20.380  0.00  0.00    +0.000 A 
ATOM      6  C   UNL     1       2.822   6.165  19.358  0.00  0.00    +0.000 A 
ATOM      7  C   UNL     1       2.935   7.485  18.612  0.00  0.00    +0.000 C 
ATOM      8  N   UNL     1       1.806   8.404  18.768  0.00  0.00    +0.000 NA
ATOM      9  C   UNL     1       1.492   8.540  20.190  0.00  0.00    +0.000 C 
ATOM     10  C   UNL     1       0.963   7.216  20.727  0.00  0.00    +0.000 C 
ATOM     11  H   UNL     1       1.001   8.041  18.261  0.00  0.00    +0.000 HD
ENDROOT
BRANCH   1  14
ATOM     12  C   UNL     1       5.732   4.300  15.962  0.00  0.00    +0.000 A 
ATOM     13  C   UNL     1       4.687   4.344  16.904  0.00  0.00    +0.000 A 
ATOM     14  C   UNL     1       4.764   5.096  18.080  0.00  0.00    +0.000 A 
ATOM     15  C   UNL     1       5.909   5.885  18.210  0.00  0.00    +0.000 A 
ATOM     16  C   UNL     1       6.875   6.014  17.200  0.00  0.00    +0.000 A 
ATOM     17 CL   UNL     1       8.013   7.283  17.523  0.00  0.00    +0.000 Cl
ATOM     18  C   UNL     1       6.829   5.186  16.071  0.00  0.00    +0.000 A 
BRANCH  12  19
ATOM     19  O   UNL     1       5.736   3.421  14.899  0.00  0.00    +0.000 OA
BRANCH  19  21
ATOM     20  C   UNL     1       5.741   3.202  12.497  0.00  0.00    +0.000 C 
ATOM     21  C   UNL     1       5.030   3.785  13.705  0.00  0.00    +0.000 C 
ENDBRANCH  19  21
ENDBRANCH  12  19
BRANCH  18  22
ATOM     22  O   UNL     1       7.726   5.106  15.033  0.00  0.00    +0.000 OA
BRANCH  22  23
ATOM     23  C   UNL     1       7.647   6.044  13.968  0.00  0.00    +0.000 C 
ATOM     24  C   UNL     1       8.391   5.522  12.757  0.00  0.00    +0.000 C 
ENDBRANCH  22  23
ENDBRANCH  18  22
ENDBRANCH   1  14
BRANCH   3  25
ATOM     25  N   UNL     1       2.215   2.783  21.709  0.00  0.00    +0.000 N 
ATOM     26  H   UNL     1       2.520   1.893  21.326  0.00  0.00    +0.000 HD
ATOM     27  H   UNL     1       1.229   2.779  21.953  0.00  0.00    +0.000 HD
ENDBRANCH   3  25
BRANCH   2  28
ATOM     28  C   UNL     1       4.331   2.728  19.867  0.00  0.00    +0.000 C 
ATOM     29  N   UNL     1       5.016   1.793  19.889  0.00  0.00    +0.000 NA
ENDBRANCH   2  28
TORSDOF 7
ENDMDL
MODEL 7
REMARK VINA RESULT:      -6.0      8.258     11.789
REMARK  Name = 
REMARK  9 active torsions:
REMARK  status: ('A' for Active; 'I' for Inactive)
REMARK    1  A    between atoms: C_1  and  C_2
REMARK    2  A    between atoms: C_2  and  O_3
REMARK    3  A    between atoms: O_3  and  C_4
REMARK    4  A    between atoms: C_6  and  C_7
REMARK    5  A    between atoms: C_8  and  C_9
REMARK    6  A    between atoms: C_11  and  N_12
REMARK    7  A    between atoms: C_23  and  O_24
REMARK    8  A    between atoms: O_24  and  C_25
REMARK    9  A    between atoms: C_25  and  C_26
REMARK                            x       y       z     vdW  Elec       q    Type
REMARK                         _______ _______ _______ _____ _____    ______ ____
ROOT
ATOM      1  C   UNL     1      -0.918  11.098  21.281  0.00  0.00    +0.000 A 
ATOM      2  C   UNL     1      -0.066  10.040  21.722  0.00  0.00    +0.000 A 
ATOM      3  C   UNL     1       0.531   9.192  20.787  0.00  0.00    +0.000 A 
ATOM      4  N   UNL     1       0.280   9.278  19.472  0.00  0.00    +0.000 NA
ATOM      5  C   UNL     1      -0.568  10.241  19.035  0.00  0.00    +0.000 A 
ATOM      6  C   UNL     1      -1.153  11.196  19.877  0.00  0.00    +0.000 A 
ATOM      7  C   UNL     1      -2.077  12.230  19.254  0.00  0.00    +0.000 C 
ATOM      8  N   UNL     1      -1.988  12.372  17.800  0.00  0.00    +0.000 NA
ATOM      9  C   UNL     1      -2.063  11.048  17.184  0.00  0.00    +0.000 C 
ATOM     10  C   UNL     1      -0.825  10.241  17.550  0.00  0.00    +0.000 C 
ATOM     11  H   UNL     1      -1.108  12.825  17.557  0.00  0.00    +0.000 HD
ENDROOT
BRANCH   1  14
ATOM     12  C   UNL     1      -3.389  12.717  23.736  0.00  0.00    +0.000 A 
ATOM     13  C   UNL     1      -2.752  11.786  22.894  0.00  0.00    +0.000 A 
ATOM     14  C   UNL     1      -1.537  12.054  22.256  0.00  0.00    +0.000 A 
ATOM     15  C   UNL     1      -0.944  13.273  22.592  0.00  0.00    +0.000 A 
ATOM     16  C   UNL     1      -1.455  14.135  23.575  0.00  0.00    +0.000 A 
ATOM     17 CL   UNL     1      -0.352  15.410  23.983  0.00  0.00    +0.000 Cl
ATOM     18  C   UNL     1      -2.716  13.895  24.135  0.00  0.00    +0.000 A 
BRANCH  12  19
ATOM     19  O   UNL     1      -4.669  12.529  24.216  0.00  0.00    +0.000 OA
BRANCH  19  21
ATOM     20  C   UNL     1      -7.047  12.925  24.169  0.00  0.00    +0.000 C 
ATOM     21  C   UNL     1      -5.775  12.810  23.348  0.00  0.00    +0.000 C 
ENDBRANCH  19  21
ENDBRANCH  12  19
BRANCH  18  22
ATOM     22  O   UNL     1      -3.412  14.666  25.036  0.00  0.00    +0.000 OA
BRANCH  22  23
ATOM     23  C   UNL     1      -3.608  16.048  24.767  0.00  0.00    +0.000 C 
ATOM     24  C   UNL     1      -4.608  16.223  23.642  0.00  0.00    +0.000 C 
ENDBRANCH  22  23
ENDBRANCH  18  22
ENDBRANCH   1  14
BRANCH   3  25
ATOM     25  N   UNL     1       1.371   8.139  21.148  0.00  0.00    +0.000 N 
ATOM     26  H   UNL     1       2.261   8.129  20.660  0.00  0.00    +0.000 HD
ATOM     27  H   UNL     1       0.860   7.268  21.035  0.00  0.00    +0.000 HD
ENDBRANCH   3  25
BRANCH   2  28
ATOM     28  C   UNL     1       0.216   9.778  23.112  0.00  0.00    +0.000 C 
ATOM     29  N   UNL     1       0.440   9.485  24.211  0.00  0.00    +0.000 NA
ENDBRANCH   2  28
TORSDOF 7
ENDMDL
MODEL 8
REMARK VINA RESULT:      -6.0      8.045     11.231
REMARK  Name = 
REMARK  9 active torsions:
REMARK  status: ('A' for Active; 'I' for Inactive)
REMARK    1  A    between atoms: C_1  and  C_2
REMARK    2  A    between atoms: C_2  and  O_3
REMARK    3  A    between atoms: O_3  and  C_4
REMARK    4  A    between atoms: C_6  and  C_7
REMARK    5  A    between atoms: C_8  and  C_9
REMARK    6  A    between atoms: C_11  and  N_12
REMARK    7  A    between atoms: C_23  and  O_24
REMARK    8  A    between atoms: O_24  and  C_25
REMARK    9  A    between atoms: C_25  and  C_26
REMARK                            x       y       z     vdW  Elec       q    Type
REMARK                         _______ _______ _______ _____ _____    ______ ____
ROOT
ATOM      1  C   UNL     1      -0.820  11.120  21.295  0.00  0.00    +0.000 A 
ATOM      2  C   UNL     1      -0.016  10.018  21.716  0.00  0.00    +0.000 A 
ATOM      3  C   UNL     1       0.485   9.120  20.771  0.00  0.00    +0.000 A 
ATOM      4  N   UNL     1       0.180   9.201  19.467  0.00  0.00    +0.000 NA
ATOM      5  C   UNL     1      -0.625  10.209  19.051  0.00  0.00    +0.000 A 
ATOM      6  C   UNL     1      -1.111  11.212  19.901  0.00  0.00    +0.000 A 
ATOM      7  C   UNL     1      -1.997  12.293  19.301  0.00  0.00    +0.000 C 
ATOM      8  N   UNL     1      -1.964  12.407  17.842  0.00  0.00    +0.000 NA
ATOM      9  C   UNL     1      -2.150  11.081  17.254  0.00  0.00    +0.000 C 
ATOM     10  C   UNL     1      -0.948  10.203  17.579  0.00  0.00    +0.000 C 
ATOM     11  H   UNL     1      -1.070  12.800  17.553  0.00  0.00    +0.000 HD
ENDROOT
BRANCH   1  14
ATOM     12  C   UNL     1      -1.102  14.251  23.502  0.00  0.00    +0.000 A 
ATOM     13  C   UNL     1      -0.683  13.343  22.512  0.00  0.00    +0.000 A 
ATOM     14  C   UNL     1      -1.334  12.128  22.279  0.00  0.00    +0.000 A 
ATOM     15  C   UNL     1      -2.496  11.921  23.027  0.00  0.00    +0.000 A 
ATOM     16  C   UNL     1      -3.049  12.892  23.877  0.00  0.00    +0.000 A 
ATOM     17 CL   UNL     1      -4.638  12.467  24.430  0.00  0.00    +0.000 Cl
ATOM     18  C   UNL     1      -2.336  14.061  24.168  0.00  0.00    +0.000 A 
BRANCH  12  19
ATOM     19  O   UNL     1      -0.358  15.357  23.858  0.00  0.00    +0.000 OA
BRANCH  19  21
ATOM     20  C   UNL     1      -0.368  17.116  22.208  0.00  0.00    +0.000 C 
ATOM     21  C   UNL     1       0.436  16.001  22.853  0.00  0.00    +0.000 C 
ENDBRANCH  19  21
ENDBRANCH  12  19
BRANCH  18  22
ATOM     22  O   UNL     1      -2.671  15.073  25.036  0.00  0.00    +0.000 OA
BRANCH  22  23
ATOM     23  C   UNL     1      -3.850  15.832  24.802  0.00  0.00    +0.000 C 
ATOM     24  C   UNL     1      -3.805  16.449  23.419  0.00  0.00    +0.000 C 
ENDBRANCH  22  23
ENDBRANCH  18  22
ENDBRANCH   1  14
BRANCH   3  25
ATOM     25  N   UNL     1       1.273   8.022  21.114  0.00  0.00    +0.000 N 
ATOM     26  H   UNL     1       1.119   7.677  22.057  0.00  0.00    +0.000 HD
ATOM     27  H   UNL     1       2.246   8.259  20.945  0.00  0.00    +0.000 HD
ENDBRANCH   3  25
BRANCH   2  28
ATOM     28  C   UNL     1       0.312   9.759  23.097  0.00  0.00    +0.000 C 
ATOM     29  N   UNL     1       0.575   9.469  24.188  0.00  0.00    +0.000 NA
ENDBRANCH   2  28
TORSDOF 7
ENDMDL
MODEL 9
REMARK VINA RESULT:      -6.0      7.781     11.251
REMARK  Name = 
REMARK  9 active torsions:
REMARK  status: ('A' for Active; 'I' for Inactive)
REMARK    1  A    between atoms: C_1  and  C_2
REMARK    2  A    between atoms: C_2  and  O_3
REMARK    3  A    between atoms: O_3  and  C_4
REMARK    4  A    between atoms: C_6  and  C_7
REMARK    5  A    between atoms: C_8  and  C_9
REMARK    6  A    between atoms: C_11  and  N_12
REMARK    7  A    between atoms: C_23  and  O_24
REMARK    8  A    between atoms: O_24  and  C_25
REMARK    9  A    between atoms: C_25  and  C_26
REMARK                            x       y       z     vdW  Elec       q    Type
REMARK                         _______ _______ _______ _____ _____    ______ ____
ROOT
ATOM      1  C   UNL     1      -3.241  13.565  22.815  0.00  0.00    +0.000 A 
ATOM      2  C   UNL     1      -3.021  14.576  23.799  0.00  0.00    +0.000 A 
ATOM      3  C   UNL     1      -4.105  15.274  24.335  0.00  0.00    +0.000 A 
ATOM      4  N   UNL     1      -5.363  15.091  23.907  0.00  0.00    +0.000 NA
ATOM      5  C   UNL     1      -5.590  14.174  22.935  0.00  0.00    +0.000 A 
ATOM      6  C   UNL     1      -4.588  13.359  22.391  0.00  0.00    +0.000 A 
ATOM      7  C   UNL     1      -4.982  12.362  21.313  0.00  0.00    +0.000 C 
ATOM      8  N   UNL     1      -6.413  12.078  21.199  0.00  0.00    +0.000 NA
ATOM      9  C   UNL     1      -7.149  13.341  21.149  0.00  0.00    +0.000 C 
ATOM     10  C   UNL     1      -7.024  14.060  22.486  0.00  0.00    +0.000 C 
ATOM     11  H   UNL     1      -6.714  11.525  22.000  0.00  0.00    +0.000 HD
ENDROOT
BRANCH   1  14
ATOM     12  C   UNL     1      -0.385  12.387  20.533  0.00  0.00    +0.000 A 
ATOM     13  C   UNL     1      -1.390  13.176  21.124  0.00  0.00    +0.000 A 
ATOM     14  C   UNL     1      -2.103  12.766  22.254  0.00  0.00    +0.000 A 
ATOM     15  C   UNL     1      -1.681  11.562  22.822  0.00  0.00    +0.000 A 
ATOM     16  C   UNL     1      -0.556  10.850  22.374  0.00  0.00    +0.000 A 
ATOM     17 CL   UNL     1      -0.105   9.569  23.452  0.00  0.00    +0.000 Cl
ATOM     18  C   UNL     1       0.088  11.225  21.188  0.00  0.00    +0.000 A 
BRANCH  12  19
ATOM     19  O   UNL     1       0.189  12.703  19.319  0.00  0.00    +0.000 OA
BRANCH  19  21
ATOM     20  C   UNL     1      -1.562  11.877  17.881  0.00  0.00    +0.000 C 
ATOM     21  C   UNL     1      -0.669  13.056  18.226  0.00  0.00    +0.000 C 
ENDBRANCH  19  21
ENDBRANCH  12  19
BRANCH  18  22
ATOM     22  O   UNL     1       1.137  10.605  20.552  0.00  0.00    +0.000 OA
BRANCH  22  23
ATOM     23  C   UNL     1       0.922   9.359  19.904  0.00  0.00    +0.000 C 
ATOM     24  C   UNL     1       1.275   9.469  18.435  0.00  0.00    +0.000 C 
ENDBRANCH  22  23
ENDBRANCH  18  22
ENDBRANCH   1  14
BRANCH   3  25
ATOM     25  N   UNL     1      -3.960  16.274  25.297  0.00  0.00    +0.000 N 
ATOM     26  H   UNL     1      -4.816  16.782  25.500  0.00  0.00    +0.000 HD
ATOM     27  H   UNL     1      -3.206  16.890  25.008  0.00  0.00    +0.000 HD
ENDBRANCH   3  25
BRANCH   2  28
ATOM     28  C   UNL     1      -1.710  14.939  24.282  0.00  0.00    +0.000 C 
ATOM     29  N   UNL     1      -0.634  15.239  24.589  0.00  0.00    +0.000 NA
ENDBRANCH   2  28
TORSDOF 7
ENDMDL
