MODEL 1
REMARK VINA RESULT:      -7.4      0.000      0.000
REMARK  Name = 
REMARK  3 active torsions:
REMARK  status: ('A' for Active; 'I' for Inactive)
REMARK    1  A    between atoms: N_4  and  C_5
REMARK    2  A    between atoms: C_13  and  N_14
REMARK    3  A    between atoms: N_14  and  C_15
REMARK                            x       y       z     vdW  Elec       q    Type
REMARK                         _______ _______ _______ _____ _____    ______ ____
ROOT
ATOM      1  C   UNL     1       7.568   4.754  18.052  0.00  0.00    +0.000 A 
ATOM      2  N   UNL     1       6.389   4.667  18.672  0.00  0.00    +0.000 NA
ATOM      3  C   UNL     1       5.343   4.422  17.880  0.00  0.00    +0.000 A 
ATOM      4  N   UNL     1       4.082   4.221  18.423  0.00  0.00    +0.000 N 
ATOM      5  C   UNL     1       5.461   4.284  16.498  0.00  0.00    +0.000 A 
ATOM      6  C   UNL     1       6.725   4.291  15.970  0.00  0.00    +0.000 A 
ATOM      7  N   UNL     1       7.793   4.556  16.744  0.00  0.00    +0.000 NA
ATOM      8  H   UNL     1       3.424   4.891  18.032  0.00  0.00    +0.000 HD
ENDROOT
BRANCH   4   9
ATOM      9  C   UNL     1       3.856   3.984  19.845  0.00  0.00    +0.000 C 
ATOM     10  C   UNL     1       3.458   2.566  20.300  0.00  0.00    +0.000 C 
ATOM     11  C   UNL     1       2.139   2.799  21.060  0.00  0.00    +0.000 C 
ATOM     12  C   UNL     1       0.974   2.985  20.098  0.00  0.00    +0.000 C 
ATOM     13  C   UNL     1       1.384   4.275  19.393  0.00  0.00    +0.000 C 
ATOM     14  C   UNL     1       2.578   4.747  20.249  0.00  0.00    +0.000 C 
ATOM     15  O   UNL     1       2.292   4.157  21.537  0.00  0.00    +0.000 OA
ENDBRANCH   4   9
BRANCH   6  16
ATOM     16  N   UNL     1       7.056   4.130  14.658  0.00  0.00    +0.000 N 
ATOM     17  H   UNL     1       7.670   3.313  14.667  0.00  0.00    +0.000 HD
BRANCH  16  18
ATOM     18  C   UNL     1       6.290   4.181  13.424  0.00  0.00    +0.000 C 
ATOM     19  C   UNL     1       4.961   3.441  13.344  0.00  0.00    +0.000 C 
ATOM     20  C   UNL     1       4.835   3.240  11.815  0.00  0.00    +0.000 C 
ATOM     21  C   UNL     1       5.572   1.986  11.379  0.00  0.00    +0.000 C 
ATOM     22  C   UNL     1       7.020   2.372  11.707  0.00  0.00    +0.000 C 
ATOM     23  C   UNL     1       6.913   3.863  12.068  0.00  0.00    +0.000 C 
ATOM     24  O   UNL     1       5.746   4.227  11.255  0.00  0.00    +0.000 OA
ENDBRANCH  16  18
ENDBRANCH   6  16
TORSDOF 3
ENDMDL
MODEL 2
REMARK VINA RESULT:      -7.4      4.913      6.762
REMARK  Name = 
REMARK  3 active torsions:
REMARK  status: ('A' for Active; 'I' for Inactive)
REMARK    1  A    between atoms: N_4  and  C_5
REMARK    2  A    between atoms: C_13  and  N_14
REMARK    3  A    between atoms: N_14  and  C_15
REMARK                            x       y       z     vdW  Elec       q    Type
REMARK                         _______ _______ _______ _____ _____    ______ ____
ROOT
ATOM      1  C   UNL     1       2.217   6.247  20.178  0.00  0.00    +0.000 A 
ATOM      2  N   UNL     1       1.747   7.490  20.055  0.00  0.00    +0.000 NA
ATOM      3  C   UNL     1       2.083   8.121  18.928  0.00  0.00    +0.000 A 
ATOM      4  N   UNL     1       1.576   9.381  18.650  0.00  0.00    +0.000 N 
ATOM      5  C   UNL     1       2.885   7.536  17.949  0.00  0.00    +0.000 A 
ATOM      6  C   UNL     1       3.236   6.223  18.122  0.00  0.00    +0.000 A 
ATOM      7  N   UNL     1       2.927   5.573  19.259  0.00  0.00    +0.000 NA
ATOM      8  H   UNL     1       2.339  10.039  18.505  0.00  0.00    +0.000 HD
ENDROOT
BRANCH   4   9
ATOM      9  C   UNL     1       0.464   9.974  19.387  0.00  0.00    +0.000 C 
ATOM     10  C   UNL     1      -0.711  10.572  18.590  0.00  0.00    +0.000 C 
ATOM     11  C   UNL     1      -0.786  12.020  19.110  0.00  0.00    +0.000 C 
ATOM     12  C   UNL     1       0.290  12.890  18.476  0.00  0.00    +0.000 C 
ATOM     13  C   UNL     1       1.554  12.226  19.015  0.00  0.00    +0.000 C 
ATOM     14  C   UNL     1       0.985  11.255  20.070  0.00  0.00    +0.000 C 
ATOM     15  O   UNL     1      -0.253  11.896  20.449  0.00  0.00    +0.000 OA
ENDBRANCH   4   9
BRANCH   6  16
ATOM     16  N   UNL     1       3.974   5.462  17.267  0.00  0.00    +0.000 N 
ATOM     17  H   UNL     1       3.622   5.732  16.347  0.00  0.00    +0.000 HD
BRANCH  16  18
ATOM     18  C   UNL     1       5.386   5.127  17.197  0.00  0.00    +0.000 C 
ATOM     19  C   UNL     1       6.105   4.678  18.463  0.00  0.00    +0.000 C 
ATOM     20  C   UNL     1       7.569   5.029  18.102  0.00  0.00    +0.000 C 
ATOM     21  C   UNL     1       7.866   6.481  18.434  0.00  0.00    +0.000 C 
ATOM     22  C   UNL     1       6.931   7.200  17.453  0.00  0.00    +0.000 C 
ATOM     23  C   UNL     1       6.412   6.059  16.562  0.00  0.00    +0.000 C 
ATOM     24  O   UNL     1       7.555   5.141  16.651  0.00  0.00    +0.000 OA
ENDBRANCH  16  18
ENDBRANCH   6  16
TORSDOF 3
ENDMDL
MODEL 3
REMARK VINA RESULT:      -7.2      5.301      9.128
REMARK  Name = 
REMARK  3 active torsions:
REMARK  status: ('A' for Active; 'I' for Inactive)
REMARK    1  A    between atoms: N_4  and  C_5
REMARK    2  A    between atoms: C_13  and  N_14
REMARK    3  A    between atoms: N_14  and  C_15
REMARK                            x       y       z     vdW  Elec       q    Type
REMARK                         _______ _______ _______ _____ _____    ______ ____
ROOT
ATOM      1  C   UNL     1       2.794   8.231  17.748  0.00  0.00    +0.000 A 
ATOM      2  N   UNL     1       3.065   7.099  18.402  0.00  0.00    +0.000 NA
ATOM      3  C   UNL     1       2.459   6.961  19.583  0.00  0.00    +0.000 A 
ATOM      4  N   UNL     1       2.594   5.786  20.308  0.00  0.00    +0.000 N 
ATOM      5  C   UNL     1       1.615   7.934  20.114  0.00  0.00    +0.000 A 
ATOM      6  C   UNL     1       1.323   9.015  19.324  0.00  0.00    +0.000 A 
ATOM      7  N   UNL     1       1.936   9.187  18.139  0.00  0.00    +0.000 NA
ATOM      8  H   UNL     1       2.971   5.989  21.231  0.00  0.00    +0.000 HD
ENDROOT
BRANCH   4   9
ATOM      9  C   UNL     1       3.141   4.557  19.742  0.00  0.00    +0.000 C 
ATOM     10  C   UNL     1       2.608   4.075  18.378  0.00  0.00    +0.000 C 
ATOM     11  C   UNL     1       2.125   2.643  18.678  0.00  0.00    +0.000 C 
ATOM     12  C   UNL     1       0.773   2.653  19.378  0.00  0.00    +0.000 C 
ATOM     13  C   UNL     1       1.131   3.349  20.689  0.00  0.00    +0.000 C 
ATOM     14  C   UNL     1       2.673   3.384  20.626  0.00  0.00    +0.000 C 
ATOM     15  O   UNL     1       2.977   2.254  19.780  0.00  0.00    +0.000 OA
ENDBRANCH   4   9
BRANCH   6  16
ATOM     16  N   UNL     1       0.492  10.047  19.639  0.00  0.00    +0.000 N 
ATOM     17  H   UNL     1      -0.412   9.743  19.275  0.00  0.00    +0.000 HD
BRANCH  16  18
ATOM     18  C   UNL     1       0.317  10.857  20.833  0.00  0.00    +0.000 C 
ATOM     19  C   UNL     1      -0.469  10.288  22.007  0.00  0.00    +0.000 C 
ATOM     20  C   UNL     1      -0.918  11.591  22.710  0.00  0.00    +0.000 C 
ATOM     21  C   UNL     1      -2.202  12.116  22.091  0.00  0.00    +0.000 C 
ATOM     22  C   UNL     1      -1.720  12.461  20.676  0.00  0.00    +0.000 C 
ATOM     23  C   UNL     1      -0.195  12.293  20.773  0.00  0.00    +0.000 C 
ATOM     24  O   UNL     1      -0.006  12.601  22.197  0.00  0.00    +0.000 OA
ENDBRANCH  16  18
ENDBRANCH   6  16
TORSDOF 3
ENDMDL
MODEL 4
REMARK VINA RESULT:      -7.2      5.473      8.404
REMARK  Name = 
REMARK  3 active torsions:
REMARK  status: ('A' for Active; 'I' for Inactive)
REMARK    1  A    between atoms: N_4  and  C_5
REMARK    2  A    between atoms: C_13  and  N_14
REMARK    3  A    between atoms: N_14  and  C_15
REMARK                            x       y       z     vdW  Elec       q    Type
REMARK                         _______ _______ _______ _____ _____    ______ ____
ROOT
ATOM      1  C   UNL     1       2.539   8.644  17.708  0.00  0.00    +0.000 A 
ATOM      2  N   UNL     1       2.863   7.543  18.390  0.00  0.00    +0.000 NA
ATOM      3  C   UNL     1       2.221   7.376  19.548  0.00  0.00    +0.000 A 
ATOM      4  N   UNL     1       2.409   6.224  20.297  0.00  0.00    +0.000 N 
ATOM      5  C   UNL     1       1.290   8.294  20.031  0.00  0.00    +0.000 A 
ATOM      6  C   UNL     1       0.953   9.341  19.212  0.00  0.00    +0.000 A 
ATOM      7  N   UNL     1       1.600   9.541  18.050  0.00  0.00    +0.000 NA
ATOM      8  H   UNL     1       2.733   6.465  21.230  0.00  0.00    +0.000 HD
ENDROOT
BRANCH   4   9
ATOM      9  C   UNL     1       3.065   5.030  19.771  0.00  0.00    +0.000 C 
ATOM     10  C   UNL     1       2.579   4.456  18.426  0.00  0.00    +0.000 C 
ATOM     11  C   UNL     1       2.225   2.998  18.776  0.00  0.00    +0.000 C 
ATOM     12  C   UNL     1       0.877   2.911  19.477  0.00  0.00    +0.000 C 
ATOM     13  C   UNL     1       1.170   3.680  20.763  0.00  0.00    +0.000 C 
ATOM     14  C   UNL     1       2.702   3.851  20.696  0.00  0.00    +0.000 C 
ATOM     15  O   UNL     1       3.108   2.724  19.889  0.00  0.00    +0.000 OA
ENDBRANCH   4   9
BRANCH   6  16
ATOM     16  N   UNL     1       0.040  10.315  19.478  0.00  0.00    +0.000 N 
ATOM     17  H   UNL     1       0.542  10.946  20.104  0.00  0.00    +0.000 HD
BRANCH  16  18
ATOM     18  C   UNL     1      -0.899  11.054  18.651  0.00  0.00    +0.000 C 
ATOM     19  C   UNL     1      -2.057  11.787  19.316  0.00  0.00    +0.000 C 
ATOM     20  C   UNL     1      -3.059  11.868  18.140  0.00  0.00    +0.000 C 
ATOM     21  C   UNL     1      -3.892  10.600  18.061  0.00  0.00    +0.000 C 
ATOM     22  C   UNL     1      -2.813   9.566  17.717  0.00  0.00    +0.000 C 
ATOM     23  C   UNL     1      -1.574  10.431  17.433  0.00  0.00    +0.000 C 
ATOM     24  O   UNL     1      -2.235  11.655  16.960  0.00  0.00    +0.000 OA
ENDBRANCH  16  18
ENDBRANCH   6  16
TORSDOF 3
ENDMDL
MODEL 5
REMARK VINA RESULT:      -7.1      5.533      8.002
REMARK  Name = 
REMARK  3 active torsions:
REMARK  status: ('A' for Active; 'I' for Inactive)
REMARK    1  A    between atoms: N_4  and  C_5
REMARK    2  A    between atoms: C_13  and  N_14
REMARK    3  A    between atoms: N_14  and  C_15
REMARK                            x       y       z     vdW  Elec       q    Type
REMARK                         _______ _______ _______ _____ _____    ______ ____
ROOT
ATOM      1  C   UNL     1       2.600   8.127  17.822  0.00  0.00    +0.000 A 
ATOM      2  N   UNL     1       1.870   9.174  18.215  0.00  0.00    +0.000 NA
ATOM      3  C   UNL     1       1.362   9.087  19.446  0.00  0.00    +0.000 A 
ATOM      4  N   UNL     1       0.664  10.153  19.994  0.00  0.00    +0.000 N 
ATOM      5  C   UNL     1       1.559   7.977  20.265  0.00  0.00    +0.000 A 
ATOM      6  C   UNL     1       2.404   6.999  19.810  0.00  0.00    +0.000 A 
ATOM      7  N   UNL     1       2.911   7.053  18.565  0.00  0.00    +0.000 NA
ATOM      8  H   UNL     1      -0.270   9.855  20.265  0.00  0.00    +0.000 HD
ENDROOT
BRANCH   4   9
ATOM      9  C   UNL     1       0.674  11.494  19.417  0.00  0.00    +0.000 C 
ATOM     10  C   UNL     1       0.375  12.693  20.338  0.00  0.00    +0.000 C 
ATOM     11  C   UNL     1      -0.807  13.388  19.635  0.00  0.00    +0.000 C 
ATOM     12  C   UNL     1      -2.115  12.657  19.904  0.00  0.00    +0.000 C 
ATOM     13  C   UNL     1      -1.841  11.317  19.225  0.00  0.00    +0.000 C 
ATOM     14  C   UNL     1      -0.531  11.601  18.461  0.00  0.00    +0.000 C 
ATOM     15  O   UNL     1      -0.597  13.029  18.249  0.00  0.00    +0.000 OA
ENDBRANCH   4   9
BRANCH   6  16
ATOM     16  N   UNL     1       2.758   5.863  20.472  0.00  0.00    +0.000 N 
ATOM     17  H   UNL     1       2.514   6.068  21.442  0.00  0.00    +0.000 HD
BRANCH  16  18
ATOM     18  C   UNL     1       2.584   4.448  20.188  0.00  0.00    +0.000 C 
ATOM     19  C   UNL     1       3.733   3.670  19.562  0.00  0.00    +0.000 C 
ATOM     20  C   UNL     1       2.963   2.502  18.899  0.00  0.00    +0.000 C 
ATOM     21  C   UNL     1       2.469   2.904  17.520  0.00  0.00    +0.000 C 
ATOM     22  C   UNL     1       1.471   4.010  17.882  0.00  0.00    +0.000 C 
ATOM     23  C   UNL     1       1.381   3.918  19.414  0.00  0.00    +0.000 C 
ATOM     24  O   UNL     1       1.682   2.490  19.589  0.00  0.00    +0.000 OA
ENDBRANCH  16  18
ENDBRANCH   6  16
TORSDOF 3
ENDMDL
MODEL 6
REMARK VINA RESULT:      -7.1      5.407      7.910
REMARK  Name = 
REMARK  3 active torsions:
REMARK  status: ('A' for Active; 'I' for Inactive)
REMARK    1  A    between atoms: N_4  and  C_5
REMARK    2  A    between atoms: C_13  and  N_14
REMARK    3  A    between atoms: N_14  and  C_15
REMARK                            x       y       z     vdW  Elec       q    Type
REMARK                         _______ _______ _______ _____ _____    ______ ____
ROOT
ATOM      1  C   UNL     1       1.492   8.458  20.588  0.00  0.00    +0.000 A 
ATOM      2  N   UNL     1       0.882   9.437  19.917  0.00  0.00    +0.000 NA
ATOM      3  C   UNL     1       1.052   9.415  18.593  0.00  0.00    +0.000 A 
ATOM      4  N   UNL     1       0.392  10.328  17.784  0.00  0.00    +0.000 N 
ATOM      5  C   UNL     1       1.828   8.452  17.950  0.00  0.00    +0.000 A 
ATOM      6  C   UNL     1       2.331   7.433  18.716  0.00  0.00    +0.000 A 
ATOM      7  N   UNL     1       2.190   7.444  20.053  0.00  0.00    +0.000 NA
ATOM      8  H   UNL     1       1.065  10.854  17.232  0.00  0.00    +0.000 HD
ENDROOT
BRANCH   4   9
ATOM      9  C   UNL     1      -0.712  11.159  18.256  0.00  0.00    +0.000 C 
ATOM     10  C   UNL     1      -1.695  10.562  19.282  0.00  0.00    +0.000 C 
ATOM     11  C   UNL     1      -3.063  10.731  18.595  0.00  0.00    +0.000 C 
ATOM     12  C   UNL     1      -3.281   9.663  17.532  0.00  0.00    +0.000 C 
ATOM     13  C   UNL     1      -2.173  10.009  16.541  0.00  0.00    +0.000 C 
ATOM     14  C   UNL     1      -1.678  11.371  17.073  0.00  0.00    +0.000 C 
ATOM     15  O   UNL     1      -2.845  11.885  17.751  0.00  0.00    +0.000 OA
ENDBRANCH   4   9
BRANCH   6  16
ATOM     16  N   UNL     1       3.072   6.378  18.275  0.00  0.00    +0.000 N 
ATOM     17  H   UNL     1       4.006   6.579  18.636  0.00  0.00    +0.000 HD
BRANCH  16  18
ATOM     18  C   UNL     1       2.838   4.945  18.230  0.00  0.00    +0.000 C 
ATOM     19  C   UNL     1       1.494   4.428  17.733  0.00  0.00    +0.000 C 
ATOM     20  C   UNL     1       1.453   3.037  18.408  0.00  0.00    +0.000 C 
ATOM     21  C   UNL     1       0.902   3.145  19.820  0.00  0.00    +0.000 C 
ATOM     22  C   UNL     1       1.993   3.987  20.492  0.00  0.00    +0.000 C 
ATOM     23  C   UNL     1       3.103   4.040  19.429  0.00  0.00    +0.000 C 
ATOM     24  O   UNL     1       2.843   2.767  18.743  0.00  0.00    +0.000 OA
ENDBRANCH  16  18
ENDBRANCH   6  16
TORSDOF 3
ENDMDL
MODEL 7
REMARK VINA RESULT:      -7.1      4.179      8.588
REMARK  Name = 
REMARK  3 active torsions:
REMARK  status: ('A' for Active; 'I' for Inactive)
REMARK    1  A    between atoms: N_4  and  C_5
REMARK    2  A    between atoms: C_13  and  N_14
REMARK    3  A    between atoms: N_14  and  C_15
REMARK                            x       y       z     vdW  Elec       q    Type
REMARK                         _______ _______ _______ _____ _____    ______ ____
ROOT
ATOM      1  C   UNL     1       2.479   4.492  20.194  0.00  0.00    +0.000 A 
ATOM      2  N   UNL     1       3.286   4.633  19.140  0.00  0.00    +0.000 NA
ATOM      3  C   UNL     1       3.373   5.871  18.648  0.00  0.00    +0.000 A 
ATOM      4  N   UNL     1       4.251   6.155  17.612  0.00  0.00    +0.000 N 
ATOM      5  C   UNL     1       2.659   6.944  19.178  0.00  0.00    +0.000 A 
ATOM      6  C   UNL     1       1.935   6.716  20.319  0.00  0.00    +0.000 A 
ATOM      7  N   UNL     1       1.815   5.474  20.822  0.00  0.00    +0.000 NA
ATOM      8  H   UNL     1       3.743   6.551  16.825  0.00  0.00    +0.000 HD
ENDROOT
BRANCH   4   9
ATOM      9  C   UNL     1       5.308   5.241  17.189  0.00  0.00    +0.000 C 
ATOM     10  C   UNL     1       6.146   4.534  18.273  0.00  0.00    +0.000 C 
ATOM     11  C   UNL     1       7.591   4.925  17.907  0.00  0.00    +0.000 C 
ATOM     12  C   UNL     1       7.911   6.341  18.363  0.00  0.00    +0.000 C 
ATOM     13  C   UNL     1       6.939   7.148  17.506  0.00  0.00    +0.000 C 
ATOM     14  C   UNL     1       6.414   6.082  16.521  0.00  0.00    +0.000 C 
ATOM     15  O   UNL     1       7.503   5.133  16.478  0.00  0.00    +0.000 OA
ENDBRANCH   4   9
BRANCH   6  16
ATOM     16  N   UNL     1       1.207   7.635  21.013  0.00  0.00    +0.000 N 
ATOM     17  H   UNL     1       1.193   7.258  21.962  0.00  0.00    +0.000 HD
BRANCH  16  18
ATOM     18  C   UNL     1       1.201   9.088  21.039  0.00  0.00    +0.000 C 
ATOM     19  C   UNL     1       0.416   9.807  22.128  0.00  0.00    +0.000 C 
ATOM     20  C   UNL     1       0.172  11.177  21.450  0.00  0.00    +0.000 C 
ATOM     21  C   UNL     1      -1.069  11.124  20.575  0.00  0.00    +0.000 C 
ATOM     22  C   UNL     1      -0.627  10.118  19.506  0.00  0.00    +0.000 C 
ATOM     23  C   UNL     1       0.869   9.921  19.805  0.00  0.00    +0.000 C 
ATOM     24  O   UNL     1       1.173  11.231  20.396  0.00  0.00    +0.000 OA
ENDBRANCH  16  18
ENDBRANCH   6  16
TORSDOF 3
ENDMDL
MODEL 8
REMARK VINA RESULT:      -7.1      5.853      9.266
REMARK  Name = 
REMARK  3 active torsions:
REMARK  status: ('A' for Active; 'I' for Inactive)
REMARK    1  A    between atoms: N_4  and  C_5
REMARK    2  A    between atoms: C_13  and  N_14
REMARK    3  A    between atoms: N_14  and  C_15
REMARK                            x       y       z     vdW  Elec       q    Type
REMARK                         _______ _______ _______ _____ _____    ______ ____
ROOT
ATOM      1  C   UNL     1       2.187   8.818  17.848  0.00  0.00    +0.000 A 
ATOM      2  N   UNL     1       2.584   7.634  18.318  0.00  0.00    +0.000 NA
ATOM      3  C   UNL     1       2.231   7.371  19.578  0.00  0.00    +0.000 A 
ATOM      4  N   UNL     1       2.508   6.134  20.142  0.00  0.00    +0.000 N 
ATOM      5  C   UNL     1       1.513   8.272  20.362  0.00  0.00    +0.000 A 
ATOM      6  C   UNL     1       1.068   9.418  19.758  0.00  0.00    +0.000 A 
ATOM      7  N   UNL     1       1.428   9.715  18.496  0.00  0.00    +0.000 NA
ATOM      8  H   UNL     1       3.065   6.254  20.985  0.00  0.00    +0.000 HD
ENDROOT
BRANCH   4   9
ATOM      9  C   UNL     1       2.928   4.977  19.358  0.00  0.00    +0.000 C 
ATOM     10  C   UNL     1       2.007   4.483  18.225  0.00  0.00    +0.000 C 
ATOM     11  C   UNL     1       1.766   3.005  18.588  0.00  0.00    +0.000 C 
ATOM     12  C   UNL     1       0.732   2.871  19.697  0.00  0.00    +0.000 C 
ATOM     13  C   UNL     1       1.454   3.563  20.851  0.00  0.00    +0.000 C 
ATOM     14  C   UNL     1       2.877   3.742  20.281  0.00  0.00    +0.000 C 
ATOM     15  O   UNL     1       2.967   2.667  19.320  0.00  0.00    +0.000 OA
ENDBRANCH   4   9
BRANCH   6  16
ATOM     16  N   UNL     1       0.320  10.400  20.335  0.00  0.00    +0.000 N 
ATOM     17  H   UNL     1      -0.409   9.882  20.829  0.00  0.00    +0.000 HD
BRANCH  16  18
ATOM     18  C   UNL     1       0.656  11.620  21.049  0.00  0.00    +0.000 C 
ATOM     19  C   UNL     1      -0.445  12.385  21.771  0.00  0.00    +0.000 C 
ATOM     20  C   UNL     1       0.174  13.802  21.822  0.00  0.00    +0.000 C 
ATOM     21  C   UNL     1      -0.124  14.560  20.540  0.00  0.00    +0.000 C 
ATOM     22  C   UNL     1       0.653  13.720  19.519  0.00  0.00    +0.000 C 
ATOM     23  C   UNL     1       1.454  12.747  20.400  0.00  0.00    +0.000 C 
ATOM     24  O   UNL     1       1.595  13.572  21.607  0.00  0.00    +0.000 OA
ENDBRANCH  16  18
ENDBRANCH   6  16
TORSDOF 3
ENDMDL
MODEL 9
REMARK VINA RESULT:      -7.1      5.657      8.261
REMARK  Name = 
REMARK  3 active torsions:
REMARK  status: ('A' for Active; 'I' for Inactive)
REMARK    1  A    between atoms: N_4  and  C_5
REMARK    2  A    between atoms: C_13  and  N_14
REMARK    3  A    between atoms: N_14  and  C_15
REMARK                            x       y       z     vdW  Elec       q    Type
REMARK                         _______ _______ _______ _____ _____    ______ ____
ROOT
ATOM      1  C   UNL     1       2.184   8.713  17.799  0.00  0.00    +0.000 A 
ATOM      2  N   UNL     1       1.401   9.577  18.448  0.00  0.00    +0.000 NA
ATOM      3  C   UNL     1       1.087   9.236  19.700  0.00  0.00    +0.000 A 
ATOM      4  N   UNL     1       0.356  10.100  20.501  0.00  0.00    +0.000 N 
ATOM      5  C   UNL     1       1.524   8.051  20.289  0.00  0.00    +0.000 A 
ATOM      6  C   UNL     1       2.403   7.279  19.575  0.00  0.00    +0.000 A 
ATOM      7  N   UNL     1       2.719   7.591  18.306  0.00  0.00    +0.000 NA
ATOM      8  H   UNL     1      -0.490   9.639  20.829  0.00  0.00    +0.000 HD
ENDROOT
BRANCH   4   9
ATOM      9  C   UNL     1       0.129  11.502  20.162  0.00  0.00    +0.000 C 
ATOM     10  C   UNL     1       0.923  12.580  20.925  0.00  0.00    +0.000 C 
ATOM     11  C   UNL     1      -0.182  13.486  21.501  0.00  0.00    +0.000 C 
ATOM     12  C   UNL     1      -0.819  12.862  22.735  0.00  0.00    +0.000 C 
ATOM     13  C   UNL     1      -1.455  11.612  22.131  0.00  0.00    +0.000 C 
ATOM     14  C   UNL     1      -1.298  11.868  20.617  0.00  0.00    +0.000 C 
ATOM     15  O   UNL     1      -1.255  13.311  20.547  0.00  0.00    +0.000 OA
ENDBRANCH   4   9
BRANCH   6  16
ATOM     16  N   UNL     1       2.977   6.114  19.987  0.00  0.00    +0.000 N 
ATOM     17  H   UNL     1       2.829   6.122  20.998  0.00  0.00    +0.000 HD
BRANCH  16  18
ATOM     18  C   UNL     1       2.949   4.754  19.476  0.00  0.00    +0.000 C 
ATOM     19  C   UNL     1       2.090   4.436  18.260  0.00  0.00    +0.000 C 
ATOM     20  C   UNL     1       1.869   2.917  18.453  0.00  0.00    +0.000 C 
ATOM     21  C   UNL     1       0.685   2.662  19.370  0.00  0.00    +0.000 C 
ATOM     22  C   UNL     1       1.205   3.255  20.685  0.00  0.00    +0.000 C 
ATOM     23  C   UNL     1       2.682   3.553  20.378  0.00  0.00    +0.000 C 
ATOM     24  O   UNL     1       2.932   2.520  19.364  0.00  0.00    +0.000 OA
ENDBRANCH  16  18
ENDBRANCH   6  16
TORSDOF 3
ENDMDL
