MODEL 1
REMARK VINA RESULT:      -9.5      0.000      0.000
REMARK  Name = 
REMARK  5 active torsions:
REMARK  status: ('A' for Active; 'I' for Inactive)
REMARK    1  A    between atoms: C_1  and  C_2
REMARK    2  A    between atoms: N_4  and  C_5
REMARK    3  A    between atoms: C_5  and  C_6
REMARK    4  A    between atoms: C_9  and  C_10
REMARK    5  A    between atoms: C_13  and  N_14
REMARK                            x       y       z     vdW  Elec       q    Type
REMARK                         _______ _______ _______ _____ _____    ______ ____
ROOT
ATOM      1  C   UNL     1       2.776   7.260  18.519  0.00  0.00    +0.000 A 
ATOM      2  C   UNL     1       2.345   6.935  19.813  0.00  0.00    +0.000 A 
ATOM      3  C   UNL     1       1.409   7.722  20.490  0.00  0.00    +0.000 A 
ATOM      4  C   UNL     1       0.864   8.879  19.921  0.00  0.00    +0.000 A 
ATOM      5  C   UNL     1       1.278   9.209  18.634  0.00  0.00    +0.000 A 
ATOM      6  C   UNL     1       2.193   8.399  17.944  0.00  0.00    +0.000 A 
ENDROOT
BRANCH   4   7
ATOM      7  N   UNL     1      -0.118   9.630  20.638  0.00  0.00    +0.000 N 
ATOM      8  C   UNL     1      -0.571   9.249  21.974  0.00  0.00    +0.000 C 
ATOM      9  C   UNL     1      -0.223  10.303  23.023  0.00  0.00    +0.000 C 
ATOM     10  O   UNL     1      -1.020  11.476  22.840  0.00  0.00    +0.000 OA
ATOM     11  C   UNL     1      -0.428  12.329  21.946  0.00  0.00    +0.000 A 
ATOM     12  N   UNL     1      -0.029  13.493  22.492  0.00  0.00    +0.000 NA
ATOM     13  C   UNL     1       0.510  14.370  21.637  0.00  0.00    +0.000 A 
ATOM     14  N   UNL     1       0.657  14.201  20.316  0.00  0.00    +0.000 NA
ATOM     15  C   UNL     1       0.224  13.033  19.808  0.00  0.00    +0.000 A 
ATOM     16  N   UNL     1       0.495  12.843  18.452  0.00  0.00    +0.000 N 
ATOM     17  C   UNL     1      -0.329  12.041  20.604  0.00  0.00    +0.000 A 
ATOM     18  C   UNL     1      -0.696  10.744  20.029  0.00  0.00    +0.000 C 
ATOM     19  O   UNL     1      -1.302  10.717  18.960  0.00  0.00    +0.000 OA
ATOM     20  H   UNL     1       0.790  13.716  18.028  0.00  0.00    +0.000 HD
ATOM     21  H   UNL     1      -0.278  12.383  17.969  0.00  0.00    +0.000 HD
ENDBRANCH   4   7
BRANCH   1  25
ATOM     22  C   UNL     1       5.774   4.899  16.442  0.00  0.00    +0.000 A 
ATOM     23  C   UNL     1       5.982   6.243  16.737  0.00  0.00    +0.000 A 
ATOM     24  C   UNL     1       4.999   6.977  17.410  0.00  0.00    +0.000 A 
ATOM     25  C   UNL     1       3.762   6.409  17.801  0.00  0.00    +0.000 A 
ATOM     26  C   UNL     1       3.565   5.051  17.463  0.00  0.00    +0.000 A 
ATOM     27 CL   UNL     1       2.080   4.190  17.720  0.00  0.00    +0.000 Cl
ATOM     28  C   UNL     1       4.568   4.307  16.824  0.00  0.00    +0.000 A 
BRANCH  22  29
ATOM     29  C   UNL     1       6.827   4.090  15.739  0.00  0.00    +0.000 C 
BRANCH  29  33
ATOM     30  C   UNL     1       6.028   3.385  12.128  0.00  0.00    +0.000 C 
ATOM     31  C   UNL     1       6.627   4.101  13.306  0.00  0.00    +0.000 C 
ATOM     32  O   UNL     1       7.317   5.106  13.190  0.00  0.00    +0.000 OA
ATOM     33  N   UNL     1       6.324   3.518  14.515  0.00  0.00    +0.000 N 
ATOM     34  H   UNL     1       5.760   2.683  14.552  0.00  0.00    +0.000 HD
ENDBRANCH  29  33
ENDBRANCH  22  29
ENDBRANCH   1  25
TORSDOF 4
ENDMDL
MODEL 2
REMARK VINA RESULT:      -9.4      3.573     10.192
REMARK  Name = 
REMARK  5 active torsions:
REMARK  status: ('A' for Active; 'I' for Inactive)
REMARK    1  A    between atoms: C_1  and  C_2
REMARK    2  A    between atoms: N_4  and  C_5
REMARK    3  A    between atoms: C_5  and  C_6
REMARK    4  A    between atoms: C_9  and  C_10
REMARK    5  A    between atoms: C_13  and  N_14
REMARK                            x       y       z     vdW  Elec       q    Type
REMARK                         _______ _______ _______ _____ _____    ______ ____
ROOT
ATOM      1  C   UNL     1       0.872   9.438  19.940  0.00  0.00    +0.000 A 
ATOM      2  C   UNL     1       1.298   8.299  20.637  0.00  0.00    +0.000 A 
ATOM      3  C   UNL     1       2.015   7.281  20.003  0.00  0.00    +0.000 A 
ATOM      4  C   UNL     1       2.332   7.335  18.641  0.00  0.00    +0.000 A 
ATOM      5  C   UNL     1       1.920   8.464  17.939  0.00  0.00    +0.000 A 
ATOM      6  C   UNL     1       1.230   9.500  18.585  0.00  0.00    +0.000 A 
ENDROOT
BRANCH   4   7
ATOM      7  N   UNL     1       3.098   6.286  18.046  0.00  0.00    +0.000 N 
ATOM      8  C   UNL     1       4.413   6.519  17.452  0.00  0.00    +0.000 C 
ATOM      9  C   UNL     1       5.518   5.764  18.185  0.00  0.00    +0.000 C 
ATOM     10  O   UNL     1       5.410   4.359  17.949  0.00  0.00    +0.000 OA
ATOM     11  C   UNL     1       4.562   3.778  18.857  0.00  0.00    +0.000 A 
ATOM     12  N   UNL     1       5.173   2.917  19.692  0.00  0.00    +0.000 NA
ATOM     13  C   UNL     1       4.366   2.296  20.560  0.00  0.00    +0.000 A 
ATOM     14  N   UNL     1       3.036   2.437  20.648  0.00  0.00    +0.000 NA
ATOM     15  C   UNL     1       2.465   3.290  19.780  0.00  0.00    +0.000 A 
ATOM     16  N   UNL     1       1.098   3.499  19.972  0.00  0.00    +0.000 N 
ATOM     17  C   UNL     1       3.206   4.007  18.851  0.00  0.00    +0.000 A 
ATOM     18  C   UNL     1       2.558   5.001  17.991  0.00  0.00    +0.000 C 
ATOM     19  O   UNL     1       1.495   4.714  17.447  0.00  0.00    +0.000 OA
ATOM     20  H   UNL     1       0.723   2.805  20.609  0.00  0.00    +0.000 HD
ATOM     21  H   UNL     1       0.594   3.570  19.086  0.00  0.00    +0.000 HD
ENDBRANCH   4   7
BRANCH   1  25
ATOM     22  C   UNL     1      -1.363  12.671  21.792  0.00  0.00    +0.000 A 
ATOM     23  C   UNL     1      -1.082  12.669  20.429  0.00  0.00    +0.000 A 
ATOM     24  C   UNL     1      -0.362  11.612  19.860  0.00  0.00    +0.000 A 
ATOM     25  C   UNL     1       0.122  10.524  20.626  0.00  0.00    +0.000 A 
ATOM     26  C   UNL     1      -0.154  10.566  22.012  0.00  0.00    +0.000 A 
ATOM     27 CL   UNL     1       0.453   9.415  23.161  0.00  0.00    +0.000 Cl
ATOM     28  C   UNL     1      -0.910  11.607  22.573  0.00  0.00    +0.000 A 
BRANCH  22  29
ATOM     29  C   UNL     1      -2.153  13.787  22.414  0.00  0.00    +0.000 C 
BRANCH  29  33
ATOM     30  C   UNL     1      -4.617  12.357  24.876  0.00  0.00    +0.000 C 
ATOM     31  C   UNL     1      -4.055  12.750  23.539  0.00  0.00    +0.000 C 
ATOM     32  O   UNL     1      -4.648  12.546  22.485  0.00  0.00    +0.000 OA
ATOM     33  N   UNL     1      -2.822  13.354  23.616  0.00  0.00    +0.000 N 
ATOM     34  H   UNL     1      -2.374  13.486  24.509  0.00  0.00    +0.000 HD
ENDBRANCH  29  33
ENDBRANCH  22  29
ENDBRANCH   1  25
TORSDOF 4
ENDMDL
MODEL 3
REMARK VINA RESULT:      -9.4      3.650     10.312
REMARK  Name = 
REMARK  5 active torsions:
REMARK  status: ('A' for Active; 'I' for Inactive)
REMARK    1  A    between atoms: C_1  and  C_2
REMARK    2  A    between atoms: N_4  and  C_5
REMARK    3  A    between atoms: C_5  and  C_6
REMARK    4  A    between atoms: C_9  and  C_10
REMARK    5  A    between atoms: C_13  and  N_14
REMARK                            x       y       z     vdW  Elec       q    Type
REMARK                         _______ _______ _______ _____ _____    ______ ____
ROOT
ATOM      1  C   UNL     1       0.845   9.342  20.239  0.00  0.00    +0.000 A 
ATOM      2  C   UNL     1       1.307   8.182  20.878  0.00  0.00    +0.000 A 
ATOM      3  C   UNL     1       2.016   7.199  20.183  0.00  0.00    +0.000 A 
ATOM      4  C   UNL     1       2.290   7.311  18.814  0.00  0.00    +0.000 A 
ATOM      5  C   UNL     1       1.843   8.461  18.170  0.00  0.00    +0.000 A 
ATOM      6  C   UNL     1       1.161   9.462  18.878  0.00  0.00    +0.000 A 
ENDROOT
BRANCH   4   7
ATOM      7  N   UNL     1       3.050   6.296  18.155  0.00  0.00    +0.000 N 
ATOM      8  C   UNL     1       4.350   6.567  17.543  0.00  0.00    +0.000 C 
ATOM      9  C   UNL     1       5.477   5.789  18.217  0.00  0.00    +0.000 C 
ATOM     10  O   UNL     1       5.373   4.394  17.919  0.00  0.00    +0.000 OA
ATOM     11  C   UNL     1       4.550   3.766  18.818  0.00  0.00    +0.000 A 
ATOM     12  N   UNL     1       5.186   2.873  19.600  0.00  0.00    +0.000 NA
ATOM     13  C   UNL     1       4.404   2.207  20.456  0.00  0.00    +0.000 A 
ATOM     14  N   UNL     1       3.075   2.332  20.580  0.00  0.00    +0.000 NA
ATOM     15  C   UNL     1       2.478   3.219  19.764  0.00  0.00    +0.000 A 
ATOM     16  N   UNL     1       1.114   3.409  19.996  0.00  0.00    +0.000 N 
ATOM     17  C   UNL     1       3.193   3.984  18.853  0.00  0.00    +0.000 A 
ATOM     18  C   UNL     1       2.519   5.010  18.054  0.00  0.00    +0.000 C 
ATOM     19  O   UNL     1       1.445   4.740  17.521  0.00  0.00    +0.000 OA
ATOM     20  H   UNL     1       0.759   2.683  20.609  0.00  0.00    +0.000 HD
ATOM     21  H   UNL     1       0.590   3.515  19.126  0.00  0.00    +0.000 HD
ENDBRANCH   4   7
BRANCH   1  25
ATOM     22  C   UNL     1      -1.318  12.301  22.572  0.00  0.00    +0.000 A 
ATOM     23  C   UNL     1      -1.125  11.005  23.040  0.00  0.00    +0.000 A 
ATOM     24  C   UNL     1      -0.421  10.074  22.268  0.00  0.00    +0.000 A 
ATOM     25  C   UNL     1       0.104  10.389  20.991  0.00  0.00    +0.000 A 
ATOM     26  C   UNL     1      -0.131  11.704  20.528  0.00  0.00    +0.000 A 
ATOM     27 CL   UNL     1       0.300  12.270  18.944  0.00  0.00    +0.000 Cl
ATOM     28  C   UNL     1      -0.802  12.647  21.322  0.00  0.00    +0.000 A 
BRANCH  22  29
ATOM     29  C   UNL     1      -2.051  13.319  23.398  0.00  0.00    +0.000 C 
BRANCH  29  33
ATOM     30  C   UNL     1      -5.779  13.198  22.884  0.00  0.00    +0.000 C 
ATOM     31  C   UNL     1      -4.450  12.876  23.507  0.00  0.00    +0.000 C 
ATOM     32  O   UNL     1      -4.330  12.109  24.454  0.00  0.00    +0.000 OA
ATOM     33  N   UNL     1      -3.393  13.525  22.911  0.00  0.00    +0.000 N 
ATOM     34  H   UNL     1      -3.550  14.156  22.141  0.00  0.00    +0.000 HD
ENDBRANCH  29  33
ENDBRANCH  22  29
ENDBRANCH   1  25
TORSDOF 4
ENDMDL
MODEL 4
REMARK VINA RESULT:      -9.4      2.891     10.069
REMARK  Name = 
REMARK  5 active torsions:
REMARK  status: ('A' for Active; 'I' for Inactive)
REMARK    1  A    between atoms: C_1  and  C_2
REMARK    2  A    between atoms: N_4  and  C_5
REMARK    3  A    between atoms: C_5  and  C_6
REMARK    4  A    between atoms: C_9  and  C_10
REMARK    5  A    between atoms: C_13  and  N_14
REMARK                            x       y       z     vdW  Elec       q    Type
REMARK                         _______ _______ _______ _____ _____    ______ ____
ROOT
ATOM      1  C   UNL     1       1.151   8.572  19.991  0.00  0.00    +0.000 A 
ATOM      2  C   UNL     1       1.232   7.439  20.812  0.00  0.00    +0.000 A 
ATOM      3  C   UNL     1       1.994   6.325  20.447  0.00  0.00    +0.000 A 
ATOM      4  C   UNL     1       2.702   6.276  19.241  0.00  0.00    +0.000 A 
ATOM      5  C   UNL     1       2.635   7.397  18.420  0.00  0.00    +0.000 A 
ATOM      6  C   UNL     1       1.897   8.526  18.804  0.00  0.00    +0.000 A 
ENDROOT
BRANCH   4   7
ATOM      7  N   UNL     1       3.496   5.129  18.928  0.00  0.00    +0.000 N 
ATOM      8  C   UNL     1       2.922   3.791  18.806  0.00  0.00    +0.000 C 
ATOM      9  C   UNL     1       3.068   3.228  17.395  0.00  0.00    +0.000 C 
ATOM     10  O   UNL     1       4.434   2.913  17.118  0.00  0.00    +0.000 OA
ATOM     11  C   UNL     1       5.095   4.011  16.630  0.00  0.00    +0.000 A 
ATOM     12  N   UNL     1       5.498   3.876  15.352  0.00  0.00    +0.000 NA
ATOM     13  C   UNL     1       6.188   4.910  14.859  0.00  0.00    +0.000 A 
ATOM     14  N   UNL     1       6.525   6.026  15.520  0.00  0.00    +0.000 NA
ATOM     15  C   UNL     1       6.122   6.110  16.800  0.00  0.00    +0.000 A 
ATOM     16  N   UNL     1       6.389   7.330  17.424  0.00  0.00    +0.000 N 
ATOM     17  C   UNL     1       5.379   5.109  17.409  0.00  0.00    +0.000 A 
ATOM     18  C   UNL     1       4.874   5.282  18.773  0.00  0.00    +0.000 C 
ATOM     19  O   UNL     1       5.626   5.735  19.633  0.00  0.00    +0.000 OA
ATOM     20  H   UNL     1       7.034   7.876  16.864  0.00  0.00    +0.000 HD
ATOM     21  H   UNL     1       6.678   7.207  18.396  0.00  0.00    +0.000 HD
ENDBRANCH   4   7
BRANCH   1  25
ATOM     22  C   UNL     1      -1.106  12.039  21.319  0.00  0.00    +0.000 A 
ATOM     23  C   UNL     1      -0.302  11.315  22.194  0.00  0.00    +0.000 A 
ATOM     24  C   UNL     1       0.416  10.205  21.737  0.00  0.00    +0.000 A 
ATOM     25  C   UNL     1       0.349   9.758  20.395  0.00  0.00    +0.000 A 
ATOM     26  C   UNL     1      -0.496  10.495  19.534  0.00  0.00    +0.000 A 
ATOM     27 CL   UNL     1      -0.835  10.052  17.890  0.00  0.00    +0.000 Cl
ATOM     28  C   UNL     1      -1.183  11.632  19.986  0.00  0.00    +0.000 A 
BRANCH  22  29
ATOM     29  C   UNL     1      -1.866  13.247  21.788  0.00  0.00    +0.000 C 
BRANCH  29  33
ATOM     30  C   UNL     1      -4.222  12.444  24.612  0.00  0.00    +0.000 C 
ATOM     31  C   UNL     1      -3.763  12.627  23.193  0.00  0.00    +0.000 C 
ATOM     32  O   UNL     1      -4.495  12.433  22.229  0.00  0.00    +0.000 OA
ATOM     33  N   UNL     1      -2.452  13.029  23.087  0.00  0.00    +0.000 N 
ATOM     34  H   UNL     1      -1.891  13.163  23.914  0.00  0.00    +0.000 HD
ENDBRANCH  29  33
ENDBRANCH  22  29
ENDBRANCH   1  25
TORSDOF 4
ENDMDL
MODEL 5
REMARK VINA RESULT:      -9.4      3.709      9.799
REMARK  Name = 
REMARK  5 active torsions:
REMARK  status: ('A' for Active; 'I' for Inactive)
REMARK    1  A    between atoms: C_1  and  C_2
REMARK    2  A    between atoms: N_4  and  C_5
REMARK    3  A    between atoms: C_5  and  C_6
REMARK    4  A    between atoms: C_9  and  C_10
REMARK    5  A    between atoms: C_13  and  N_14
REMARK                            x       y       z     vdW  Elec       q    Type
REMARK                         _______ _______ _______ _____ _____    ______ ____
ROOT
ATOM      1  C   UNL     1       1.095   9.618  19.258  0.00  0.00    +0.000 A 
ATOM      2  C   UNL     1       1.510   9.411  17.935  0.00  0.00    +0.000 A 
ATOM      3  C   UNL     1       2.167   8.238  17.550  0.00  0.00    +0.000 A 
ATOM      4  C   UNL     1       2.457   7.219  18.465  0.00  0.00    +0.000 A 
ATOM      5  C   UNL     1       2.044   7.409  19.779  0.00  0.00    +0.000 A 
ATOM      6  C   UNL     1       1.356   8.572  20.155  0.00  0.00    +0.000 A 
ENDROOT
BRANCH   4   7
ATOM      7  N   UNL     1       3.099   6.023  18.016  0.00  0.00    +0.000 N 
ATOM      8  C   UNL     1       4.449   6.022  17.457  0.00  0.00    +0.000 C 
ATOM      9  C   UNL     1       5.426   5.220  18.313  0.00  0.00    +0.000 C 
ATOM     10  O   UNL     1       5.144   3.822  18.222  0.00  0.00    +0.000 OA
ATOM     11  C   UNL     1       4.203   3.456  19.149  0.00  0.00    +0.000 A 
ATOM     12  N   UNL     1       4.673   2.622  20.096  0.00  0.00    +0.000 NA
ATOM     13  C   UNL     1       3.768   2.206  20.990  0.00  0.00    +0.000 A 
ATOM     14  N   UNL     1       2.465   2.521  21.005  0.00  0.00    +0.000 NA
ATOM     15  C   UNL     1       2.034   3.339  20.028  0.00  0.00    +0.000 A 
ATOM     16  N   UNL     1       0.701   3.738  20.139  0.00  0.00    +0.000 N 
ATOM     17  C   UNL     1       2.888   3.850  19.062  0.00  0.00    +0.000 A 
ATOM     18  C   UNL     1       2.399   4.817  18.075  0.00  0.00    +0.000 C 
ATOM     19  O   UNL     1       1.323   4.608  17.519  0.00  0.00    +0.000 OA
ATOM     20  H   UNL     1       0.222   3.170  20.830  0.00  0.00    +0.000 HD
ATOM     21  H   UNL     1       0.236   3.773  19.230  0.00  0.00    +0.000 HD
ENDBRANCH   4   7
BRANCH   1  25
ATOM     22  C   UNL     1      -0.835  13.313  20.481  0.00  0.00    +0.000 A 
ATOM     23  C   UNL     1       0.442  12.979  20.921  0.00  0.00    +0.000 A 
ATOM     24  C   UNL     1       1.040  11.783  20.507  0.00  0.00    +0.000 A 
ATOM     25  C   UNL     1       0.384  10.863  19.654  0.00  0.00    +0.000 A 
ATOM     26  C   UNL     1      -0.923  11.213  19.246  0.00  0.00    +0.000 A 
ATOM     27 CL   UNL     1      -1.962  10.180  18.315  0.00  0.00    +0.000 Cl
ATOM     28  C   UNL     1      -1.504  12.432  19.630  0.00  0.00    +0.000 A 
BRANCH  22  29
ATOM     29  C   UNL     1      -1.482  14.603  20.898  0.00  0.00    +0.000 C 
BRANCH  29  33
ATOM     30  C   UNL     1      -0.956  17.349  18.377  0.00  0.00    +0.000 C 
ATOM     31  C   UNL     1      -0.673  16.488  19.576  0.00  0.00    +0.000 C 
ATOM     32  O   UNL     1       0.309  16.651  20.291  0.00  0.00    +0.000 OA
ATOM     33  N   UNL     1      -1.616  15.510  19.785  0.00  0.00    +0.000 N 
ATOM     34  H   UNL     1      -2.399  15.413  19.158  0.00  0.00    +0.000 HD
ENDBRANCH  29  33
ENDBRANCH  22  29
ENDBRANCH   1  25
TORSDOF 4
ENDMDL
MODEL 6
REMARK VINA RESULT:      -9.4      2.904      9.709
REMARK  Name = 
REMARK  5 active torsions:
REMARK  status: ('A' for Active; 'I' for Inactive)
REMARK    1  A    between atoms: C_1  and  C_2
REMARK    2  A    between atoms: N_4  and  C_5
REMARK    3  A    between atoms: C_5  and  C_6
REMARK    4  A    between atoms: C_9  and  C_10
REMARK    5  A    between atoms: C_13  and  N_14
REMARK                            x       y       z     vdW  Elec       q    Type
REMARK                         _______ _______ _______ _____ _____    ______ ____
ROOT
ATOM      1  C   UNL     1       1.439   9.013  19.273  0.00  0.00    +0.000 A 
ATOM      2  C   UNL     1       1.525   8.011  20.249  0.00  0.00    +0.000 A 
ATOM      3  C   UNL     1       2.229   6.825  20.019  0.00  0.00    +0.000 A 
ATOM      4  C   UNL     1       2.870   6.570  18.801  0.00  0.00    +0.000 A 
ATOM      5  C   UNL     1       2.798   7.560  17.826  0.00  0.00    +0.000 A 
ATOM      6  C   UNL     1       2.119   8.762  18.072  0.00  0.00    +0.000 A 
ENDROOT
BRANCH   4   7
ATOM      7  N   UNL     1       3.608   5.358  18.626  0.00  0.00    +0.000 N 
ATOM      8  C   UNL     1       2.955   4.058  18.493  0.00  0.00    +0.000 C 
ATOM      9  C   UNL     1       3.214   3.419  17.131  0.00  0.00    +0.000 C 
ATOM     10  O   UNL     1       4.576   3.000  17.023  0.00  0.00    +0.000 OA
ATOM     11  C   UNL     1       5.364   4.025  16.569  0.00  0.00    +0.000 A 
ATOM     12  N   UNL     1       5.894   3.802  15.351  0.00  0.00    +0.000 NA
ATOM     13  C   UNL     1       6.707   4.762  14.898  0.00  0.00    +0.000 A 
ATOM     14  N   UNL     1       7.050   5.883  15.548  0.00  0.00    +0.000 NA
ATOM     15  C   UNL     1       6.516   6.056  16.770  0.00  0.00    +0.000 A 
ATOM     16  N   UNL     1       6.802   7.283  17.371  0.00  0.00    +0.000 N 
ATOM     17  C   UNL     1       5.641   5.137  17.330  0.00  0.00    +0.000 A 
ATOM     18  C   UNL     1       5.002   5.409  18.621  0.00  0.00    +0.000 C 
ATOM     19  O   UNL     1       5.686   5.851  19.542  0.00  0.00    +0.000 OA
ATOM     20  H   UNL     1       7.542   7.756  16.866  0.00  0.00    +0.000 HD
ATOM     21  H   UNL     1       6.973   7.187  18.373  0.00  0.00    +0.000 HD
ENDBRANCH   4   7
BRANCH   1  25
ATOM     22  C   UNL     1      -0.599  12.751  20.141  0.00  0.00    +0.000 A 
ATOM     23  C   UNL     1       0.465  12.304  20.920  0.00  0.00    +0.000 A 
ATOM     24  C   UNL     1       1.104  11.097  20.613  0.00  0.00    +0.000 A 
ATOM     25  C   UNL     1       0.700  10.277  19.532  0.00  0.00    +0.000 A 
ATOM     26  C   UNL     1      -0.401  10.741  18.776  0.00  0.00    +0.000 A 
ATOM     27 CL   UNL     1      -1.151   9.840  17.495  0.00  0.00    +0.000 Cl
ATOM     28  C   UNL     1      -1.013  11.971  19.061  0.00  0.00    +0.000 A 
BRANCH  22  29
ATOM     29  C   UNL     1      -1.281  14.054  20.443  0.00  0.00    +0.000 C 
BRANCH  29  33
ATOM     30  C   UNL     1      -0.314  16.855  18.119  0.00  0.00    +0.000 C 
ATOM     31  C   UNL     1      -0.281  15.996  19.352  0.00  0.00    +0.000 C 
ATOM     32  O   UNL     1       0.489  16.202  20.283  0.00  0.00    +0.000 OA
ATOM     33  N   UNL     1      -1.193  14.966  19.329  0.00  0.00    +0.000 N 
ATOM     34  H   UNL     1      -1.795  14.836  18.532  0.00  0.00    +0.000 HD
ENDBRANCH  29  33
ENDBRANCH  22  29
ENDBRANCH   1  25
TORSDOF 4
ENDMDL
MODEL 7
REMARK VINA RESULT:      -9.4      0.615      1.056
REMARK  Name = 
REMARK  5 active torsions:
REMARK  status: ('A' for Active; 'I' for Inactive)
REMARK    1  A    between atoms: C_1  and  C_2
REMARK    2  A    between atoms: N_4  and  C_5
REMARK    3  A    between atoms: C_5  and  C_6
REMARK    4  A    between atoms: C_9  and  C_10
REMARK    5  A    between atoms: C_13  and  N_14
REMARK                            x       y       z     vdW  Elec       q    Type
REMARK                         _______ _______ _______ _____ _____    ______ ____
ROOT
ATOM      1  C   UNL     1       2.668   7.434  18.451  0.00  0.00    +0.000 A 
ATOM      2  C   UNL     1       2.131   8.527  17.756  0.00  0.00    +0.000 A 
ATOM      3  C   UNL     1       1.237   9.412  18.365  0.00  0.00    +0.000 A 
ATOM      4  C   UNL     1       0.818   9.247  19.690  0.00  0.00    +0.000 A 
ATOM      5  C   UNL     1       1.349   8.169  20.393  0.00  0.00    +0.000 A 
ATOM      6  C   UNL     1       2.272   7.302  19.790  0.00  0.00    +0.000 A 
ENDROOT
BRANCH   4   7
ATOM      7  N   UNL     1      -0.070  10.198  20.280  0.00  0.00    +0.000 N 
ATOM      8  C   UNL     1      -0.761   9.944  21.543  0.00  0.00    +0.000 C 
ATOM      9  C   UNL     1      -0.340  10.923  22.636  0.00  0.00    +0.000 C 
ATOM     10  O   UNL     1      -0.845  12.232  22.362  0.00  0.00    +0.000 OA
ATOM     11  C   UNL     1       0.021  12.927  21.559  0.00  0.00    +0.000 A 
ATOM     12  N   UNL     1       0.580  13.993  22.163  0.00  0.00    +0.000 NA
ATOM     13  C   UNL     1       1.395  14.723  21.393  0.00  0.00    +0.000 A 
ATOM     14  N   UNL     1       1.672  14.502  20.100  0.00  0.00    +0.000 NA
ATOM     15  C   UNL     1       1.076  13.441  19.531  0.00  0.00    +0.000 A 
ATOM     16  N   UNL     1       1.474  13.173  18.220  0.00  0.00    +0.000 N 
ATOM     17  C   UNL     1       0.230  12.600  20.240  0.00  0.00    +0.000 A 
ATOM     18  C   UNL     1      -0.321  11.396  19.610  0.00  0.00    +0.000 C 
ATOM     19  O   UNL     1      -0.776  11.476  18.472  0.00  0.00    +0.000 OA
ATOM     20  H   UNL     1       1.996  13.957  17.846  0.00  0.00    +0.000 HD
ATOM     21  H   UNL     1       0.691  12.874  17.636  0.00  0.00    +0.000 HD
ENDBRANCH   4   7
BRANCH   1  25
ATOM     22  C   UNL     1       5.600   4.843  16.562  0.00  0.00    +0.000 A 
ATOM     23  C   UNL     1       5.855   6.194  16.779  0.00  0.00    +0.000 A 
ATOM     24  C   UNL     1       4.892   7.004  17.392  0.00  0.00    +0.000 A 
ATOM     25  C   UNL     1       3.630   6.506  17.799  0.00  0.00    +0.000 A 
ATOM     26  C   UNL     1       3.387   5.138  17.542  0.00  0.00    +0.000 A 
ATOM     27 CL   UNL     1       1.868   4.348  17.830  0.00  0.00    +0.000 Cl
ATOM     28  C   UNL     1       4.369   4.320  16.963  0.00  0.00    +0.000 A 
BRANCH  22  29
ATOM     29  C   UNL     1       6.630   3.956  15.925  0.00  0.00    +0.000 C 
BRANCH  29  33
ATOM     30  C   UNL     1       6.005   3.459  12.245  0.00  0.00    +0.000 C 
ATOM     31  C   UNL     1       6.553   4.100  13.489  0.00  0.00    +0.000 C 
ATOM     32  O   UNL     1       7.263   5.099  13.462  0.00  0.00    +0.000 OA
ATOM     33  N   UNL     1       6.182   3.459  14.648  0.00  0.00    +0.000 N 
ATOM     34  H   UNL     1       5.605   2.633  14.611  0.00  0.00    +0.000 HD
ENDBRANCH  29  33
ENDBRANCH  22  29
ENDBRANCH   1  25
TORSDOF 4
ENDMDL
MODEL 8
REMARK VINA RESULT:      -9.3      3.547     10.097
REMARK  Name = 
REMARK  5 active torsions:
REMARK  status: ('A' for Active; 'I' for Inactive)
REMARK    1  A    between atoms: C_1  and  C_2
REMARK    2  A    between atoms: N_4  and  C_5
REMARK    3  A    between atoms: C_5  and  C_6
REMARK    4  A    between atoms: C_9  and  C_10
REMARK    5  A    between atoms: C_13  and  N_14
REMARK                            x       y       z     vdW  Elec       q    Type
REMARK                         _______ _______ _______ _____ _____    ______ ____
ROOT
ATOM      1  C   UNL     1       1.107   9.624  19.413  0.00  0.00    +0.000 A 
ATOM      2  C   UNL     1       1.515   9.469  18.081  0.00  0.00    +0.000 A 
ATOM      3  C   UNL     1       2.166   8.311  17.647  0.00  0.00    +0.000 A 
ATOM      4  C   UNL     1       2.459   7.255  18.519  0.00  0.00    +0.000 A 
ATOM      5  C   UNL     1       2.054   7.395  19.842  0.00  0.00    +0.000 A 
ATOM      6  C   UNL     1       1.370   8.543  20.267  0.00  0.00    +0.000 A 
ENDROOT
BRANCH   4   7
ATOM      7  N   UNL     1       3.095   6.076  18.020  0.00  0.00    +0.000 N 
ATOM      8  C   UNL     1       4.425   6.102  17.414  0.00  0.00    +0.000 C 
ATOM      9  C   UNL     1       5.439   5.290  18.216  0.00  0.00    +0.000 C 
ATOM     10  O   UNL     1       5.166   3.891  18.101  0.00  0.00    +0.000 OA
ATOM     11  C   UNL     1       4.262   3.494  19.052  0.00  0.00    +0.000 A 
ATOM     12  N   UNL     1       4.773   2.644  19.962  0.00  0.00    +0.000 NA
ATOM     13  C   UNL     1       3.904   2.199  20.877  0.00  0.00    +0.000 A 
ATOM     14  N   UNL     1       2.600   2.500  20.946  0.00  0.00    +0.000 NA
ATOM     15  C   UNL     1       2.127   3.336  20.005  0.00  0.00    +0.000 A 
ATOM     16  N   UNL     1       0.795   3.719  20.172  0.00  0.00    +0.000 N 
ATOM     17  C   UNL     1       2.941   3.878  19.021  0.00  0.00    +0.000 A 
ATOM     18  C   UNL     1       2.409   4.862  18.075  0.00  0.00    +0.000 C 
ATOM     19  O   UNL     1       1.316   4.656  17.553  0.00  0.00    +0.000 OA
ATOM     20  H   UNL     1       0.346   3.131  20.865  0.00  0.00    +0.000 HD
ATOM     21  H   UNL     1       0.298   3.771  19.281  0.00  0.00    +0.000 HD
ENDBRANCH   4   7
BRANCH   1  25
ATOM     22  C   UNL     1      -0.808  13.271  20.795  0.00  0.00    +0.000 A 
ATOM     23  C   UNL     1       0.460  12.902  21.236  0.00  0.00    +0.000 A 
ATOM     24  C   UNL     1       1.053  11.723  20.770  0.00  0.00    +0.000 A 
ATOM     25  C   UNL     1       0.401  10.854  19.862  0.00  0.00    +0.000 A 
ATOM     26  C   UNL     1      -0.896  11.238  19.453  0.00  0.00    +0.000 A 
ATOM     27 CL   UNL     1      -1.930  10.264  18.455  0.00  0.00    +0.000 Cl
ATOM     28  C   UNL     1      -1.471  12.441  19.890  0.00  0.00    +0.000 A 
BRANCH  22  29
ATOM     29  C   UNL     1      -1.449  14.544  21.268  0.00  0.00    +0.000 C 
BRANCH  29  33
ATOM     30  C   UNL     1      -3.265  14.013  24.524  0.00  0.00    +0.000 C 
ATOM     31  C   UNL     1      -2.109  14.296  23.605  0.00  0.00    +0.000 C 
ATOM     32  O   UNL     1      -0.974  14.511  24.015  0.00  0.00    +0.000 OA
ATOM     33  N   UNL     1      -2.451  14.289  22.273  0.00  0.00    +0.000 N 
ATOM     34  H   UNL     1      -3.404  14.117  21.992  0.00  0.00    +0.000 HD
ENDBRANCH  29  33
ENDBRANCH  22  29
ENDBRANCH   1  25
TORSDOF 4
ENDMDL
MODEL 9
REMARK VINA RESULT:      -9.3      3.651     10.147
REMARK  Name = 
REMARK  5 active torsions:
REMARK  status: ('A' for Active; 'I' for Inactive)
REMARK    1  A    between atoms: C_1  and  C_2
REMARK    2  A    between atoms: N_4  and  C_5
REMARK    3  A    between atoms: C_5  and  C_6
REMARK    4  A    between atoms: C_9  and  C_10
REMARK    5  A    between atoms: C_13  and  N_14
REMARK                            x       y       z     vdW  Elec       q    Type
REMARK                         _______ _______ _______ _____ _____    ______ ____
ROOT
ATOM      1  C   UNL     1       0.784   9.344  19.685  0.00  0.00    +0.000 A 
ATOM      2  C   UNL     1       1.141   8.234  20.464  0.00  0.00    +0.000 A 
ATOM      3  C   UNL     1       1.895   7.183  19.935  0.00  0.00    +0.000 A 
ATOM      4  C   UNL     1       2.320   7.174  18.601  0.00  0.00    +0.000 A 
ATOM      5  C   UNL     1       1.977   8.273  17.819  0.00  0.00    +0.000 A 
ATOM      6  C   UNL     1       1.249   9.342  18.362  0.00  0.00    +0.000 A 
ENDROOT
BRANCH   4   7
ATOM      7  N   UNL     1       3.120   6.094  18.116  0.00  0.00    +0.000 N 
ATOM      8  C   UNL     1       4.493   6.285  17.653  0.00  0.00    +0.000 C 
ATOM      9  C   UNL     1       5.502   5.531  18.517  0.00  0.00    +0.000 C 
ATOM     10  O   UNL     1       5.387   4.121  18.308  0.00  0.00    +0.000 OA
ATOM     11  C   UNL     1       4.439   3.583  19.140  0.00  0.00    +0.000 A 
ATOM     12  N   UNL     1       4.943   2.736  20.057  0.00  0.00    +0.000 NA
ATOM     13  C   UNL     1       4.039   2.156  20.855  0.00  0.00    +0.000 A 
ATOM     14  N   UNL     1       2.710   2.324  20.801  0.00  0.00    +0.000 NA
ATOM     15  C   UNL     1       2.249   3.162  19.857  0.00  0.00    +0.000 A 
ATOM     16  N   UNL     1       0.874   3.403  19.902  0.00  0.00    +0.000 N 
ATOM     17  C   UNL     1       3.096   3.837  18.990  0.00  0.00    +0.000 A 
ATOM     18  C   UNL     1       2.561   4.818  18.041  0.00  0.00    +0.000 C 
ATOM     19  O   UNL     1       1.552   4.536  17.399  0.00  0.00    +0.000 OA
ATOM     20  H   UNL     1       0.422   2.734  20.516  0.00  0.00    +0.000 HD
ATOM     21  H   UNL     1       0.465   3.457  18.968  0.00  0.00    +0.000 HD
ENDBRANCH   4   7
BRANCH   1  25
ATOM     22  C   UNL     1      -1.410  12.630  21.491  0.00  0.00    +0.000 A 
ATOM     23  C   UNL     1      -0.369  11.994  22.161  0.00  0.00    +0.000 A 
ATOM     24  C   UNL     1       0.321  10.941  21.553  0.00  0.00    +0.000 A 
ATOM     25  C   UNL     1      -0.007  10.464  20.260  0.00  0.00    +0.000 A 
ATOM     26  C   UNL     1      -1.086  11.109  19.614  0.00  0.00    +0.000 A 
ATOM     27 CL   UNL     1      -1.748  10.607  18.089  0.00  0.00    +0.000 Cl
ATOM     28  C   UNL     1      -1.750  12.191  20.210  0.00  0.00    +0.000 A 
BRANCH  22  29
ATOM     29  C   UNL     1      -2.148  13.777  22.121  0.00  0.00    +0.000 C 
BRANCH  29  33
ATOM     30  C   UNL     1      -4.406  12.423  24.813  0.00  0.00    +0.000 C 
ATOM     31  C   UNL     1      -3.938  12.746  23.421  0.00  0.00    +0.000 C 
ATOM     32  O   UNL     1      -4.581  12.451  22.421  0.00  0.00    +0.000 OA
ATOM     33  N   UNL     1      -2.729  13.400  23.386  0.00  0.00    +0.000 N 
ATOM     34  H   UNL     1      -2.236  13.609  24.240  0.00  0.00    +0.000 HD
ENDBRANCH  29  33
ENDBRANCH  22  29
ENDBRANCH   1  25
TORSDOF 4
ENDMDL
