MODEL 1
REMARK VINA RESULT:      -8.4      0.000      0.000
REMARK  Name = 
REMARK  8 active torsions:
REMARK  status: ('A' for Active; 'I' for Inactive)
REMARK    1  A    between atoms: C_1  and  C_2
REMARK    2  A    between atoms: C_4  and  N_5
REMARK    3  A    between atoms: C_8  and  N_9
REMARK    4  A    between atoms: N_9  and  C_10
REMARK    5  A    between atoms: C_10  and  C_11
REMARK    6  A    between atoms: C_11  and  O_12
REMARK    7  A    between atoms: O_12  and  C_13
REMARK    8  A    between atoms: C_22  and  C_23
REMARK                            x       y       z     vdW  Elec       q    Type
REMARK                         _______ _______ _______ _____ _____    ______ ____
ROOT
ATOM      1  N   UNL     1       4.422   3.860  17.937  0.00  0.00    +0.000 N 
ATOM      2  C   UNL     1       4.665   3.481  19.323  0.00  0.00    +0.000 C 
ATOM      3  C   UNL     1       4.068   2.087  19.506  0.00  0.00    +0.000 C 
ATOM      4  C   UNL     1       2.583   2.032  19.105  0.00  0.00    +0.000 C 
ATOM      5  C   UNL     1       2.392   2.598  17.682  0.00  0.00    +0.000 C 
ATOM      6  C   UNL     1       3.028   3.975  17.535  0.00  0.00    +0.000 C 
ENDROOT
BRANCH   1  10
ATOM      7  C   UNL     1       7.669   7.477  17.577  0.00  0.00    +0.000 C 
ATOM      8  C   UNL     1       6.987   6.259  17.039  0.00  0.00    +0.000 A 
ATOM      9  C   UNL     1       6.082   5.566  17.811  0.00  0.00    +0.000 A 
ATOM     10  C   UNL     1       5.419   4.502  17.235  0.00  0.00    +0.000 A 
ATOM     11  N   UNL     1       5.661   4.147  15.960  0.00  0.00    +0.000 NA
ATOM     12  C   UNL     1       6.580   4.854  15.282  0.00  0.00    +0.000 A 
ATOM     13  C   UNL     1       6.852   4.458  13.863  0.00  0.00    +0.000 C 
ATOM     14  N   UNL     1       7.262   5.905  15.769  0.00  0.00    +0.000 NA
ENDBRANCH   1  10
BRANCH   4  15
ATOM     15  N   UNL     1       1.761   2.703  20.133  0.00  0.00    +0.000 NA
ATOM     16  H   UNL     1       2.287   2.811  20.997  0.00  0.00    +0.000 HD
BRANCH  15  17
ATOM     17  C   UNL     1       1.228   4.014  19.735  0.00  0.00    +0.000 C 
BRANCH  17  18
ATOM     18  C   UNL     1       1.583   5.133  20.716  0.00  0.00    +0.000 C 
BRANCH  18  19
ATOM     19  O   UNL     1       2.617   5.957  20.180  0.00  0.00    +0.000 OA
BRANCH  19  20
ATOM     20  C   UNL     1       2.177   7.169  19.710  0.00  0.00    +0.000 A 
ATOM     21  C   UNL     1       2.471   7.430  18.373  0.00  0.00    +0.000 A 
ATOM     22  C   UNL     1       2.084   8.640  17.792  0.00  0.00    +0.000 A 
ATOM     23  C   UNL     1       1.388   9.586  18.543  0.00  0.00    +0.000 A 
ATOM     24  C   UNL     1       1.073   9.323  19.872  0.00  0.00    +0.000 A 
ATOM     25  C   UNL     1       1.462   8.114  20.453  0.00  0.00    +0.000 A 
ENDBRANCH  19  20
ENDBRANCH  18  19
ENDBRANCH  17  18
ENDBRANCH  15  17
ENDBRANCH   4  15
TORSDOF 6
ENDMDL
MODEL 2
REMARK VINA RESULT:      -8.4      0.568      1.965
REMARK  Name = 
REMARK  8 active torsions:
REMARK  status: ('A' for Active; 'I' for Inactive)
REMARK    1  A    between atoms: C_1  and  C_2
REMARK    2  A    between atoms: C_4  and  N_5
REMARK    3  A    between atoms: C_8  and  N_9
REMARK    4  A    between atoms: N_9  and  C_10
REMARK    5  A    between atoms: C_10  and  C_11
REMARK    6  A    between atoms: C_11  and  O_12
REMARK    7  A    between atoms: O_12  and  C_13
REMARK    8  A    between atoms: C_22  and  C_23
REMARK                            x       y       z     vdW  Elec       q    Type
REMARK                         _______ _______ _______ _____ _____    ______ ____
ROOT
ATOM      1  N   UNL     1       4.332   3.943  17.858  0.00  0.00    +0.000 N 
ATOM      2  C   UNL     1       4.682   3.561  19.220  0.00  0.00    +0.000 C 
ATOM      3  C   UNL     1       4.155   2.142  19.423  0.00  0.00    +0.000 C 
ATOM      4  C   UNL     1       2.650   2.030  19.121  0.00  0.00    +0.000 C 
ATOM      5  C   UNL     1       2.341   2.603  17.722  0.00  0.00    +0.000 C 
ATOM      6  C   UNL     1       2.911   4.006  17.551  0.00  0.00    +0.000 C 
ENDROOT
BRANCH   1  10
ATOM      7  C   UNL     1       6.925   4.399  13.756  0.00  0.00    +0.000 C 
ATOM      8  C   UNL     1       6.529   4.859  15.124  0.00  0.00    +0.000 A 
ATOM      9  C   UNL     1       5.519   4.222  15.810  0.00  0.00    +0.000 A 
ATOM     10  C   UNL     1       5.253   4.633  17.100  0.00  0.00    +0.000 A 
ATOM     11  N   UNL     1       5.954   5.633  17.664  0.00  0.00    +0.000 NA
ATOM     12  C   UNL     1       6.904   6.224  16.920  0.00  0.00    +0.000 A 
ATOM     13  C   UNL     1       7.683   7.339  17.545  0.00  0.00    +0.000 C 
ATOM     14  N   UNL     1       7.226   5.879  15.661  0.00  0.00    +0.000 NA
ENDBRANCH   1  10
BRANCH   4  15
ATOM     15  N   UNL     1       1.872   2.656  20.210  0.00  0.00    +0.000 NA
ATOM     16  H   UNL     1       2.475   2.876  21.000  0.00  0.00    +0.000 HD
BRANCH  15  17
ATOM     17  C   UNL     1       1.136   3.868  19.822  0.00  0.00    +0.000 C 
BRANCH  17  18
ATOM     18  C   UNL     1       1.443   5.073  20.715  0.00  0.00    +0.000 C 
BRANCH  18  19
ATOM     19  O   UNL     1       2.534   5.823  20.182  0.00  0.00    +0.000 OA
BRANCH  19  20
ATOM     20  C   UNL     1       2.171   7.039  19.661  0.00  0.00    +0.000 A 
ATOM     21  C   UNL     1       1.495   7.883  20.540  0.00  0.00    +0.000 A 
ATOM     22  C   UNL     1       1.063   9.141  20.114  0.00  0.00    +0.000 A 
ATOM     23  C   UNL     1       1.320   9.565  18.812  0.00  0.00    +0.000 A 
ATOM     24  C   UNL     1       2.014   8.737  17.936  0.00  0.00    +0.000 A 
ATOM     25  C   UNL     1       2.443   7.477  18.361  0.00  0.00    +0.000 A 
ENDBRANCH  19  20
ENDBRANCH  18  19
ENDBRANCH  17  18
ENDBRANCH  15  17
ENDBRANCH   4  15
TORSDOF 6
ENDMDL
MODEL 3
REMARK VINA RESULT:      -8.3      0.501      1.087
REMARK  Name = 
REMARK  8 active torsions:
REMARK  status: ('A' for Active; 'I' for Inactive)
REMARK    1  A    between atoms: C_1  and  C_2
REMARK    2  A    between atoms: C_4  and  N_5
REMARK    3  A    between atoms: C_8  and  N_9
REMARK    4  A    between atoms: N_9  and  C_10
REMARK    5  A    between atoms: C_10  and  C_11
REMARK    6  A    between atoms: C_11  and  O_12
REMARK    7  A    between atoms: O_12  and  C_13
REMARK    8  A    between atoms: C_22  and  C_23
REMARK                            x       y       z     vdW  Elec       q    Type
REMARK                         _______ _______ _______ _____ _____    ______ ____
ROOT
ATOM      1  N   UNL     1       4.452   3.786  17.900  0.00  0.00    +0.000 N 
ATOM      2  C   UNL     1       4.497   3.752  19.356  0.00  0.00    +0.000 C 
ATOM      3  C   UNL     1       4.117   2.333  19.772  0.00  0.00    +0.000 C 
ATOM      4  C   UNL     1       2.759   1.900  19.189  0.00  0.00    +0.000 C 
ATOM      5  C   UNL     1       2.738   2.116  17.662  0.00  0.00    +0.000 C 
ATOM      6  C   UNL     1       3.154   3.534  17.289  0.00  0.00    +0.000 C 
ENDROOT
BRANCH   1  10
ATOM      7  C   UNL     1       7.621   7.478  17.620  0.00  0.00    +0.000 C 
ATOM      8  C   UNL     1       6.970   6.254  17.058  0.00  0.00    +0.000 A 
ATOM      9  C   UNL     1       6.074   5.530  17.813  0.00  0.00    +0.000 A 
ATOM     10  C   UNL     1       5.439   4.460  17.215  0.00  0.00    +0.000 A 
ATOM     11  N   UNL     1       5.699   4.130  15.937  0.00  0.00    +0.000 NA
ATOM     12  C   UNL     1       6.607   4.867  15.277  0.00  0.00    +0.000 A 
ATOM     13  C   UNL     1       6.899   4.499  13.855  0.00  0.00    +0.000 C 
ATOM     14  N   UNL     1       7.262   5.925  15.785  0.00  0.00    +0.000 NA
ENDBRANCH   1  10
BRANCH   4  15
ATOM     15  N   UNL     1       1.665   2.585  19.907  0.00  0.00    +0.000 NA
ATOM     16  H   UNL     1       1.133   1.921  20.466  0.00  0.00    +0.000 HD
BRANCH  15  17
ATOM     17  C   UNL     1       2.095   3.696  20.768  0.00  0.00    +0.000 C 
BRANCH  17  18
ATOM     18  C   UNL     1       1.269   4.969  20.568  0.00  0.00    +0.000 C 
BRANCH  18  19
ATOM     19  O   UNL     1       2.046   6.123  20.888  0.00  0.00    +0.000 OA
BRANCH  19  20
ATOM     20  C   UNL     1       2.082   7.064  19.890  0.00  0.00    +0.000 A 
ATOM     21  C   UNL     1       1.438   8.265  20.183  0.00  0.00    +0.000 A 
ATOM     22  C   UNL     1       1.398   9.290  19.236  0.00  0.00    +0.000 A 
ATOM     23  C   UNL     1       2.015   9.122  17.997  0.00  0.00    +0.000 A 
ATOM     24  C   UNL     1       2.677   7.934  17.706  0.00  0.00    +0.000 A 
ATOM     25  C   UNL     1       2.715   6.908  18.653  0.00  0.00    +0.000 A 
ENDBRANCH  19  20
ENDBRANCH  18  19
ENDBRANCH  17  18
ENDBRANCH  15  17
ENDBRANCH   4  15
TORSDOF 6
ENDMDL
MODEL 4
REMARK VINA RESULT:      -7.9      3.093      6.881
REMARK  Name = 
REMARK  8 active torsions:
REMARK  status: ('A' for Active; 'I' for Inactive)
REMARK    1  A    between atoms: C_1  and  C_2
REMARK    2  A    between atoms: C_4  and  N_5
REMARK    3  A    between atoms: C_8  and  N_9
REMARK    4  A    between atoms: N_9  and  C_10
REMARK    5  A    between atoms: C_10  and  C_11
REMARK    6  A    between atoms: C_11  and  O_12
REMARK    7  A    between atoms: O_12  and  C_13
REMARK    8  A    between atoms: C_22  and  C_23
REMARK                            x       y       z     vdW  Elec       q    Type
REMARK                         _______ _______ _______ _____ _____    ______ ____
ROOT
ATOM      1  N   UNL     1       2.086   7.673  19.303  0.00  0.00    +0.000 N 
ATOM      2  C   UNL     1       2.114   6.340  19.894  0.00  0.00    +0.000 C 
ATOM      3  C   UNL     1       3.541   5.822  19.734  0.00  0.00    +0.000 C 
ATOM      4  C   UNL     1       4.012   5.854  18.268  0.00  0.00    +0.000 C 
ATOM      5  C   UNL     1       3.801   7.261  17.670  0.00  0.00    +0.000 C 
ATOM      6  C   UNL     1       2.374   7.753  17.879  0.00  0.00    +0.000 C 
ENDROOT
BRANCH   1  10
ATOM      7  C   UNL     1       0.023   9.456  23.343  0.00  0.00    +0.000 C 
ATOM      8  C   UNL     1       0.369   9.544  21.890  0.00  0.00    +0.000 A 
ATOM      9  C   UNL     1       1.171   8.590  21.304  0.00  0.00    +0.000 A 
ATOM     10  C   UNL     1       1.388   8.673  19.944  0.00  0.00    +0.000 A 
ATOM     11  N   UNL     1       0.841   9.664  19.217  0.00  0.00    +0.000 NA
ATOM     12  C   UNL     1       0.095  10.573  19.867  0.00  0.00    +0.000 A 
ATOM     13  C   UNL     1      -0.513  11.678  19.060  0.00  0.00    +0.000 C 
ATOM     14  N   UNL     1      -0.168  10.558  21.185  0.00  0.00    +0.000 NA
ENDBRANCH   1  10
BRANCH   4  15
ATOM     15  N   UNL     1       3.354   4.774  17.507  0.00  0.00    +0.000 NA
ATOM     16  H   UNL     1       2.842   5.155  16.714  0.00  0.00    +0.000 HD
BRANCH  15  17
ATOM     17  C   UNL     1       4.260   3.720  17.027  0.00  0.00    +0.000 C 
BRANCH  17  18
ATOM     18  C   UNL     1       5.134   4.165  15.852  0.00  0.00    +0.000 C 
BRANCH  18  19
ATOM     19  O   UNL     1       6.516   4.034  16.181  0.00  0.00    +0.000 OA
BRANCH  19  20
ATOM     20  C   UNL     1       7.013   5.076  16.923  0.00  0.00    +0.000 A 
ATOM     21  C   UNL     1       7.499   4.729  18.183  0.00  0.00    +0.000 A 
ATOM     22  C   UNL     1       8.014   5.711  19.032  0.00  0.00    +0.000 A 
ATOM     23  C   UNL     1       8.059   7.041  18.617  0.00  0.00    +0.000 A 
ATOM     24  C   UNL     1       7.595   7.391  17.353  0.00  0.00    +0.000 A 
ATOM     25  C   UNL     1       7.077   6.409  16.506  0.00  0.00    +0.000 A 
ENDBRANCH  19  20
ENDBRANCH  18  19
ENDBRANCH  17  18
ENDBRANCH  15  17
ENDBRANCH   4  15
TORSDOF 6
ENDMDL
MODEL 5
REMARK VINA RESULT:      -7.8      2.997      6.652
REMARK  Name = 
REMARK  8 active torsions:
REMARK  status: ('A' for Active; 'I' for Inactive)
REMARK    1  A    between atoms: C_1  and  C_2
REMARK    2  A    between atoms: C_4  and  N_5
REMARK    3  A    between atoms: C_8  and  N_9
REMARK    4  A    between atoms: N_9  and  C_10
REMARK    5  A    between atoms: C_10  and  C_11
REMARK    6  A    between atoms: C_11  and  O_12
REMARK    7  A    between atoms: O_12  and  C_13
REMARK    8  A    between atoms: C_22  and  C_23
REMARK                            x       y       z     vdW  Elec       q    Type
REMARK                         _______ _______ _______ _____ _____    ______ ____
ROOT
ATOM      1  N   UNL     1       2.236   7.720  19.177  0.00  0.00    +0.000 N 
ATOM      2  C   UNL     1       2.247   6.365  19.713  0.00  0.00    +0.000 C 
ATOM      3  C   UNL     1       3.684   5.861  19.596  0.00  0.00    +0.000 C 
ATOM      4  C   UNL     1       4.219   5.956  18.156  0.00  0.00    +0.000 C 
ATOM      5  C   UNL     1       4.026   7.385  17.607  0.00  0.00    +0.000 C 
ATOM      6  C   UNL     1       2.587   7.860  17.771  0.00  0.00    +0.000 C 
ENDROOT
BRANCH   1  10
ATOM      7  C   UNL     1       0.074   9.373  23.220  0.00  0.00    +0.000 C 
ATOM      8  C   UNL     1       0.436   9.497  21.774  0.00  0.00    +0.000 A 
ATOM      9  C   UNL     1       1.271   8.576  21.181  0.00  0.00    +0.000 A 
ATOM     10  C   UNL     1       1.503   8.690  19.826  0.00  0.00    +0.000 A 
ATOM     11  N   UNL     1       0.938   9.678  19.109  0.00  0.00    +0.000 NA
ATOM     12  C   UNL     1       0.160  10.555  19.765  0.00  0.00    +0.000 A 
ATOM     13  C   UNL     1      -0.468  11.657  18.970  0.00  0.00    +0.000 C 
ATOM     14  N   UNL     1      -0.119  10.509  21.080  0.00  0.00    +0.000 NA
ENDBRANCH   1  10
BRANCH   4  15
ATOM     15  N   UNL     1       3.604   4.904  17.322  0.00  0.00    +0.000 NA
ATOM     16  H   UNL     1       3.334   5.279  16.415  0.00  0.00    +0.000 HD
BRANCH  15  17
ATOM     17  C   UNL     1       4.442   3.714  17.115  0.00  0.00    +0.000 C 
BRANCH  17  18
ATOM     18  C   UNL     1       3.644   2.408  17.106  0.00  0.00    +0.000 C 
BRANCH  18  19
ATOM     19  O   UNL     1       3.741   1.756  18.372  0.00  0.00    +0.000 OA
BRANCH  19  20
ATOM     20  C   UNL     1       2.850   2.218  19.306  0.00  0.00    +0.000 A 
ATOM     21  C   UNL     1       3.369   2.393  20.587  0.00  0.00    +0.000 A 
ATOM     22  C   UNL     1       2.549   2.846  21.623  0.00  0.00    +0.000 A 
ATOM     23  C   UNL     1       1.208   3.139  21.376  0.00  0.00    +0.000 A 
ATOM     24  C   UNL     1       0.689   2.988  20.095  0.00  0.00    +0.000 A 
ATOM     25  C   UNL     1       1.509   2.532  19.060  0.00  0.00    +0.000 A 
ENDBRANCH  19  20
ENDBRANCH  18  19
ENDBRANCH  17  18
ENDBRANCH  15  17
ENDBRANCH   4  15
TORSDOF 6
ENDMDL
MODEL 6
REMARK VINA RESULT:      -7.7      2.907      6.639
REMARK  Name = 
REMARK  8 active torsions:
REMARK  status: ('A' for Active; 'I' for Inactive)
REMARK    1  A    between atoms: C_1  and  C_2
REMARK    2  A    between atoms: C_4  and  N_5
REMARK    3  A    between atoms: C_8  and  N_9
REMARK    4  A    between atoms: N_9  and  C_10
REMARK    5  A    between atoms: C_10  and  C_11
REMARK    6  A    between atoms: C_11  and  O_12
REMARK    7  A    between atoms: O_12  and  C_13
REMARK    8  A    between atoms: C_22  and  C_23
REMARK                            x       y       z     vdW  Elec       q    Type
REMARK                         _______ _______ _______ _____ _____    ______ ____
ROOT
ATOM      1  N   UNL     1       2.264   7.722  19.037  0.00  0.00    +0.000 N 
ATOM      2  C   UNL     1       2.292   6.379  19.603  0.00  0.00    +0.000 C 
ATOM      3  C   UNL     1       3.738   5.896  19.511  0.00  0.00    +0.000 C 
ATOM      4  C   UNL     1       4.286   5.969  18.074  0.00  0.00    +0.000 C 
ATOM      5  C   UNL     1       4.074   7.382  17.491  0.00  0.00    +0.000 C 
ATOM      6  C   UNL     1       2.626   7.837  17.632  0.00  0.00    +0.000 C 
ENDROOT
BRANCH   1  10
ATOM      7  C   UNL     1       0.192  12.133  18.976  0.00  0.00    +0.000 C 
ATOM      8  C   UNL     1       0.512  10.835  19.650  0.00  0.00    +0.000 A 
ATOM      9  C   UNL     1       1.163   9.834  18.964  0.00  0.00    +0.000 A 
ATOM     10  C   UNL     1       1.509   8.693  19.658  0.00  0.00    +0.000 A 
ATOM     11  N   UNL     1       1.207   8.560  20.962  0.00  0.00    +0.000 NA
ATOM     12  C   UNL     1       0.545   9.568  21.553  0.00  0.00    +0.000 A 
ATOM     13  C   UNL     1       0.206   9.420  23.004  0.00  0.00    +0.000 C 
ATOM     14  N   UNL     1       0.179  10.712  20.949  0.00  0.00    +0.000 NA
ENDBRANCH   1  10
BRANCH   4  15
ATOM     15  N   UNL     1       3.696   4.889  17.257  0.00  0.00    +0.000 NA
ATOM     16  H   UNL     1       3.541   5.206  16.302  0.00  0.00    +0.000 HD
BRANCH  15  17
ATOM     17  C   UNL     1       4.479   3.645  17.224  0.00  0.00    +0.000 C 
BRANCH  17  18
ATOM     18  C   UNL     1       3.611   2.389  17.119  0.00  0.00    +0.000 C 
BRANCH  18  19
ATOM     19  O   UNL     1       3.672   1.637  18.331  0.00  0.00    +0.000 OA
BRANCH  19  20
ATOM     20  C   UNL     1       2.915   2.161  19.349  0.00  0.00    +0.000 A 
ATOM     21  C   UNL     1       1.589   2.435  19.022  0.00  0.00    +0.000 A 
ATOM     22  C   UNL     1       0.729   2.985  19.975  0.00  0.00    +0.000 A 
ATOM     23  C   UNL     1       1.190   3.247  21.264  0.00  0.00    +0.000 A 
ATOM     24  C   UNL     1       2.507   2.955  21.604  0.00  0.00    +0.000 A 
ATOM     25  C   UNL     1       3.367   2.408  20.649  0.00  0.00    +0.000 A 
ENDBRANCH  19  20
ENDBRANCH  18  19
ENDBRANCH  17  18
ENDBRANCH  15  17
ENDBRANCH   4  15
TORSDOF 6
ENDMDL
MODEL 7
REMARK VINA RESULT:      -7.6      3.834      7.486
REMARK  Name = 
REMARK  8 active torsions:
REMARK  status: ('A' for Active; 'I' for Inactive)
REMARK    1  A    between atoms: C_1  and  C_2
REMARK    2  A    between atoms: C_4  and  N_5
REMARK    3  A    between atoms: C_8  and  N_9
REMARK    4  A    between atoms: N_9  and  C_10
REMARK    5  A    between atoms: C_10  and  C_11
REMARK    6  A    between atoms: C_11  and  O_12
REMARK    7  A    between atoms: O_12  and  C_13
REMARK    8  A    between atoms: C_22  and  C_23
REMARK                            x       y       z     vdW  Elec       q    Type
REMARK                         _______ _______ _______ _____ _____    ______ ____
ROOT
ATOM      1  N   UNL     1       5.040   5.426  18.111  0.00  0.00    +0.000 N 
ATOM      2  C   UNL     1       4.612   6.507  17.232  0.00  0.00    +0.000 C 
ATOM      3  C   UNL     1       5.713   6.683  16.189  0.00  0.00    +0.000 C 
ATOM      4  C   UNL     1       7.091   6.922  16.831  0.00  0.00    +0.000 C 
ATOM      5  C   UNL     1       7.399   5.819  17.864  0.00  0.00    +0.000 C 
ATOM      6  C   UNL     1       6.263   5.655  18.867  0.00  0.00    +0.000 C 
ENDROOT
BRANCH   1  10
ATOM      7  C   UNL     1       0.931   4.339  20.496  0.00  0.00    +0.000 C 
ATOM      8  C   UNL     1       2.131   3.950  19.692  0.00  0.00    +0.000 A 
ATOM      9  C   UNL     1       2.976   4.913  19.187  0.00  0.00    +0.000 A 
ATOM     10  C   UNL     1       4.113   4.495  18.526  0.00  0.00    +0.000 A 
ATOM     11  N   UNL     1       4.380   3.185  18.372  0.00  0.00    +0.000 NA
ATOM     12  C   UNL     1       3.492   2.307  18.868  0.00  0.00    +0.000 A 
ATOM     13  C   UNL     1       3.786   0.849  18.695  0.00  0.00    +0.000 C 
ATOM     14  N   UNL     1       2.367   2.634  19.527  0.00  0.00    +0.000 NA
ENDBRANCH   1  10
BRANCH   4  15
ATOM     15  N   UNL     1       7.158   8.292  17.378  0.00  0.00    +0.000 NA
ATOM     16  H   UNL     1       6.332   8.495  17.937  0.00  0.00    +0.000 HD
BRANCH  15  17
ATOM     17  C   UNL     1       8.357   8.577  18.180  0.00  0.00    +0.000 C 
BRANCH  17  18
ATOM     18  C   UNL     1       8.681  10.070  18.271  0.00  0.00    +0.000 C 
BRANCH  18  19
ATOM     19  O   UNL     1       9.544  10.326  19.379  0.00  0.00    +0.000 OA
BRANCH  19  20
ATOM     20  C   UNL     1      10.471  11.311  19.147  0.00  0.00    +0.000 A 
ATOM     21  C   UNL     1      10.707  11.598  17.804  0.00  0.00    +0.000 A 
ATOM     22  C   UNL     1      11.642  12.573  17.448  0.00  0.00    +0.000 A 
ATOM     23  C   UNL     1      12.333  13.274  18.436  0.00  0.00    +0.000 A 
ATOM     24  C   UNL     1      12.085  13.007  19.778  0.00  0.00    +0.000 A 
ATOM     25  C   UNL     1      11.152  12.030  20.133  0.00  0.00    +0.000 A 
ENDBRANCH  19  20
ENDBRANCH  18  19
ENDBRANCH  17  18
ENDBRANCH  15  17
ENDBRANCH   4  15
TORSDOF 6
ENDMDL
MODEL 8
REMARK VINA RESULT:      -7.5      3.415      7.313
REMARK  Name = 
REMARK  8 active torsions:
REMARK  status: ('A' for Active; 'I' for Inactive)
REMARK    1  A    between atoms: C_1  and  C_2
REMARK    2  A    between atoms: C_4  and  N_5
REMARK    3  A    between atoms: C_8  and  N_9
REMARK    4  A    between atoms: N_9  and  C_10
REMARK    5  A    between atoms: C_10  and  C_11
REMARK    6  A    between atoms: C_11  and  O_12
REMARK    7  A    between atoms: O_12  and  C_13
REMARK    8  A    between atoms: C_22  and  C_23
REMARK                            x       y       z     vdW  Elec       q    Type
REMARK                         _______ _______ _______ _____ _____    ______ ____
ROOT
ATOM      1  N   UNL     1       4.780   5.542  18.235  0.00  0.00    +0.000 N 
ATOM      2  C   UNL     1       4.673   6.262  16.972  0.00  0.00    +0.000 C 
ATOM      3  C   UNL     1       5.745   5.684  16.050  0.00  0.00    +0.000 C 
ATOM      4  C   UNL     1       7.150   5.749  16.678  0.00  0.00    +0.000 C 
ATOM      5  C   UNL     1       7.139   5.106  18.080  0.00  0.00    +0.000 C 
ATOM      6  C   UNL     1       6.035   5.687  18.956  0.00  0.00    +0.000 C 
ENDROOT
BRANCH   1  10
ATOM      7  C   UNL     1       1.178   2.327  18.907  0.00  0.00    +0.000 C 
ATOM      8  C   UNL     1       1.865   3.621  19.213  0.00  0.00    +0.000 A 
ATOM      9  C   UNL     1       3.079   3.920  18.637  0.00  0.00    +0.000 A 
ATOM     10  C   UNL     1       3.626   5.162  18.887  0.00  0.00    +0.000 A 
ATOM     11  N   UNL     1       2.995   6.047  19.680  0.00  0.00    +0.000 NA
ATOM     12  C   UNL     1       1.829   5.669  20.228  0.00  0.00    +0.000 A 
ATOM     13  C   UNL     1       1.127   6.653  21.113  0.00  0.00    +0.000 C 
ATOM     14  N   UNL     1       1.229   4.483  20.029  0.00  0.00    +0.000 NA
ENDBRANCH   1  10
BRANCH   4  15
ATOM     15  N   UNL     1       7.644   7.140  16.660  0.00  0.00    +0.000 NA
ATOM     16  H   UNL     1       6.942   7.764  16.266  0.00  0.00    +0.000 HD
BRANCH  15  17
ATOM     17  C   UNL     1       8.062   7.662  17.969  0.00  0.00    +0.000 C 
BRANCH  17  18
ATOM     18  C   UNL     1       8.272   9.178  17.976  0.00  0.00    +0.000 C 
BRANCH  18  19
ATOM     19  O   UNL     1       8.780   9.605  19.239  0.00  0.00    +0.000 OA
BRANCH  19  20
ATOM     20  C   UNL     1       9.670  10.647  19.157  0.00  0.00    +0.000 A 
ATOM     21  C   UNL     1      10.035  11.213  20.377  0.00  0.00    +0.000 A 
ATOM     22  C   UNL     1      10.923  12.291  20.414  0.00  0.00    +0.000 A 
ATOM     23  C   UNL     1      11.460  12.796  19.231  0.00  0.00    +0.000 A 
ATOM     24  C   UNL     1      11.116  12.221  18.011  0.00  0.00    +0.000 A 
ATOM     25  C   UNL     1      10.226  11.146  17.975  0.00  0.00    +0.000 A 
ENDBRANCH  19  20
ENDBRANCH  18  19
ENDBRANCH  17  18
ENDBRANCH  15  17
ENDBRANCH   4  15
TORSDOF 6
ENDMDL
MODEL 9
REMARK VINA RESULT:      -7.5      3.339      7.188
REMARK  Name = 
REMARK  8 active torsions:
REMARK  status: ('A' for Active; 'I' for Inactive)
REMARK    1  A    between atoms: C_1  and  C_2
REMARK    2  A    between atoms: C_4  and  N_5
REMARK    3  A    between atoms: C_8  and  N_9
REMARK    4  A    between atoms: N_9  and  C_10
REMARK    5  A    between atoms: C_10  and  C_11
REMARK    6  A    between atoms: C_11  and  O_12
REMARK    7  A    between atoms: O_12  and  C_13
REMARK    8  A    between atoms: C_22  and  C_23
REMARK                            x       y       z     vdW  Elec       q    Type
REMARK                         _______ _______ _______ _____ _____    ______ ____
ROOT
ATOM      1  N   UNL     1       1.584   8.587  19.352  0.00  0.00    +0.000 N 
ATOM      2  C   UNL     1       2.348   8.770  18.125  0.00  0.00    +0.000 C 
ATOM      3  C   UNL     1       2.333   7.427  17.397  0.00  0.00    +0.000 C 
ATOM      4  C   UNL     1       2.856   6.280  18.282  0.00  0.00    +0.000 C 
ATOM      5  C   UNL     1       2.102   6.255  19.627  0.00  0.00    +0.000 C 
ATOM      6  C   UNL     1       2.114   7.621  20.304  0.00  0.00    +0.000 C 
ENDROOT
BRANCH   1  10
ATOM      7  C   UNL     1      -0.907  10.828  22.892  0.00  0.00    +0.000 C 
ATOM      8  C   UNL     1      -0.505  10.669  21.460  0.00  0.00    +0.000 A 
ATOM      9  C   UNL     1       0.451   9.746  21.101  0.00  0.00    +0.000 A 
ATOM     10  C   UNL     1       0.721   9.582  19.757  0.00  0.00    +0.000 A 
ATOM     11  N   UNL     1       0.076  10.312  18.830  0.00  0.00    +0.000 NA
ATOM     12  C   UNL     1      -0.822  11.213  19.262  0.00  0.00    +0.000 A 
ATOM     13  C   UNL     1      -1.539  12.029  18.231  0.00  0.00    +0.000 C 
ATOM     14  N   UNL     1      -1.145  11.428  20.549  0.00  0.00    +0.000 NA
ENDBRANCH   1  10
BRANCH   4  15
ATOM     15  N   UNL     1       4.323   6.381  18.418  0.00  0.00    +0.000 NA
ATOM     16  H   UNL     1       4.593   7.325  18.688  0.00  0.00    +0.000 HD
BRANCH  15  17
ATOM     17  C   UNL     1       4.920   5.426  19.363  0.00  0.00    +0.000 C 
BRANCH  17  18
ATOM     18  C   UNL     1       5.236   4.069  18.731  0.00  0.00    +0.000 C 
BRANCH  18  19
ATOM     19  O   UNL     1       4.780   3.009  19.571  0.00  0.00    +0.000 OA
BRANCH  19  20
ATOM     20  C   UNL     1       3.416   2.857  19.582  0.00  0.00    +0.000 A 
ATOM     21  C   UNL     1       2.824   2.910  20.843  0.00  0.00    +0.000 A 
ATOM     22  C   UNL     1       1.443   2.751  20.977  0.00  0.00    +0.000 A 
ATOM     23  C   UNL     1       0.648   2.555  19.849  0.00  0.00    +0.000 A 
ATOM     24  C   UNL     1       1.230   2.523  18.586  0.00  0.00    +0.000 A 
ATOM     25  C   UNL     1       2.611   2.678  18.453  0.00  0.00    +0.000 A 
ENDBRANCH  19  20
ENDBRANCH  18  19
ENDBRANCH  17  18
ENDBRANCH  15  17
ENDBRANCH   4  15
TORSDOF 6
ENDMDL
