MODEL 1
REMARK VINA RESULT:      -9.4      0.000      0.000
REMARK  Name = 
REMARK  5 active torsions:
REMARK  status: ('A' for Active; 'I' for Inactive)
REMARK    1  A    between atoms: C_1  and  C_2
REMARK    2  A    between atoms: C_2  and  C_3
REMARK    3  A    between atoms: C_2  and  C_4
REMARK    4  A    between atoms: C_9  and  N_10
REMARK    5  A    between atoms: N_10  and  C_11
REMARK                            x       y       z     vdW  Elec       q    Type
REMARK                         _______ _______ _______ _____ _____    ______ ____
ROOT
ATOM      1  C   UNL     1       5.809   4.903  18.047  0.00  0.00    +0.000 A 
ATOM      2  N   UNL     1       6.645   5.834  18.574  0.00  0.00    +0.000 NA
ATOM      3  C   UNL     1       7.446   6.546  17.751  0.00  0.00    +0.000 A 
ATOM      4  N   UNL     1       8.144   7.618  18.281  0.00  0.00    +0.000 N 
ATOM      5  N   UNL     1       7.562   6.353  16.450  0.00  0.00    +0.000 NA
ATOM      6  C   UNL     1       6.692   5.470  15.965  0.00  0.00    +0.000 A 
ATOM      7  C   UNL     1       5.706   4.812  16.684  0.00  0.00    +0.000 A 
ATOM      8  C   UNL     1       4.771   4.118  15.723  0.00  0.00    +0.000 C 
ATOM      9  C   UNL     1       5.529   4.225  14.404  0.00  0.00    +0.000 A 
ATOM     10  C   UNL     1       5.273   3.639  13.177  0.00  0.00    +0.000 A 
ATOM     11  C   UNL     1       6.269   3.716  12.195  0.00  0.00    +0.000 A 
ATOM     12  C   UNL     1       7.481   4.385  12.441  0.00  0.00    +0.000 A 
ATOM     13  C   UNL     1       7.687   5.058  13.646  0.00  0.00    +0.000 A 
ATOM     14  C   UNL     1       6.692   4.994  14.606  0.00  0.00    +0.000 A 
ATOM     15  H   UNL     1       7.651   7.968  19.093  0.00  0.00    +0.000 HD
ATOM     16  H   UNL     1       8.319   8.284  17.537  0.00  0.00    +0.000 HD
ENDROOT
BRANCH   1  17
ATOM     17  N   UNL     1       5.242   3.900  18.892  0.00  0.00    +0.000 N 
ATOM     18  H   UNL     1       5.831   3.074  18.889  0.00  0.00    +0.000 HD
BRANCH  17  24
ATOM     19  C   UNL     1       2.786   4.284  19.212  0.00  0.00    +0.000 A 
ATOM     20  C   UNL     1       1.501   3.690  19.322  0.00  0.00    +0.000 A 
ATOM     21  C   UNL     1       1.282   2.339  19.070  0.00  0.00    +0.000 A 
ATOM     22  C   UNL     1       2.353   1.543  18.704  0.00  0.00    +0.000 A 
ATOM     23  C   UNL     1       3.632   2.096  18.604  0.00  0.00    +0.000 A 
ATOM     24  C   UNL     1       3.882   3.463  18.841  0.00  0.00    +0.000 A 
BRANCH  19  26
ATOM     25  C   UNL     1       2.688   6.599  18.217  0.00  0.00    +0.000 C 
ATOM     26  C   UNL     1       2.817   5.780  19.510  0.00  0.00    +0.000 C 
ATOM     27  C   UNL     1       1.893   6.284  20.616  0.00  0.00    +0.000 C 
ENDBRANCH  19  26
ENDBRANCH  17  24
ENDBRANCH   1  17
TORSDOF 3
ENDMDL
MODEL 2
REMARK VINA RESULT:      -9.1      2.025      6.334
REMARK  Name = 
REMARK  5 active torsions:
REMARK  status: ('A' for Active; 'I' for Inactive)
REMARK    1  A    between atoms: C_1  and  C_2
REMARK    2  A    between atoms: C_2  and  C_3
REMARK    3  A    between atoms: C_2  and  C_4
REMARK    4  A    between atoms: C_9  and  N_10
REMARK    5  A    between atoms: N_10  and  C_11
REMARK                            x       y       z     vdW  Elec       q    Type
REMARK                         _______ _______ _______ _____ _____    ______ ____
ROOT
ATOM      1  C   UNL     1       4.166   4.017  19.293  0.00  0.00    +0.000 A 
ATOM      2  N   UNL     1       3.718   3.182  20.265  0.00  0.00    +0.000 NA
ATOM      3  C   UNL     1       2.641   3.538  21.000  0.00  0.00    +0.000 A 
ATOM      4  N   UNL     1       2.084   2.595  21.846  0.00  0.00    +0.000 N 
ATOM      5  N   UNL     1       2.018   4.700  20.920  0.00  0.00    +0.000 NA
ATOM      6  C   UNL     1       2.454   5.469  19.925  0.00  0.00    +0.000 A 
ATOM      7  C   UNL     1       3.429   5.134  18.997  0.00  0.00    +0.000 A 
ATOM      8  C   UNL     1       3.429   6.157  17.887  0.00  0.00    +0.000 C 
ATOM      9  C   UNL     1       2.543   7.256  18.464  0.00  0.00    +0.000 A 
ATOM     10  C   UNL     1       2.287   8.533  17.996  0.00  0.00    +0.000 A 
ATOM     11  C   UNL     1       1.622   9.421  18.851  0.00  0.00    +0.000 A 
ATOM     12  C   UNL     1       1.209   9.022  20.135  0.00  0.00    +0.000 A 
ATOM     13  C   UNL     1       1.383   7.703  20.556  0.00  0.00    +0.000 A 
ATOM     14  C   UNL     1       2.025   6.825  19.701  0.00  0.00    +0.000 A 
ATOM     15  H   UNL     1       2.297   1.668  21.499  0.00  0.00    +0.000 HD
ATOM     16  H   UNL     1       1.103   2.818  21.971  0.00  0.00    +0.000 HD
ENDROOT
BRANCH   1  17
ATOM     17  N   UNL     1       5.485   3.853  18.770  0.00  0.00    +0.000 N 
ATOM     18  H   UNL     1       6.165   4.217  19.428  0.00  0.00    +0.000 HD
BRANCH  17  24
ATOM     19  C   UNL     1       6.569   5.465  17.186  0.00  0.00    +0.000 A 
ATOM     20  C   UNL     1       6.749   5.853  15.832  0.00  0.00    +0.000 A 
ATOM     21  C   UNL     1       6.298   5.075  14.770  0.00  0.00    +0.000 A 
ATOM     22  C   UNL     1       5.647   3.883  15.040  0.00  0.00    +0.000 A 
ATOM     23  C   UNL     1       5.440   3.485  16.363  0.00  0.00    +0.000 A 
ATOM     24  C   UNL     1       5.897   4.246  17.458  0.00  0.00    +0.000 A 
BRANCH  19  26
ATOM     25  C   UNL     1       8.095   5.721  19.177  0.00  0.00    +0.000 C 
ATOM     26  C   UNL     1       7.151   6.442  18.204  0.00  0.00    +0.000 C 
ATOM     27  C   UNL     1       7.750   7.736  17.656  0.00  0.00    +0.000 C 
ENDBRANCH  19  26
ENDBRANCH  17  24
ENDBRANCH   1  17
TORSDOF 3
ENDMDL
MODEL 3
REMARK VINA RESULT:      -8.7      1.095      1.259
REMARK  Name = 
REMARK  5 active torsions:
REMARK  status: ('A' for Active; 'I' for Inactive)
REMARK    1  A    between atoms: C_1  and  C_2
REMARK    2  A    between atoms: C_2  and  C_3
REMARK    3  A    between atoms: C_2  and  C_4
REMARK    4  A    between atoms: C_9  and  N_10
REMARK    5  A    between atoms: N_10  and  C_11
REMARK                            x       y       z     vdW  Elec       q    Type
REMARK                         _______ _______ _______ _____ _____    ______ ____
ROOT
ATOM      1  C   UNL     1       5.770   4.374  17.967  0.00  0.00    +0.000 A 
ATOM      2  N   UNL     1       6.544   5.294  18.597  0.00  0.00    +0.000 NA
ATOM      3  C   UNL     1       7.307   6.132  17.861  0.00  0.00    +0.000 A 
ATOM      4  N   UNL     1       7.934   7.185  18.506  0.00  0.00    +0.000 N 
ATOM      5  N   UNL     1       7.444   6.080  16.548  0.00  0.00    +0.000 NA
ATOM      6  C   UNL     1       6.633   5.200  15.965  0.00  0.00    +0.000 A 
ATOM      7  C   UNL     1       5.683   4.415  16.600  0.00  0.00    +0.000 A 
ATOM      8  C   UNL     1       4.799   3.768  15.561  0.00  0.00    +0.000 C 
ATOM      9  C   UNL     1       5.560   4.054  14.270  0.00  0.00    +0.000 A 
ATOM     10  C   UNL     1       5.349   3.581  12.987  0.00  0.00    +0.000 A 
ATOM     11  C   UNL     1       6.346   3.817  12.032  0.00  0.00    +0.000 A 
ATOM     12  C   UNL     1       7.513   4.529  12.360  0.00  0.00    +0.000 A 
ATOM     13  C   UNL     1       7.668   5.087  13.630  0.00  0.00    +0.000 A 
ATOM     14  C   UNL     1       6.672   4.866  14.565  0.00  0.00    +0.000 A 
ATOM     15  H   UNL     1       7.415   7.420  19.342  0.00  0.00    +0.000 HD
ATOM     16  H   UNL     1       8.075   7.932  17.835  0.00  0.00    +0.000 HD
ENDROOT
BRANCH   1  17
ATOM     17  N   UNL     1       5.258   3.258  18.698  0.00  0.00    +0.000 N 
ATOM     18  H   UNL     1       5.206   2.444  18.093  0.00  0.00    +0.000 HD
BRANCH  17  24
ATOM     19  C   UNL     1       3.037   4.234  19.330  0.00  0.00    +0.000 A 
ATOM     20  C   UNL     1       2.008   4.296  20.305  0.00  0.00    +0.000 A 
ATOM     21  C   UNL     1       1.978   3.450  21.410  0.00  0.00    +0.000 A 
ATOM     22  C   UNL     1       2.990   2.518  21.569  0.00  0.00    +0.000 A 
ATOM     23  C   UNL     1       4.025   2.446  20.634  0.00  0.00    +0.000 A 
ATOM     24  C   UNL     1       4.074   3.280  19.499  0.00  0.00    +0.000 A 
BRANCH  19  26
ATOM     25  C   UNL     1       1.632   4.914  17.349  0.00  0.00    +0.000 C 
ATOM     26  C   UNL     1       2.882   5.230  18.184  0.00  0.00    +0.000 C 
ATOM     27  C   UNL     1       2.992   6.711  18.537  0.00  0.00    +0.000 C 
ENDBRANCH  19  26
ENDBRANCH  17  24
ENDBRANCH   1  17
TORSDOF 3
ENDMDL
MODEL 4
REMARK VINA RESULT:      -8.7      2.507      5.019
REMARK  Name = 
REMARK  5 active torsions:
REMARK  status: ('A' for Active; 'I' for Inactive)
REMARK    1  A    between atoms: C_1  and  C_2
REMARK    2  A    between atoms: C_2  and  C_3
REMARK    3  A    between atoms: C_2  and  C_4
REMARK    4  A    between atoms: C_9  and  N_10
REMARK    5  A    between atoms: N_10  and  C_11
REMARK                            x       y       z     vdW  Elec       q    Type
REMARK                         _______ _______ _______ _____ _____    ______ ____
ROOT
ATOM      1  C   UNL     1       2.746   4.958  19.689  0.00  0.00    +0.000 A 
ATOM      2  N   UNL     1       1.745   4.057  19.516  0.00  0.00    +0.000 NA
ATOM      3  C   UNL     1       1.879   3.090  18.582  0.00  0.00    +0.000 A 
ATOM      4  N   UNL     1       0.942   2.071  18.554  0.00  0.00    +0.000 N 
ATOM      5  N   UNL     1       2.885   2.989  17.732  0.00  0.00    +0.000 NA
ATOM      6  C   UNL     1       3.867   3.857  17.966  0.00  0.00    +0.000 A 
ATOM      7  C   UNL     1       3.918   4.774  19.005  0.00  0.00    +0.000 A 
ATOM      8  C   UNL     1       5.306   5.367  19.074  0.00  0.00    +0.000 C 
ATOM      9  C   UNL     1       5.925   4.887  17.765  0.00  0.00    +0.000 A 
ATOM     10  C   UNL     1       7.124   5.231  17.167  0.00  0.00    +0.000 A 
ATOM     11  C   UNL     1       7.336   4.820  15.844  0.00  0.00    +0.000 A 
ATOM     12  C   UNL     1       6.371   4.064  15.155  0.00  0.00    +0.000 A 
ATOM     13  C   UNL     1       5.210   3.638  15.802  0.00  0.00    +0.000 A 
ATOM     14  C   UNL     1       5.014   4.032  17.114  0.00  0.00    +0.000 A 
ATOM     15  H   UNL     1       0.534   1.968  19.475  0.00  0.00    +0.000 HD
ATOM     16  H   UNL     1       1.378   1.247  18.156  0.00  0.00    +0.000 HD
ENDROOT
BRANCH   1  17
ATOM     17  N   UNL     1       2.487   6.181  20.380  0.00  0.00    +0.000 N 
ATOM     18  H   UNL     1       1.800   6.026  21.111  0.00  0.00    +0.000 HD
BRANCH  17  24
ATOM     19  C   UNL     1       1.351   8.415  20.342  0.00  0.00    +0.000 A 
ATOM     20  C   UNL     1       0.938   9.518  19.551  0.00  0.00    +0.000 A 
ATOM     21  C   UNL     1       1.323   9.665  18.221  0.00  0.00    +0.000 A 
ATOM     22  C   UNL     1       2.132   8.699  17.647  0.00  0.00    +0.000 A 
ATOM     23  C   UNL     1       2.540   7.594  18.397  0.00  0.00    +0.000 A 
ATOM     24  C   UNL     1       2.176   7.426  19.749  0.00  0.00    +0.000 A 
BRANCH  19  26
ATOM     25  C   UNL     1       1.677   9.405  22.639  0.00  0.00    +0.000 C 
ATOM     26  C   UNL     1       0.840   8.445  21.780  0.00  0.00    +0.000 C 
ATOM     27  C   UNL     1      -0.662   8.641  21.977  0.00  0.00    +0.000 C 
ENDBRANCH  19  26
ENDBRANCH  17  24
ENDBRANCH   1  17
TORSDOF 3
ENDMDL
MODEL 5
REMARK VINA RESULT:      -8.7      2.107      6.731
REMARK  Name = 
REMARK  5 active torsions:
REMARK  status: ('A' for Active; 'I' for Inactive)
REMARK    1  A    between atoms: C_1  and  C_2
REMARK    2  A    between atoms: C_2  and  C_3
REMARK    3  A    between atoms: C_2  and  C_4
REMARK    4  A    between atoms: C_9  and  N_10
REMARK    5  A    between atoms: N_10  and  C_11
REMARK                            x       y       z     vdW  Elec       q    Type
REMARK                         _______ _______ _______ _____ _____    ______ ____
ROOT
ATOM      1  C   UNL     1       3.720   3.949  19.317  0.00  0.00    +0.000 A 
ATOM      2  N   UNL     1       3.347   3.070  20.283  0.00  0.00    +0.000 NA
ATOM      3  C   UNL     1       2.362   3.411  21.143  0.00  0.00    +0.000 A 
ATOM      4  N   UNL     1       1.864   2.435  21.989  0.00  0.00    +0.000 N 
ATOM      5  N   UNL     1       1.770   4.591  21.191  0.00  0.00    +0.000 NA
ATOM      6  C   UNL     1       2.126   5.404  20.200  0.00  0.00    +0.000 A 
ATOM      7  C   UNL     1       2.991   5.098  19.160  0.00  0.00    +0.000 A 
ATOM      8  C   UNL     1       2.911   6.184  18.113  0.00  0.00    +0.000 C 
ATOM      9  C   UNL     1       2.123   7.270  18.837  0.00  0.00    +0.000 A 
ATOM     10  C   UNL     1       1.860   8.578  18.469  0.00  0.00    +0.000 A 
ATOM     11  C   UNL     1       1.312   9.431  19.435  0.00  0.00    +0.000 A 
ATOM     12  C   UNL     1       1.019   8.969  20.731  0.00  0.00    +0.000 A 
ATOM     13  C   UNL     1       1.195   7.625  21.059  0.00  0.00    +0.000 A 
ATOM     14  C   UNL     1       1.720   6.781  20.096  0.00  0.00    +0.000 A 
ATOM     15  H   UNL     1       2.012   1.524  21.572  0.00  0.00    +0.000 HD
ATOM     16  H   UNL     1       0.908   2.675  22.226  0.00  0.00    +0.000 HD
ENDROOT
BRANCH   1  17
ATOM     17  N   UNL     1       4.973   3.782  18.653  0.00  0.00    +0.000 N 
ATOM     18  H   UNL     1       5.477   2.999  19.058  0.00  0.00    +0.000 HD
BRANCH  17  24
ATOM     19  C   UNL     1       6.220   5.324  17.120  0.00  0.00    +0.000 A 
ATOM     20  C   UNL     1       7.316   6.215  16.974  0.00  0.00    +0.000 A 
ATOM     21  C   UNL     1       8.092   6.622  18.055  0.00  0.00    +0.000 A 
ATOM     22  C   UNL     1       7.791   6.140  19.317  0.00  0.00    +0.000 A 
ATOM     23  C   UNL     1       6.728   5.248  19.488  0.00  0.00    +0.000 A 
ATOM     24  C   UNL     1       5.917   4.829  18.414  0.00  0.00    +0.000 A 
BRANCH  19  26
ATOM     25  C   UNL     1       5.119   6.307  15.075  0.00  0.00    +0.000 C 
ATOM     26  C   UNL     1       5.482   5.014  15.821  0.00  0.00    +0.000 C 
ATOM     27  C   UNL     1       6.107   3.964  14.904  0.00  0.00    +0.000 C 
ENDBRANCH  19  26
ENDBRANCH  17  24
ENDBRANCH   1  17
TORSDOF 3
ENDMDL
MODEL 6
REMARK VINA RESULT:      -8.7      2.145      6.485
REMARK  Name = 
REMARK  5 active torsions:
REMARK  status: ('A' for Active; 'I' for Inactive)
REMARK    1  A    between atoms: C_1  and  C_2
REMARK    2  A    between atoms: C_2  and  C_3
REMARK    3  A    between atoms: C_2  and  C_4
REMARK    4  A    between atoms: C_9  and  N_10
REMARK    5  A    between atoms: N_10  and  C_11
REMARK                            x       y       z     vdW  Elec       q    Type
REMARK                         _______ _______ _______ _____ _____    ______ ____
ROOT
ATOM      1  C   UNL     1       3.973   4.964  19.270  0.00  0.00    +0.000 A 
ATOM      2  N   UNL     1       3.466   4.101  20.187  0.00  0.00    +0.000 NA
ATOM      3  C   UNL     1       2.331   4.425  20.844  0.00  0.00    +0.000 A 
ATOM      4  N   UNL     1       1.726   3.455  21.626  0.00  0.00    +0.000 N 
ATOM      5  N   UNL     1       1.696   5.579  20.741  0.00  0.00    +0.000 NA
ATOM      6  C   UNL     1       2.194   6.375  19.797  0.00  0.00    +0.000 A 
ATOM      7  C   UNL     1       3.242   6.075  18.941  0.00  0.00    +0.000 A 
ATOM      8  C   UNL     1       3.310   7.122  17.855  0.00  0.00    +0.000 C 
ATOM      9  C   UNL     1       2.364   8.195  18.384  0.00  0.00    +0.000 A 
ATOM     10  C   UNL     1       2.123   9.477  17.924  0.00  0.00    +0.000 A 
ATOM     11  C   UNL     1       1.380  10.336  18.743  0.00  0.00    +0.000 A 
ATOM     12  C   UNL     1       0.877   9.903  19.983  0.00  0.00    +0.000 A 
ATOM     13  C   UNL     1       1.040   8.579  20.389  0.00  0.00    +0.000 A 
ATOM     14  C   UNL     1       1.761   7.729  19.569  0.00  0.00    +0.000 A 
ATOM     15  H   UNL     1       1.980   2.540  21.278  0.00  0.00    +0.000 HD
ATOM     16  H   UNL     1       0.735   3.661  21.679  0.00  0.00    +0.000 HD
ENDROOT
BRANCH   1  17
ATOM     17  N   UNL     1       5.331   4.831  18.846  0.00  0.00    +0.000 N 
ATOM     18  H   UNL     1       5.902   5.544  19.289  0.00  0.00    +0.000 HD
BRANCH  17  24
ATOM     19  C   UNL     1       6.767   5.534  16.915  0.00  0.00    +0.000 A 
ATOM     20  C   UNL     1       6.966   5.486  15.511  0.00  0.00    +0.000 A 
ATOM     21  C   UNL     1       6.210   4.663  14.680  0.00  0.00    +0.000 A 
ATOM     22  C   UNL     1       5.225   3.867  15.241  0.00  0.00    +0.000 A 
ATOM     23  C   UNL     1       4.996   3.907  16.618  0.00  0.00    +0.000 A 
ATOM     24  C   UNL     1       5.754   4.720  17.485  0.00  0.00    +0.000 A 
BRANCH  19  26
ATOM     25  C   UNL     1       7.258   7.941  17.485  0.00  0.00    +0.000 C 
ATOM     26  C   UNL     1       7.708   6.482  17.654  0.00  0.00    +0.000 C 
ATOM     27  C   UNL     1       8.041   6.135  19.103  0.00  0.00    +0.000 C 
ENDBRANCH  19  26
ENDBRANCH  17  24
ENDBRANCH   1  17
TORSDOF 3
ENDMDL
MODEL 7
REMARK VINA RESULT:      -8.4      0.849      2.298
REMARK  Name = 
REMARK  5 active torsions:
REMARK  status: ('A' for Active; 'I' for Inactive)
REMARK    1  A    between atoms: C_1  and  C_2
REMARK    2  A    between atoms: C_2  and  C_3
REMARK    3  A    between atoms: C_2  and  C_4
REMARK    4  A    between atoms: C_9  and  N_10
REMARK    5  A    between atoms: N_10  and  C_11
REMARK                            x       y       z     vdW  Elec       q    Type
REMARK                         _______ _______ _______ _____ _____    ______ ____
ROOT
ATOM      1  C   UNL     1       5.856   5.253  18.115  0.00  0.00    +0.000 A 
ATOM      2  N   UNL     1       6.697   6.229  18.541  0.00  0.00    +0.000 NA
ATOM      3  C   UNL     1       7.471   6.875  17.641  0.00  0.00    +0.000 A 
ATOM      4  N   UNL     1       8.173   7.991  18.062  0.00  0.00    +0.000 N 
ATOM      5  N   UNL     1       7.554   6.576  16.357  0.00  0.00    +0.000 NA
ATOM      6  C   UNL     1       6.679   5.651  15.970  0.00  0.00    +0.000 A 
ATOM      7  C   UNL     1       5.717   5.048  16.767  0.00  0.00    +0.000 A 
ATOM      8  C   UNL     1       4.763   4.272  15.892  0.00  0.00    +0.000 C 
ATOM      9  C   UNL     1       5.486   4.275  14.548  0.00  0.00    +0.000 A 
ATOM     10  C   UNL     1       5.202   3.588  13.381  0.00  0.00    +0.000 A 
ATOM     11  C   UNL     1       6.171   3.590  12.370  0.00  0.00    +0.000 A 
ATOM     12  C   UNL     1       7.384   4.285  12.527  0.00  0.00    +0.000 A 
ATOM     13  C   UNL     1       7.615   5.056  13.667  0.00  0.00    +0.000 A 
ATOM     14  C   UNL     1       6.647   5.065  14.655  0.00  0.00    +0.000 A 
ATOM     15  H   UNL     1       7.699   8.404  18.856  0.00  0.00    +0.000 HD
ATOM     16  H   UNL     1       8.324   8.594  17.261  0.00  0.00    +0.000 HD
ENDROOT
BRANCH   1  17
ATOM     17  N   UNL     1       5.319   4.319  19.054  0.00  0.00    +0.000 N 
ATOM     18  H   UNL     1       5.431   3.374  18.702  0.00  0.00    +0.000 HD
BRANCH  17  24
ATOM     19  C   UNL     1       3.210   3.281  19.923  0.00  0.00    +0.000 A 
ATOM     20  C   UNL     1       1.863   3.494  20.318  0.00  0.00    +0.000 A 
ATOM     21  C   UNL     1       1.319   4.768  20.451  0.00  0.00    +0.000 A 
ATOM     22  C   UNL     1       2.116   5.869  20.184  0.00  0.00    +0.000 A 
ATOM     23  C   UNL     1       3.440   5.689  19.777  0.00  0.00    +0.000 A 
ATOM     24  C   UNL     1       4.021   4.411  19.647  0.00  0.00    +0.000 A 
BRANCH  19  26
ATOM     25  C   UNL     1       3.639   1.316  18.402  0.00  0.00    +0.000 C 
ATOM     26  C   UNL     1       3.623   1.814  19.855  0.00  0.00    +0.000 C 
ATOM     27  C   UNL     1       4.879   1.413  20.626  0.00  0.00    +0.000 C 
ENDBRANCH  19  26
ENDBRANCH  17  24
ENDBRANCH   1  17
TORSDOF 3
ENDMDL
MODEL 8
REMARK VINA RESULT:      -8.4      1.509      6.748
REMARK  Name = 
REMARK  5 active torsions:
REMARK  status: ('A' for Active; 'I' for Inactive)
REMARK    1  A    between atoms: C_1  and  C_2
REMARK    2  A    between atoms: C_2  and  C_3
REMARK    3  A    between atoms: C_2  and  C_4
REMARK    4  A    between atoms: C_9  and  N_10
REMARK    5  A    between atoms: N_10  and  C_11
REMARK                            x       y       z     vdW  Elec       q    Type
REMARK                         _______ _______ _______ _____ _____    ______ ____
ROOT
ATOM      1  C   UNL     1       5.440   3.710  16.453  0.00  0.00    +0.000 A 
ATOM      2  N   UNL     1       6.598   4.254  16.907  0.00  0.00    +0.000 NA
ATOM      3  C   UNL     1       6.680   4.657  18.194  0.00  0.00    +0.000 A 
ATOM      4  N   UNL     1       7.920   5.025  18.688  0.00  0.00    +0.000 N 
ATOM      5  N   UNL     1       5.680   4.654  19.057  0.00  0.00    +0.000 NA
ATOM      6  C   UNL     1       4.579   4.069  18.590  0.00  0.00    +0.000 A 
ATOM      7  C   UNL     1       4.436   3.461  17.352  0.00  0.00    +0.000 A 
ATOM      8  C   UNL     1       3.140   2.688  17.326  0.00  0.00    +0.000 C 
ATOM      9  C   UNL     1       2.444   3.185  18.589  0.00  0.00    +0.000 A 
ATOM     10  C   UNL     1       1.153   2.975  19.038  0.00  0.00    +0.000 A 
ATOM     11  C   UNL     1       0.701   3.748  20.115  0.00  0.00    +0.000 A 
ATOM     12  C   UNL     1       1.540   4.692  20.734  0.00  0.00    +0.000 A 
ATOM     13  C   UNL     1       2.872   4.823  20.338  0.00  0.00    +0.000 A 
ATOM     14  C   UNL     1       3.318   4.044  19.284  0.00  0.00    +0.000 A 
ATOM     15  H   UNL     1       8.643   4.558  18.156  0.00  0.00    +0.000 HD
ATOM     16  H   UNL     1       7.924   4.869  19.690  0.00  0.00    +0.000 HD
ENDROOT
BRANCH   1  17
ATOM     17  N   UNL     1       5.200   3.625  15.048  0.00  0.00    +0.000 N 
ATOM     18  H   UNL     1       5.021   2.661  14.786  0.00  0.00    +0.000 HD
BRANCH  17  24
ATOM     19  C   UNL     1       6.120   3.695  12.717  0.00  0.00    +0.000 A 
ATOM     20  C   UNL     1       7.128   4.206  11.859  0.00  0.00    +0.000 A 
ATOM     21  C   UNL     1       8.025   5.188  12.268  0.00  0.00    +0.000 A 
ATOM     22  C   UNL     1       7.937   5.681  13.559  0.00  0.00    +0.000 A 
ATOM     23  C   UNL     1       6.966   5.184  14.431  0.00  0.00    +0.000 A 
ATOM     24  C   UNL     1       6.036   4.200  14.040  0.00  0.00    +0.000 A 
BRANCH  19  26
ATOM     25  C   UNL     1       4.090   3.296  11.274  0.00  0.00    +0.000 C 
ATOM     26  C   UNL     1       5.223   2.639  12.077  0.00  0.00    +0.000 C 
ATOM     27  C   UNL     1       5.917   1.519  11.304  0.00  0.00    +0.000 C 
ENDBRANCH  19  26
ENDBRANCH  17  24
ENDBRANCH   1  17
TORSDOF 3
ENDMDL
MODEL 9
REMARK VINA RESULT:      -8.4      2.315      7.080
REMARK  Name = 
REMARK  5 active torsions:
REMARK  status: ('A' for Active; 'I' for Inactive)
REMARK    1  A    between atoms: C_1  and  C_2
REMARK    2  A    between atoms: C_2  and  C_3
REMARK    3  A    between atoms: C_2  and  C_4
REMARK    4  A    between atoms: C_9  and  N_10
REMARK    5  A    between atoms: N_10  and  C_11
REMARK                            x       y       z     vdW  Elec       q    Type
REMARK                         _______ _______ _______ _____ _____    ______ ____
ROOT
ATOM      1  C   UNL     1       3.581   6.375  18.098  0.00  0.00    +0.000 A 
ATOM      2  N   UNL     1       3.672   5.182  18.739  0.00  0.00    +0.000 NA
ATOM      3  C   UNL     1       2.950   4.977  19.862  0.00  0.00    +0.000 A 
ATOM      4  N   UNL     1       2.905   3.698  20.389  0.00  0.00    +0.000 N 
ATOM      5  N   UNL     1       2.210   5.889  20.466  0.00  0.00    +0.000 NA
ATOM      6  C   UNL     1       2.106   7.026  19.782  0.00  0.00    +0.000 A 
ATOM      7  C   UNL     1       2.655   7.285  18.535  0.00  0.00    +0.000 A 
ATOM      8  C   UNL     1       2.079   8.573  17.997  0.00  0.00    +0.000 C 
ATOM      9  C   UNL     1       1.374   9.145  19.223  0.00  0.00    +0.000 A 
ATOM     10  C   UNL     1       0.794  10.386  19.421  0.00  0.00    +0.000 A 
ATOM     11  C   UNL     1       0.428  10.735  20.727  0.00  0.00    +0.000 A 
ATOM     12  C   UNL     1       0.623   9.846  21.799  0.00  0.00    +0.000 A 
ATOM     13  C   UNL     1       1.115   8.560  21.571  0.00  0.00    +0.000 A 
ATOM     14  C   UNL     1       1.459   8.214  20.276  0.00  0.00    +0.000 A 
ATOM     15  H   UNL     1       3.072   3.027  19.649  0.00  0.00    +0.000 HD
ATOM     16  H   UNL     1       2.039   3.596  20.906  0.00  0.00    +0.000 HD
ENDROOT
BRANCH   1  17
ATOM     17  N   UNL     1       4.584   6.750  17.152  0.00  0.00    +0.000 N 
ATOM     18  H   UNL     1       4.205   7.428  16.498  0.00  0.00    +0.000 HD
BRANCH  17  24
ATOM     19  C   UNL     1       6.784   5.674  16.617  0.00  0.00    +0.000 A 
ATOM     20  C   UNL     1       7.524   4.893  15.691  0.00  0.00    +0.000 A 
ATOM     21  C   UNL     1       6.927   4.274  14.597  0.00  0.00    +0.000 A 
ATOM     22  C   UNL     1       5.566   4.428  14.398  0.00  0.00    +0.000 A 
ATOM     23  C   UNL     1       4.815   5.206  15.284  0.00  0.00    +0.000 A 
ATOM     24  C   UNL     1       5.390   5.833  16.408  0.00  0.00    +0.000 A 
BRANCH  19  26
ATOM     25  C   UNL     1       7.690   7.782  17.663  0.00  0.00    +0.000 C 
ATOM     26  C   UNL     1       7.614   6.251  17.760  0.00  0.00    +0.000 C 
ATOM     27  C   UNL     1       7.279   5.770  19.170  0.00  0.00    +0.000 C 
ENDBRANCH  19  26
ENDBRANCH  17  24
ENDBRANCH   1  17
TORSDOF 3
ENDMDL
