MODEL 1
REMARK VINA RESULT:      -9.6      0.000      0.000
REMARK  Name = 
REMARK  4 active torsions:
REMARK  status: ('A' for Active; 'I' for Inactive)
REMARK    1  A    between atoms: C_7  and  N_8
REMARK    2  A    between atoms: N_12  and  C_13
REMARK    3  A    between atoms: C_22  and  C_23
REMARK    4  A    between atoms: C_27  and  C_28
REMARK                            x       y       z     vdW  Elec       q    Type
REMARK                         _______ _______ _______ _____ _____    ______ ____
ROOT
ATOM      1  N   UNL     1       2.732   8.499  17.733  0.00  0.00    +0.000 N 
ATOM      2  C   UNL     1       3.406   7.288  17.890  0.00  0.00    +0.000 A 
ATOM      3  N   UNL     1       3.264   6.543  18.975  0.00  0.00    +0.000 NA
ATOM      4  C   UNL     1       3.796   5.332  18.958  0.00  0.00    +0.000 A 
ATOM      5  N   UNL     1       3.536   4.579  20.083  0.00  0.00    +0.000 N 
ATOM      6  N   UNL     1       4.535   4.864  17.962  0.00  0.00    +0.000 NA
ATOM      7  C   UNL     1       4.728   5.726  16.958  0.00  0.00    +0.000 A 
ATOM      8  N   UNL     1       4.158   6.930  16.868  0.00  0.00    +0.000 NA
ATOM      9  H   UNL     1       2.907   8.849  16.800  0.00  0.00    +0.000 HD
ATOM     10  H   UNL     1       3.755   5.135  20.903  0.00  0.00    +0.000 HD
ENDROOT
BRANCH   1  17
ATOM     11  F   UNL     1      -1.406  10.882  17.625  0.00  0.00    +0.000 F 
ATOM     12  C   UNL     1      -0.468  10.254  18.346  0.00  0.00    +0.000 A 
ATOM     13  C   UNL     1      -0.626  10.138  19.715  0.00  0.00    +0.000 A 
ATOM     14  C   UNL     1       0.357   9.482  20.437  0.00  0.00    +0.000 A 
ATOM     15  F   UNL     1       0.231   9.356  21.763  0.00  0.00    +0.000 F 
ATOM     16  C   UNL     1       1.476   8.945  19.806  0.00  0.00    +0.000 A 
ATOM     17  C   UNL     1       1.637   9.040  18.420  0.00  0.00    +0.000 A 
ATOM     18  C   UNL     1       0.647   9.721  17.696  0.00  0.00    +0.000 A 
ENDBRANCH   1  17
BRANCH   5  19
ATOM     19  C   UNL     1       3.780   3.149  20.128  0.00  0.00    +0.000 C 
ATOM     20  C   UNL     1       3.511   2.542  18.739  0.00  0.00    +0.000 C 
ATOM     21  C   UNL     1       2.048   2.697  18.310  0.00  0.00    +0.000 C 
ATOM     22  C   UNL     1       1.090   2.148  19.352  0.00  0.00    +0.000 C 
ATOM     23  F   UNL     1       1.166   0.790  19.335  0.00  0.00    +0.000 F 
ATOM     24  F   UNL     1      -0.185   2.462  19.007  0.00  0.00    +0.000 F 
ATOM     25  C   UNL     1       1.358   2.626  20.769  0.00  0.00    +0.000 C 
ATOM     26  C   UNL     1       2.834   2.499  21.154  0.00  0.00    +0.000 C 
ENDBRANCH   5  19
BRANCH   7  27
ATOM     27  C   UNL     1       5.702   5.380  15.904  0.00  0.00    +0.000 A 
ATOM     28  C   UNL     1       7.011   5.845  15.911  0.00  0.00    +0.000 A 
ATOM     29  N   UNL     1       7.891   5.608  14.902  0.00  0.00    +0.000 NA
ATOM     30  C   UNL     1       7.412   4.882  13.863  0.00  0.00    +0.000 A 
ATOM     31  C   UNL     1       6.117   4.391  13.821  0.00  0.00    +0.000 A 
ATOM     32  N   UNL     1       5.254   4.632  14.851  0.00  0.00    +0.000 NA
BRANCH  31  33
ATOM     33  C   UNL     1       5.652   3.601  12.618  0.00  0.00    +0.000 C 
ATOM     34  F   UNL     1       4.306   3.687  12.405  0.00  0.00    +0.000 F 
ATOM     35  F   UNL     1       6.230   4.009  11.453  0.00  0.00    +0.000 F 
ATOM     36  F   UNL     1       5.914   2.267  12.721  0.00  0.00    +0.000 F 
ENDBRANCH  31  33
ENDBRANCH   7  27
TORSDOF 4
ENDMDL
MODEL 2
REMARK VINA RESULT:      -9.6      0.073      1.543
REMARK  Name = 
REMARK  4 active torsions:
REMARK  status: ('A' for Active; 'I' for Inactive)
REMARK    1  A    between atoms: C_7  and  N_8
REMARK    2  A    between atoms: N_12  and  C_13
REMARK    3  A    between atoms: C_22  and  C_23
REMARK    4  A    between atoms: C_27  and  C_28
REMARK                            x       y       z     vdW  Elec       q    Type
REMARK                         _______ _______ _______ _____ _____    ______ ____
ROOT
ATOM      1  N   UNL     1       2.706   8.515  17.710  0.00  0.00    +0.000 N 
ATOM      2  C   UNL     1       3.385   7.309  17.880  0.00  0.00    +0.000 A 
ATOM      3  N   UNL     1       3.240   6.572  18.970  0.00  0.00    +0.000 NA
ATOM      4  C   UNL     1       3.778   5.362  18.965  0.00  0.00    +0.000 A 
ATOM      5  N   UNL     1       3.515   4.618  20.095  0.00  0.00    +0.000 N 
ATOM      6  N   UNL     1       4.523   4.890  17.977  0.00  0.00    +0.000 NA
ATOM      7  C   UNL     1       4.717   5.744  16.967  0.00  0.00    +0.000 A 
ATOM      8  N   UNL     1       4.143   6.945  16.864  0.00  0.00    +0.000 NA
ATOM      9  H   UNL     1       2.884   8.858  16.775  0.00  0.00    +0.000 HD
ATOM     10  H   UNL     1       3.728   5.181  20.912  0.00  0.00    +0.000 HD
ENDROOT
BRANCH   1  17
ATOM     11  F   UNL     1       0.384   9.272  21.815  0.00  0.00    +0.000 F 
ATOM     12  C   UNL     1       0.438   9.433  20.486  0.00  0.00    +0.000 A 
ATOM     13  C   UNL     1      -0.562  10.142  19.846  0.00  0.00    +0.000 A 
ATOM     14  C   UNL     1      -0.483  10.296  18.472  0.00  0.00    +0.000 A 
ATOM     15  F   UNL     1      -1.437  10.976  17.826  0.00  0.00    +0.000 F 
ATOM     16  C   UNL     1       0.579   9.759  17.748  0.00  0.00    +0.000 A 
ATOM     17  C   UNL     1       1.605   9.057  18.387  0.00  0.00    +0.000 A 
ATOM     18  C   UNL     1       1.510   8.888  19.777  0.00  0.00    +0.000 A 
ENDBRANCH   1  17
BRANCH   5  19
ATOM     19  C   UNL     1       3.766   3.189  20.153  0.00  0.00    +0.000 C 
ATOM     20  C   UNL     1       3.516   2.572  18.764  0.00  0.00    +0.000 C 
ATOM     21  C   UNL     1       2.058   2.717  18.316  0.00  0.00    +0.000 C 
ATOM     22  C   UNL     1       1.089   2.171  19.350  0.00  0.00    +0.000 C 
ATOM     23  F   UNL     1       1.172   0.813  19.343  0.00  0.00    +0.000 F 
ATOM     24  F   UNL     1      -0.182   2.476  18.987  0.00  0.00    +0.000 F 
ATOM     25  C   UNL     1       1.338   2.660  20.767  0.00  0.00    +0.000 C 
ATOM     26  C   UNL     1       2.810   2.541  21.171  0.00  0.00    +0.000 C 
ENDBRANCH   5  19
BRANCH   7  27
ATOM     27  C   UNL     1       5.697   5.394  15.920  0.00  0.00    +0.000 A 
ATOM     28  C   UNL     1       7.007   5.856  15.934  0.00  0.00    +0.000 A 
ATOM     29  N   UNL     1       7.893   5.615  14.932  0.00  0.00    +0.000 NA
ATOM     30  C   UNL     1       7.420   4.888  13.891  0.00  0.00    +0.000 A 
ATOM     31  C   UNL     1       6.124   4.398  13.842  0.00  0.00    +0.000 A 
ATOM     32  N   UNL     1       5.255   4.643  14.866  0.00  0.00    +0.000 NA
BRANCH  31  33
ATOM     33  C   UNL     1       5.666   3.606  12.638  0.00  0.00    +0.000 C 
ATOM     34  F   UNL     1       5.901   2.265  12.754  0.00  0.00    +0.000 F 
ATOM     35  F   UNL     1       4.328   3.719  12.402  0.00  0.00    +0.000 F 
ATOM     36  F   UNL     1       6.286   3.981  11.484  0.00  0.00    +0.000 F 
ENDBRANCH  31  33
ENDBRANCH   7  27
TORSDOF 4
ENDMDL
MODEL 3
REMARK VINA RESULT:      -9.3      1.069      1.835
REMARK  Name = 
REMARK  4 active torsions:
REMARK  status: ('A' for Active; 'I' for Inactive)
REMARK    1  A    between atoms: C_7  and  N_8
REMARK    2  A    between atoms: N_12  and  C_13
REMARK    3  A    between atoms: C_22  and  C_23
REMARK    4  A    between atoms: C_27  and  C_28
REMARK                            x       y       z     vdW  Elec       q    Type
REMARK                         _______ _______ _______ _____ _____    ______ ____
ROOT
ATOM      1  N   UNL     1       2.019   8.989  17.759  0.00  0.00    +0.000 N 
ATOM      2  C   UNL     1       2.747   7.861  18.138  0.00  0.00    +0.000 A 
ATOM      3  N   UNL     1       2.499   7.214  19.266  0.00  0.00    +0.000 NA
ATOM      4  C   UNL     1       3.113   6.057  19.454  0.00  0.00    +0.000 A 
ATOM      5  N   UNL     1       2.742   5.395  20.605  0.00  0.00    +0.000 N 
ATOM      6  N   UNL     1       4.023   5.561  18.628  0.00  0.00    +0.000 NA
ATOM      7  C   UNL     1       4.301   6.337  17.575  0.00  0.00    +0.000 A 
ATOM      8  N   UNL     1       3.666   7.473  17.276  0.00  0.00    +0.000 NA
ATOM      9  H   UNL     1       2.306   9.261  16.828  0.00  0.00    +0.000 HD
ATOM     10  H   UNL     1       2.797   6.044  21.384  0.00  0.00    +0.000 HD
ENDROOT
BRANCH   1  17
ATOM     11  F   UNL     1      -0.475  11.158  21.207  0.00  0.00    +0.000 F 
ATOM     12  C   UNL     1      -0.454  10.602  19.989  0.00  0.00    +0.000 A 
ATOM     13  C   UNL     1      -1.613  10.576  19.234  0.00  0.00    +0.000 A 
ATOM     14  C   UNL     1      -1.567   9.997  17.977  0.00  0.00    +0.000 A 
ATOM     15  F   UNL     1      -2.673   9.957  17.225  0.00  0.00    +0.000 F 
ATOM     16  C   UNL     1      -0.384   9.459  17.476  0.00  0.00    +0.000 A 
ATOM     17  C   UNL     1       0.798   9.496  18.223  0.00  0.00    +0.000 A 
ATOM     18  C   UNL     1       0.740  10.068  19.503  0.00  0.00    +0.000 A 
ENDBRANCH   1  17
BRANCH   5  19
ATOM     19  C   UNL     1       3.079   4.003  20.837  0.00  0.00    +0.000 C 
ATOM     20  C   UNL     1       3.416   3.329  19.494  0.00  0.00    +0.000 C 
ATOM     21  C   UNL     1       2.219   3.311  18.536  0.00  0.00    +0.000 C 
ATOM     22  C   UNL     1       0.990   2.691  19.176  0.00  0.00    +0.000 C 
ATOM     23  F   UNL     1       1.189   1.350  19.282  0.00  0.00    +0.000 F 
ATOM     24  F   UNL     1      -0.079   2.853  18.356  0.00  0.00    +0.000 F 
ATOM     25  C   UNL     1       0.653   3.237  20.553  0.00  0.00    +0.000 C 
ATOM     26  C   UNL     1       1.876   3.283  21.473  0.00  0.00    +0.000 C 
ENDBRANCH   5  19
BRANCH   7  27
ATOM     27  C   UNL     1       5.443   5.977  16.711  0.00  0.00    +0.000 A 
ATOM     28  C   UNL     1       6.715   6.505  16.891  0.00  0.00    +0.000 A 
ATOM     29  N   UNL     1       7.752   6.252  16.050  0.00  0.00    +0.000 NA
ATOM     30  C   UNL     1       7.474   5.442  15.000  0.00  0.00    +0.000 A 
ATOM     31  C   UNL     1       6.223   4.886  14.789  0.00  0.00    +0.000 A 
ATOM     32  N   UNL     1       5.198   5.145  15.653  0.00  0.00    +0.000 NA
BRANCH  31  33
ATOM     33  C   UNL     1       5.986   4.003  13.585  0.00  0.00    +0.000 C 
ATOM     34  F   UNL     1       6.782   4.319  12.520  0.00  0.00    +0.000 F 
ATOM     35  F   UNL     1       6.223   2.684  13.833  0.00  0.00    +0.000 F 
ATOM     36  F   UNL     1       4.709   4.074  13.112  0.00  0.00    +0.000 F 
ENDBRANCH  31  33
ENDBRANCH   7  27
TORSDOF 4
ENDMDL
MODEL 4
REMARK VINA RESULT:      -8.8      5.961     12.212
REMARK  Name = 
REMARK  4 active torsions:
REMARK  status: ('A' for Active; 'I' for Inactive)
REMARK    1  A    between atoms: C_7  and  N_8
REMARK    2  A    between atoms: N_12  and  C_13
REMARK    3  A    between atoms: C_22  and  C_23
REMARK    4  A    between atoms: C_27  and  C_28
REMARK                            x       y       z     vdW  Elec       q    Type
REMARK                         _______ _______ _______ _____ _____    ______ ____
ROOT
ATOM      1  N   UNL     1       0.392   9.759  21.375  0.00  0.00    +0.000 N 
ATOM      2  C   UNL     1       0.481  11.137  21.569  0.00  0.00    +0.000 A 
ATOM      3  N   UNL     1       1.493  11.848  21.095  0.00  0.00    +0.000 NA
ATOM      4  C   UNL     1       1.401  13.166  21.169  0.00  0.00    +0.000 A 
ATOM      5  N   UNL     1       2.446  13.844  20.578  0.00  0.00    +0.000 N 
ATOM      6  N   UNL     1       0.406  13.804  21.768  0.00  0.00    +0.000 NA
ATOM      7  C   UNL     1      -0.512  13.008  22.325  0.00  0.00    +0.000 A 
ATOM      8  N   UNL     1      -0.530  11.677  22.221  0.00  0.00    +0.000 NA
ATOM      9  H   UNL     1      -0.499   9.438  21.730  0.00  0.00    +0.000 HD
ATOM     10  H   UNL     1       3.319  13.452  20.917  0.00  0.00    +0.000 HD
ENDROOT
BRANCH   1  17
ATOM     11  F   UNL     1       2.459   5.538  20.521  0.00  0.00    +0.000 F 
ATOM     12  C   UNL     1       2.115   6.754  20.075  0.00  0.00    +0.000 A 
ATOM     13  C   UNL     1       2.410   7.107  18.770  0.00  0.00    +0.000 A 
ATOM     14  C   UNL     1       2.043   8.368  18.332  0.00  0.00    +0.000 A 
ATOM     15  F   UNL     1       2.316   8.737  17.075  0.00  0.00    +0.000 F 
ATOM     16  C   UNL     1       1.388   9.261  19.176  0.00  0.00    +0.000 A 
ATOM     17  C   UNL     1       1.069   8.907  20.491  0.00  0.00    +0.000 A 
ATOM     18  C   UNL     1       1.458   7.635  20.935  0.00  0.00    +0.000 A 
ENDBRANCH   1  17
BRANCH   5  19
ATOM     19  C   UNL     1       2.384  15.267  20.303  0.00  0.00    +0.000 C 
ATOM     20  C   UNL     1       2.024  15.484  18.821  0.00  0.00    +0.000 C 
ATOM     21  C   UNL     1       3.094  14.927  17.875  0.00  0.00    +0.000 C 
ATOM     22  C   UNL     1       4.475  15.468  18.197  0.00  0.00    +0.000 C 
ATOM     23  F   UNL     1       4.525  16.774  17.818  0.00  0.00    +0.000 F 
ATOM     24  F   UNL     1       5.403  14.819  17.450  0.00  0.00    +0.000 F 
ATOM     25  C   UNL     1       4.860  15.380  19.664  0.00  0.00    +0.000 C 
ATOM     26  C   UNL     1       3.757  15.905  20.586  0.00  0.00    +0.000 C 
ENDBRANCH   5  19
BRANCH   7  27
ATOM     27  C   UNL     1      -1.544  13.612  23.191  0.00  0.00    +0.000 A 
ATOM     28  C   UNL     1      -1.261  14.620  24.103  0.00  0.00    +0.000 A 
ATOM     29  N   UNL     1      -2.180  15.123  24.968  0.00  0.00    +0.000 NA
ATOM     30  C   UNL     1      -3.417  14.573  24.896  0.00  0.00    +0.000 A 
ATOM     31  C   UNL     1      -3.745  13.574  23.994  0.00  0.00    +0.000 A 
ATOM     32  N   UNL     1      -2.807  13.092  23.127  0.00  0.00    +0.000 NA
BRANCH  31  33
ATOM     33  C   UNL     1      -5.144  13.001  23.984  0.00  0.00    +0.000 C 
ATOM     34  F   UNL     1      -5.344  12.049  24.944  0.00  0.00    +0.000 F 
ATOM     35  F   UNL     1      -6.109  13.939  24.200  0.00  0.00    +0.000 F 
ATOM     36  F   UNL     1      -5.465  12.394  22.806  0.00  0.00    +0.000 F 
ENDBRANCH  31  33
ENDBRANCH   7  27
TORSDOF 4
ENDMDL
MODEL 5
REMARK VINA RESULT:      -8.7      5.983     12.165
REMARK  Name = 
REMARK  4 active torsions:
REMARK  status: ('A' for Active; 'I' for Inactive)
REMARK    1  A    between atoms: C_7  and  N_8
REMARK    2  A    between atoms: N_12  and  C_13
REMARK    3  A    between atoms: C_22  and  C_23
REMARK    4  A    between atoms: C_27  and  C_28
REMARK                            x       y       z     vdW  Elec       q    Type
REMARK                         _______ _______ _______ _____ _____    ______ ____
ROOT
ATOM      1  N   UNL     1       0.354   9.781  21.398  0.00  0.00    +0.000 N 
ATOM      2  C   UNL     1       0.426  11.163  21.571  0.00  0.00    +0.000 A 
ATOM      3  N   UNL     1       1.426  11.879  21.079  0.00  0.00    +0.000 NA
ATOM      4  C   UNL     1       1.317  13.197  21.134  0.00  0.00    +0.000 A 
ATOM      5  N   UNL     1       2.350  13.879  20.527  0.00  0.00    +0.000 N 
ATOM      6  N   UNL     1       0.318  13.831  21.731  0.00  0.00    +0.000 NA
ATOM      7  C   UNL     1      -0.586  13.032  22.306  0.00  0.00    +0.000 A 
ATOM      8  N   UNL     1      -0.588  11.699  22.222  0.00  0.00    +0.000 NA
ATOM      9  H   UNL     1      -0.531   9.455  21.764  0.00  0.00    +0.000 HD
ATOM     10  H   UNL     1       3.230  13.504  20.866  0.00  0.00    +0.000 HD
ENDROOT
BRANCH   1  17
ATOM     11  F   UNL     1       2.199   8.965  17.068  0.00  0.00    +0.000 F 
ATOM     12  C   UNL     1       1.969   8.528  18.313  0.00  0.00    +0.000 A 
ATOM     13  C   UNL     1       2.430   7.280  18.692  0.00  0.00    +0.000 A 
ATOM     14  C   UNL     1       2.182   6.852  19.984  0.00  0.00    +0.000 A 
ATOM     15  F   UNL     1       2.616   5.648  20.378  0.00  0.00    +0.000 F 
ATOM     16  C   UNL     1       1.491   7.654  20.889  0.00  0.00    +0.000 A 
ATOM     17  C   UNL     1       1.036   8.925  20.522  0.00  0.00    +0.000 A 
ATOM     18  C   UNL     1       1.274   9.347  19.206  0.00  0.00    +0.000 A 
ENDBRANCH   1  17
BRANCH   5  19
ATOM     19  C   UNL     1       2.268  15.298  20.231  0.00  0.00    +0.000 C 
ATOM     20  C   UNL     1       1.974  15.489  18.732  0.00  0.00    +0.000 C 
ATOM     21  C   UNL     1       3.099  14.947  17.844  0.00  0.00    +0.000 C 
ATOM     22  C   UNL     1       4.451  15.525  18.224  0.00  0.00    +0.000 C 
ATOM     23  F   UNL     1       4.489  16.827  17.831  0.00  0.00    +0.000 F 
ATOM     24  F   UNL     1       5.428  14.889  17.529  0.00  0.00    +0.000 F 
ATOM     25  C   UNL     1       4.768  15.462  19.709  0.00  0.00    +0.000 C 
ATOM     26  C   UNL     1       3.610  15.971  20.571  0.00  0.00    +0.000 C 
ENDBRANCH   5  19
BRANCH   7  27
ATOM     27  C   UNL     1      -1.620  13.636  23.170  0.00  0.00    +0.000 A 
ATOM     28  C   UNL     1      -1.334  14.625  24.102  0.00  0.00    +0.000 A 
ATOM     29  N   UNL     1      -2.257  15.126  24.964  0.00  0.00    +0.000 NA
ATOM     30  C   UNL     1      -3.499  14.594  24.869  0.00  0.00    +0.000 A 
ATOM     31  C   UNL     1      -3.830  13.614  23.947  0.00  0.00    +0.000 A 
ATOM     32  N   UNL     1      -2.889  13.133  23.083  0.00  0.00    +0.000 NA
BRANCH  31  33
ATOM     33  C   UNL     1      -5.237  13.059  23.912  0.00  0.00    +0.000 C 
ATOM     34  F   UNL     1      -6.195  14.005  24.142  0.00  0.00    +0.000 F 
ATOM     35  F   UNL     1      -5.561  12.499  22.712  0.00  0.00    +0.000 F 
ATOM     36  F   UNL     1      -5.454  12.093  24.849  0.00  0.00    +0.000 F 
ENDBRANCH  31  33
ENDBRANCH   7  27
TORSDOF 4
ENDMDL
MODEL 6
REMARK VINA RESULT:      -8.7      5.936     12.329
REMARK  Name = 
REMARK  4 active torsions:
REMARK  status: ('A' for Active; 'I' for Inactive)
REMARK    1  A    between atoms: C_7  and  N_8
REMARK    2  A    between atoms: N_12  and  C_13
REMARK    3  A    between atoms: C_22  and  C_23
REMARK    4  A    between atoms: C_27  and  C_28
REMARK                            x       y       z     vdW  Elec       q    Type
REMARK                         _______ _______ _______ _____ _____    ______ ____
ROOT
ATOM      1  N   UNL     1       0.492   9.266  21.272  0.00  0.00    +0.000 N 
ATOM      2  C   UNL     1       0.492  10.642  21.502  0.00  0.00    +0.000 A 
ATOM      3  N   UNL     1       1.461  11.426  21.054  0.00  0.00    +0.000 NA
ATOM      4  C   UNL     1       1.286  12.733  21.160  0.00  0.00    +0.000 A 
ATOM      5  N   UNL     1       2.290  13.490  20.595  0.00  0.00    +0.000 N 
ATOM      6  N   UNL     1       0.250  13.292  21.768  0.00  0.00    +0.000 NA
ATOM      7  C   UNL     1      -0.620  12.426  22.297  0.00  0.00    +0.000 A 
ATOM      8  N   UNL     1      -0.554  11.100  22.160  0.00  0.00    +0.000 NA
ATOM      9  H   UNL     1      -0.380   8.881  21.613  0.00  0.00    +0.000 HD
ATOM     10  H   UNL     1       3.185  13.145  20.931  0.00  0.00    +0.000 HD
ENDROOT
BRANCH   1  17
ATOM     11  F   UNL     1       2.743   5.168  20.295  0.00  0.00    +0.000 F 
ATOM     12  C   UNL     1       2.366   6.389  19.893  0.00  0.00    +0.000 A 
ATOM     13  C   UNL     1       2.684   6.812  18.615  0.00  0.00    +0.000 A 
ATOM     14  C   UNL     1       2.281   8.077  18.222  0.00  0.00    +0.000 A 
ATOM     15  F   UNL     1       2.576   8.513  16.992  0.00  0.00    +0.000 F 
ATOM     16  C   UNL     1       1.568   8.906  19.085  0.00  0.00    +0.000 A 
ATOM     17  C   UNL     1       1.225   8.481  20.373  0.00  0.00    +0.000 A 
ATOM     18  C   UNL     1       1.651   7.205  20.772  0.00  0.00    +0.000 A 
ENDBRANCH   1  17
BRANCH   5  19
ATOM     19  C   UNL     1       2.141  14.913  20.355  0.00  0.00    +0.000 C 
ATOM     20  C   UNL     1       1.773  15.145  18.878  0.00  0.00    +0.000 C 
ATOM     21  C   UNL     1       2.878  14.679  17.924  0.00  0.00    +0.000 C 
ATOM     22  C   UNL     1       4.222  15.297  18.265  0.00  0.00    +0.000 C 
ATOM     23  F   UNL     1       4.193  16.612  17.919  0.00  0.00    +0.000 F 
ATOM     24  F   UNL     1       5.190  14.726  17.506  0.00  0.00    +0.000 F 
ATOM     25  C   UNL     1       4.608  15.195  19.731  0.00  0.00    +0.000 C 
ATOM     26  C   UNL     1       3.471  15.627  20.661  0.00  0.00    +0.000 C 
ENDBRANCH   5  19
BRANCH   7  27
ATOM     27  C   UNL     1      -1.693  12.943  23.170  0.00  0.00    +0.000 A 
ATOM     28  C   UNL     1      -2.920  12.306  23.308  0.00  0.00    +0.000 A 
ATOM     29  N   UNL     1      -3.947  12.817  24.036  0.00  0.00    +0.000 NA
ATOM     30  C   UNL     1      -3.709  14.010  24.632  0.00  0.00    +0.000 A 
ATOM     31  C   UNL     1      -2.496  14.674  24.530  0.00  0.00    +0.000 A 
ATOM     32  N   UNL     1      -1.474  14.137  23.801  0.00  0.00    +0.000 NA
BRANCH  31  33
ATOM     33  C   UNL     1      -2.312  16.011  25.213  0.00  0.00    +0.000 C 
ATOM     34  F   UNL     1      -1.581  16.897  24.473  0.00  0.00    +0.000 F 
ATOM     35  F   UNL     1      -3.489  16.644  25.476  0.00  0.00    +0.000 F 
ATOM     36  F   UNL     1      -1.659  15.916  26.406  0.00  0.00    +0.000 F 
ENDBRANCH  31  33
ENDBRANCH   7  27
TORSDOF 4
ENDMDL
MODEL 7
REMARK VINA RESULT:      -8.7      5.901     12.227
REMARK  Name = 
REMARK  4 active torsions:
REMARK  status: ('A' for Active; 'I' for Inactive)
REMARK    1  A    between atoms: C_7  and  N_8
REMARK    2  A    between atoms: N_12  and  C_13
REMARK    3  A    between atoms: C_22  and  C_23
REMARK    4  A    between atoms: C_27  and  C_28
REMARK                            x       y       z     vdW  Elec       q    Type
REMARK                         _______ _______ _______ _____ _____    ______ ____
ROOT
ATOM      1  N   UNL     1       0.493   9.193  21.337  0.00  0.00    +0.000 N 
ATOM      2  C   UNL     1       0.486  10.573  21.539  0.00  0.00    +0.000 A 
ATOM      3  N   UNL     1       1.444  11.355  21.066  0.00  0.00    +0.000 NA
ATOM      4  C   UNL     1       1.261  12.663  21.148  0.00  0.00    +0.000 A 
ATOM      5  N   UNL     1       2.254  13.415  20.558  0.00  0.00    +0.000 N 
ATOM      6  N   UNL     1       0.226  13.227  21.755  0.00  0.00    +0.000 NA
ATOM      7  C   UNL     1      -0.632  12.366  22.310  0.00  0.00    +0.000 A 
ATOM      8  N   UNL     1      -0.558  11.037  22.198  0.00  0.00    +0.000 NA
ATOM      9  H   UNL     1      -0.373   8.809  21.694  0.00  0.00    +0.000 HD
ATOM     10  H   UNL     1       3.154  13.084  20.892  0.00  0.00    +0.000 HD
ENDROOT
BRANCH   1  17
ATOM     11  F   UNL     1       2.530   8.641  17.052  0.00  0.00    +0.000 F 
ATOM     12  C   UNL     1       2.254   8.133  18.261  0.00  0.00    +0.000 A 
ATOM     13  C   UNL     1       2.719   6.872  18.590  0.00  0.00    +0.000 A 
ATOM     14  C   UNL     1       2.423   6.370  19.846  0.00  0.00    +0.000 A 
ATOM     15  F   UNL     1       2.859   5.153  20.192  0.00  0.00    +0.000 F 
ATOM     16  C   UNL     1       1.682   7.113  20.762  0.00  0.00    +0.000 A 
ATOM     17  C   UNL     1       1.224   8.396  20.446  0.00  0.00    +0.000 A 
ATOM     18  C   UNL     1       1.511   8.892  19.166  0.00  0.00    +0.000 A 
ENDBRANCH   1  17
BRANCH   5  19
ATOM     19  C   UNL     1       2.092  14.833  20.291  0.00  0.00    +0.000 C 
ATOM     20  C   UNL     1       1.763  15.036  18.801  0.00  0.00    +0.000 C 
ATOM     21  C   UNL     1       2.900  14.571  17.885  0.00  0.00    +0.000 C 
ATOM     22  C   UNL     1       4.225  15.213  18.254  0.00  0.00    +0.000 C 
ATOM     23  F   UNL     1       4.188  16.522  17.887  0.00  0.00    +0.000 F 
ATOM     24  F   UNL     1       5.223  14.644  17.532  0.00  0.00    +0.000 F 
ATOM     25  C   UNL     1       4.571  15.140  19.732  0.00  0.00    +0.000 C 
ATOM     26  C   UNL     1       3.403  15.570  20.623  0.00  0.00    +0.000 C 
ENDBRANCH   5  19
BRANCH   7  27
ATOM     27  C   UNL     1      -1.700  12.892  23.183  0.00  0.00    +0.000 A 
ATOM     28  C   UNL     1      -2.936  12.271  23.314  0.00  0.00    +0.000 A 
ATOM     29  N   UNL     1      -3.957  12.792  24.042  0.00  0.00    +0.000 NA
ATOM     30  C   UNL     1      -3.705  13.979  24.646  0.00  0.00    +0.000 A 
ATOM     31  C   UNL     1      -2.483  14.626  24.550  0.00  0.00    +0.000 A 
ATOM     32  N   UNL     1      -1.467  14.079  23.821  0.00  0.00    +0.000 NA
BRANCH  31  33
ATOM     33  C   UNL     1      -2.282  15.957  25.240  0.00  0.00    +0.000 C 
ATOM     34  F   UNL     1      -1.522  16.830  24.516  0.00  0.00    +0.000 F 
ATOM     35  F   UNL     1      -3.451  16.613  25.487  0.00  0.00    +0.000 F 
ATOM     36  F   UNL     1      -1.652  15.845  26.444  0.00  0.00    +0.000 F 
ENDBRANCH  31  33
ENDBRANCH   7  27
TORSDOF 4
ENDMDL
MODEL 8
REMARK VINA RESULT:      -8.6      8.934     12.656
REMARK  Name = 
REMARK  4 active torsions:
REMARK  status: ('A' for Active; 'I' for Inactive)
REMARK    1  A    between atoms: C_7  and  N_8
REMARK    2  A    between atoms: N_12  and  C_13
REMARK    3  A    between atoms: C_22  and  C_23
REMARK    4  A    between atoms: C_27  and  C_28
REMARK                            x       y       z     vdW  Elec       q    Type
REMARK                         _______ _______ _______ _____ _____    ______ ____
ROOT
ATOM      1  N   UNL     1       9.385  12.747  21.767  0.00  0.00    +0.000 N 
ATOM      2  C   UNL     1       8.168  13.296  22.170  0.00  0.00    +0.000 A 
ATOM      3  N   UNL     1       7.462  14.089  21.379  0.00  0.00    +0.000 NA
ATOM      4  C   UNL     1       6.241  14.414  21.773  0.00  0.00    +0.000 A 
ATOM      5  N   UNL     1       5.530  15.167  20.864  0.00  0.00    +0.000 N 
ATOM      6  N   UNL     1       5.727  14.069  22.945  0.00  0.00    +0.000 NA
ATOM      7  C   UNL     1       6.552  13.370  23.732  0.00  0.00    +0.000 A 
ATOM      8  N   UNL     1       7.763  12.937  23.372  0.00  0.00    +0.000 NA
ATOM      9  H   UNL     1       9.701  12.102  22.479  0.00  0.00    +0.000 HD
ATOM     10  H   UNL     1       6.109  15.947  20.566  0.00  0.00    +0.000 HD
ENDROOT
BRANCH   1  17
ATOM     11  F   UNL     1       9.767  10.388  17.631  0.00  0.00    +0.000 F 
ATOM     12  C   UNL     1      10.149  11.417  18.400  0.00  0.00    +0.000 A 
ATOM     13  C   UNL     1      11.068  12.328  17.909  0.00  0.00    +0.000 A 
ATOM     14  C   UNL     1      11.445  13.383  18.721  0.00  0.00    +0.000 A 
ATOM     15  F   UNL     1      12.332  14.279  18.273  0.00  0.00    +0.000 F 
ATOM     16  C   UNL     1      10.912  13.535  19.999  0.00  0.00    +0.000 A 
ATOM     17  C   UNL     1       9.969  12.630  20.498  0.00  0.00    +0.000 A 
ATOM     18  C   UNL     1       9.604  11.552  19.677  0.00  0.00    +0.000 A 
ENDBRANCH   1  17
BRANCH   5  19
ATOM     19  C   UNL     1       4.098  15.372  20.984  0.00  0.00    +0.000 C 
ATOM     20  C   UNL     1       3.358  14.237  20.252  0.00  0.00    +0.000 C 
ATOM     21  C   UNL     1       3.650  14.228  18.747  0.00  0.00    +0.000 C 
ATOM     22  C   UNL     1       3.372  15.576  18.107  0.00  0.00    +0.000 C 
ATOM     23  F   UNL     1       2.025  15.760  18.054  0.00  0.00    +0.000 F 
ATOM     24  F   UNL     1       3.805  15.566  16.821  0.00  0.00    +0.000 F 
ATOM     25  C   UNL     1       3.989  16.759  18.835  0.00  0.00    +0.000 C 
ATOM     26  C   UNL     1       3.717  16.718  20.341  0.00  0.00    +0.000 C 
ENDBRANCH   5  19
BRANCH   7  27
ATOM     27  C   UNL     1       6.154  13.118  25.131  0.00  0.00    +0.000 A 
ATOM     28  C   UNL     1       6.573  13.918  26.186  0.00  0.00    +0.000 A 
ATOM     29  N   UNL     1       6.289  13.646  27.486  0.00  0.00    +0.000 NA
ATOM     30  C   UNL     1       5.561  12.524  27.707  0.00  0.00    +0.000 A 
ATOM     31  C   UNL     1       5.114  11.704  26.684  0.00  0.00    +0.000 A 
ATOM     32  N   UNL     1       5.403  12.003  25.383  0.00  0.00    +0.000 NA
BRANCH  31  33
ATOM     33  C   UNL     1       4.319  10.460  27.011  0.00  0.00    +0.000 C 
ATOM     34  F   UNL     1       3.171  10.721  27.705  0.00  0.00    +0.000 F 
ATOM     35  F   UNL     1       3.923   9.771  25.903  0.00  0.00    +0.000 F 
ATOM     36  F   UNL     1       5.009   9.571  27.781  0.00  0.00    +0.000 F 
ENDBRANCH  31  33
ENDBRANCH   7  27
TORSDOF 4
ENDMDL
MODEL 9
REMARK VINA RESULT:      -8.5      4.878      9.303
REMARK  Name = 
REMARK  4 active torsions:
REMARK  status: ('A' for Active; 'I' for Inactive)
REMARK    1  A    between atoms: C_7  and  N_8
REMARK    2  A    between atoms: N_12  and  C_13
REMARK    3  A    between atoms: C_22  and  C_23
REMARK    4  A    between atoms: C_27  and  C_28
REMARK                            x       y       z     vdW  Elec       q    Type
REMARK                         _______ _______ _______ _____ _____    ______ ____
ROOT
ATOM      1  N   UNL     1      -3.438  10.801  17.574  0.00  0.00    +0.000 N 
ATOM      2  C   UNL     1      -2.290  11.070  18.319  0.00  0.00    +0.000 A 
ATOM      3  N   UNL     1      -2.219  12.100  19.148  0.00  0.00    +0.000 NA
ATOM      4  C   UNL     1      -1.165  12.172  19.945  0.00  0.00    +0.000 A 
ATOM      5  N   UNL     1      -1.198  13.218  20.841  0.00  0.00    +0.000 N 
ATOM      6  N   UNL     1      -0.143  11.329  19.894  0.00  0.00    +0.000 NA
ATOM      7  C   UNL     1      -0.241  10.390  18.948  0.00  0.00    +0.000 A 
ATOM      8  N   UNL     1      -1.307  10.205  18.164  0.00  0.00    +0.000 NA
ATOM      9  H   UNL     1      -3.310   9.922  17.089  0.00  0.00    +0.000 HD
ATOM     10  H   UNL     1      -1.415  14.072  20.335  0.00  0.00    +0.000 HD
ENDROOT
BRANCH   1  17
ATOM     11  F   UNL     1      -7.674  10.600  19.772  0.00  0.00    +0.000 F 
ATOM     12  C   UNL     1      -6.899  11.157  18.831  0.00  0.00    +0.000 A 
ATOM     13  C   UNL     1      -7.407  12.181  18.051  0.00  0.00    +0.000 A 
ATOM     14  C   UNL     1      -6.587  12.741  17.087  0.00  0.00    +0.000 A 
ATOM     15  F   UNL     1      -7.051  13.733  16.318  0.00  0.00    +0.000 F 
ATOM     16  C   UNL     1      -5.280  12.295  16.905  0.00  0.00    +0.000 A 
ATOM     17  C   UNL     1      -4.751  11.273  17.700  0.00  0.00    +0.000 A 
ATOM     18  C   UNL     1      -5.592  10.697  18.664  0.00  0.00    +0.000 A 
ENDBRANCH   1  17
BRANCH   5  19
ATOM     19  C   UNL     1      -0.292  13.293  21.972  0.00  0.00    +0.000 C 
ATOM     20  C   UNL     1      -0.928  12.583  23.182  0.00  0.00    +0.000 C 
ATOM     21  C   UNL     1      -2.221  13.264  23.643  0.00  0.00    +0.000 C 
ATOM     22  C   UNL     1      -2.020  14.744  23.910  0.00  0.00    +0.000 C 
ATOM     23  F   UNL     1      -1.297  14.881  25.054  0.00  0.00    +0.000 F 
ATOM     24  F   UNL     1      -3.220  15.331  24.147  0.00  0.00    +0.000 F 
ATOM     25  C   UNL     1      -1.305  15.494  22.799  0.00  0.00    +0.000 C 
ATOM     26  C   UNL     1      -0.040  14.770  22.331  0.00  0.00    +0.000 C 
ENDBRANCH   5  19
BRANCH   7  27
ATOM     27  C   UNL     1       0.931   9.536  18.672  0.00  0.00    +0.000 A 
ATOM     28  C   UNL     1       1.838   9.812  17.656  0.00  0.00    +0.000 A 
ATOM     29  N   UNL     1       2.869   8.988  17.334  0.00  0.00    +0.000 NA
ATOM     30  C   UNL     1       2.968   7.854  18.069  0.00  0.00    +0.000 A 
ATOM     31  C   UNL     1       2.092   7.546  19.098  0.00  0.00    +0.000 A 
ATOM     32  N   UNL     1       1.069   8.394  19.411  0.00  0.00    +0.000 NA
BRANCH  31  33
ATOM     33  C   UNL     1       2.259   6.253  19.864  0.00  0.00    +0.000 C 
ATOM     34  F   UNL     1       3.566   5.908  20.062  0.00  0.00    +0.000 F 
ATOM     35  F   UNL     1       1.703   6.292  21.108  0.00  0.00    +0.000 F 
ATOM     36  F   UNL     1       1.697   5.182  19.234  0.00  0.00    +0.000 F 
ENDBRANCH  31  33
ENDBRANCH   7  27
TORSDOF 4
ENDMDL
