MODEL 1
REMARK VINA RESULT:      -7.3      0.000      0.000
REMARK  Name = 
REMARK  11 active torsions:
REMARK  status: ('A' for Active; 'I' for Inactive)
REMARK    1  A    between atoms: C_1  and  O_2
REMARK    2  A    between atoms: O_2  and  C_3
REMARK    3  A    between atoms: N_11  and  C_12
REMARK    4  A    between atoms: C_12  and  C_13
REMARK    5  A    between atoms: C_13  and  C_14
REMARK    6  A    between atoms: C_14  and  C_15
REMARK    7  A    between atoms: C_15  and  C_16
REMARK    8  A    between atoms: C_21  and  O_22
REMARK    9  A    between atoms: O_22  and  C_23
REMARK   10  A    between atoms: C_23  and  C_24
REMARK   11  A    between atoms: C_27  and  O_28
REMARK                            x       y       z     vdW  Elec       q    Type
REMARK                         _______ _______ _______ _____ _____    ______ ____
ROOT
ATOM      1  C   UNL     1      -5.885  11.624  19.347  0.00  0.00    +0.000 A 
ATOM      2  C   UNL     1      -5.930  10.997  18.105  0.00  0.00    +0.000 A 
ATOM      3  C   UNL     1      -4.782  10.907  17.320  0.00  0.00    +0.000 A 
ATOM      4  C   UNL     1      -3.556  11.413  17.782  0.00  0.00    +0.000 A 
ATOM      5  C   UNL     1      -3.501  12.017  19.050  0.00  0.00    +0.000 A 
ATOM      6  C   UNL     1      -4.673  12.131  19.817  0.00  0.00    +0.000 A 
ATOM      7  C   UNL     1      -2.190  12.480  19.635  0.00  0.00    +0.000 C 
ATOM      8  C   UNL     1      -1.216  11.319  19.897  0.00  0.00    +0.000 C 
ATOM      9  N   UNL     1      -0.472  10.800  18.724  0.00  0.00    +0.000 NA
ATOM     10  C   UNL     1      -1.371  10.183  17.706  0.00  0.00    +0.000 C 
ATOM     11  C   UNL     1      -2.304  11.168  16.973  0.00  0.00    +0.000 C 
ENDROOT
BRANCH   1  13
ATOM     12  C   UNL     1      -7.443  12.883  20.588  0.00  0.00    +0.000 C 
ATOM     13  O   UNL     1      -7.058  11.623  20.051  0.00  0.00    +0.000 OA
ENDBRANCH   1  13
BRANCH  11  14
ATOM     14  O   UNL     1      -1.624  12.386  16.670  0.00  0.00    +0.000 OA
ATOM     15  H   UNL     1      -1.887  12.598  15.747  0.00  0.00    +0.000 HD
ENDBRANCH  11  14
BRANCH   9  16
ATOM     16  C   UNL     1       0.472   9.737  19.137  0.00  0.00    +0.000 C 
BRANCH  16  17
ATOM     17  C   UNL     1       1.769   9.649  18.332  0.00  0.00    +0.000 C 
BRANCH  17  18
ATOM     18  C   UNL     1       1.970   8.252  17.729  0.00  0.00    +0.000 C 
BRANCH  18  19
ATOM     19  C   UNL     1       2.597   7.240  18.707  0.00  0.00    +0.000 C 
BRANCH  19  20
ATOM     20  C   UNL     1       3.411   6.172  18.013  0.00  0.00    +0.000 A 
ATOM     21  C   UNL     1       4.692   6.542  17.544  0.00  0.00    +0.000 A 
ATOM     22  C   UNL     1       5.513   5.636  16.885  0.00  0.00    +0.000 A 
ATOM     23  C   UNL     1       5.062   4.349  16.656  0.00  0.00    +0.000 A 
ATOM     24  C   UNL     1       3.791   3.965  17.091  0.00  0.00    +0.000 A 
ATOM     25  C   UNL     1       2.947   4.859  17.774  0.00  0.00    +0.000 A 
BRANCH  25  26
ATOM     26  O   UNL     1       1.682   4.511  18.211  0.00  0.00    +0.000 OA
BRANCH  26  27
ATOM     27  C   UNL     1       1.593   3.230  18.856  0.00  0.00    +0.000 C 
BRANCH  27  28
ATOM     28  C   UNL     1       1.071   3.317  20.279  0.00  0.00    +0.000 C 
ATOM     29  F   UNL     1       0.972   4.635  20.617  0.00  0.00    +0.000 F 
ENDBRANCH  27  28
ENDBRANCH  26  27
ENDBRANCH  25  26
ENDBRANCH  19  20
ENDBRANCH  18  19
ENDBRANCH  17  18
ENDBRANCH  16  17
ENDBRANCH   9  16
TORSDOF 10
ENDMDL
MODEL 2
REMARK VINA RESULT:      -7.3      4.415      9.243
REMARK  Name = 
REMARK  11 active torsions:
REMARK  status: ('A' for Active; 'I' for Inactive)
REMARK    1  A    between atoms: C_1  and  O_2
REMARK    2  A    between atoms: O_2  and  C_3
REMARK    3  A    between atoms: N_11  and  C_12
REMARK    4  A    between atoms: C_12  and  C_13
REMARK    5  A    between atoms: C_13  and  C_14
REMARK    6  A    between atoms: C_14  and  C_15
REMARK    7  A    between atoms: C_15  and  C_16
REMARK    8  A    between atoms: C_21  and  O_22
REMARK    9  A    between atoms: O_22  and  C_23
REMARK   10  A    between atoms: C_23  and  C_24
REMARK   11  A    between atoms: C_27  and  O_28
REMARK                            x       y       z     vdW  Elec       q    Type
REMARK                         _______ _______ _______ _____ _____    ______ ____
ROOT
ATOM      1  C   UNL     1       6.142   6.519  17.087  0.00  0.00    +0.000 A 
ATOM      2  C   UNL     1       5.449   6.213  15.919  0.00  0.00    +0.000 A 
ATOM      3  C   UNL     1       4.715   5.031  15.826  0.00  0.00    +0.000 A 
ATOM      4  C   UNL     1       4.631   4.151  16.916  0.00  0.00    +0.000 A 
ATOM      5  C   UNL     1       5.303   4.474  18.108  0.00  0.00    +0.000 A 
ATOM      6  C   UNL     1       6.068   5.652  18.178  0.00  0.00    +0.000 A 
ATOM      7  C   UNL     1       5.159   3.616  19.340  0.00  0.00    +0.000 C 
ATOM      8  C   UNL     1       3.722   3.605  19.889  0.00  0.00    +0.000 C 
ATOM      9  N   UNL     1       2.755   2.718  19.197  0.00  0.00    +0.000 NA
ATOM     10  C   UNL     1       2.510   3.133  17.785  0.00  0.00    +0.000 C 
ATOM     11  C   UNL     1       3.710   2.957  16.832  0.00  0.00    +0.000 C 
ENDROOT
BRANCH   1  13
ATOM     12  C   UNL     1       7.940   7.787  17.933  0.00  0.00    +0.000 C 
ATOM     13  O   UNL     1       6.798   7.719  17.086  0.00  0.00    +0.000 OA
ENDBRANCH   1  13
BRANCH  11  14
ATOM     14  O   UNL     1       4.401   1.737  17.101  0.00  0.00    +0.000 OA
ATOM     15  H   UNL     1       5.008   1.951  17.844  0.00  0.00    +0.000 HD
ENDBRANCH  11  14
BRANCH   9  16
ATOM     16  C   UNL     1       1.439   2.759  19.872  0.00  0.00    +0.000 C 
BRANCH  16  17
ATOM     17  C   UNL     1       1.307   3.766  21.015  0.00  0.00    +0.000 C 
BRANCH  17  18
ATOM     18  C   UNL     1       0.861   5.145  20.508  0.00  0.00    +0.000 C 
BRANCH  18  19
ATOM     19  C   UNL     1       1.840   6.280  20.863  0.00  0.00    +0.000 C 
BRANCH  19  20
ATOM     20  C   UNL     1       1.877   7.378  19.824  0.00  0.00    +0.000 A 
ATOM     21  C   UNL     1       2.631   7.133  18.654  0.00  0.00    +0.000 A 
ATOM     22  C   UNL     1       2.735   8.082  17.646  0.00  0.00    +0.000 A 
ATOM     23  C   UNL     1       2.111   9.307  17.795  0.00  0.00    +0.000 A 
ATOM     24  C   UNL     1       1.378   9.582  18.953  0.00  0.00    +0.000 A 
ATOM     25  C   UNL     1       1.244   8.632  19.981  0.00  0.00    +0.000 A 
BRANCH  25  26
ATOM     26  O   UNL     1       0.530   8.875  21.140  0.00  0.00    +0.000 OA
BRANCH  26  27
ATOM     27  C   UNL     1       0.012  10.210  21.266  0.00  0.00    +0.000 C 
BRANCH  27  28
ATOM     28  C   UNL     1      -0.521  10.511  22.655  0.00  0.00    +0.000 C 
ATOM     29  F   UNL     1      -0.805   9.327  23.268  0.00  0.00    +0.000 F 
ENDBRANCH  27  28
ENDBRANCH  26  27
ENDBRANCH  25  26
ENDBRANCH  19  20
ENDBRANCH  18  19
ENDBRANCH  17  18
ENDBRANCH  16  17
ENDBRANCH   9  16
TORSDOF 10
ENDMDL
MODEL 3
REMARK VINA RESULT:      -7.2      3.051     10.202
REMARK  Name = 
REMARK  11 active torsions:
REMARK  status: ('A' for Active; 'I' for Inactive)
REMARK    1  A    between atoms: C_1  and  O_2
REMARK    2  A    between atoms: O_2  and  C_3
REMARK    3  A    between atoms: N_11  and  C_12
REMARK    4  A    between atoms: C_12  and  C_13
REMARK    5  A    between atoms: C_13  and  C_14
REMARK    6  A    between atoms: C_14  and  C_15
REMARK    7  A    between atoms: C_15  and  C_16
REMARK    8  A    between atoms: C_21  and  O_22
REMARK    9  A    between atoms: O_22  and  C_23
REMARK   10  A    between atoms: C_23  and  C_24
REMARK   11  A    between atoms: C_27  and  O_28
REMARK                            x       y       z     vdW  Elec       q    Type
REMARK                         _______ _______ _______ _____ _____    ______ ____
ROOT
ATOM      1  C   UNL     1       7.129   4.959  15.113  0.00  0.00    +0.000 A 
ATOM      2  C   UNL     1       6.107   4.251  14.486  0.00  0.00    +0.000 A 
ATOM      3  C   UNL     1       5.082   3.680  15.238  0.00  0.00    +0.000 A 
ATOM      4  C   UNL     1       5.042   3.839  16.633  0.00  0.00    +0.000 A 
ATOM      5  C   UNL     1       6.055   4.582  17.265  0.00  0.00    +0.000 A 
ATOM      6  C   UNL     1       7.101   5.124  16.498  0.00  0.00    +0.000 A 
ATOM      7  C   UNL     1       6.000   4.870  18.744  0.00  0.00    +0.000 C 
ATOM      8  C   UNL     1       4.801   5.751  19.132  0.00  0.00    +0.000 C 
ATOM      9  N   UNL     1       3.489   5.071  19.249  0.00  0.00    +0.000 NA
ATOM     10  C   UNL     1       3.016   4.516  17.947  0.00  0.00    +0.000 C 
ATOM     11  C   UNL     1       3.842   3.335  17.399  0.00  0.00    +0.000 C 
ENDROOT
BRANCH   1  13
ATOM     12  C   UNL     1       7.866   5.249  12.893  0.00  0.00    +0.000 C 
ATOM     13  O   UNL     1       8.062   5.510  14.279  0.00  0.00    +0.000 OA
ENDBRANCH   1  13
BRANCH  11  14
ATOM     14  O   UNL     1       4.222   2.447  18.450  0.00  0.00    +0.000 OA
ATOM     15  H   UNL     1       3.769   2.796  19.250  0.00  0.00    +0.000 HD
ENDBRANCH  11  14
BRANCH   9  16
ATOM     16  C   UNL     1       2.447   6.025  19.691  0.00  0.00    +0.000 C 
BRANCH  16  17
ATOM     17  C   UNL     1       2.361   7.331  18.901  0.00  0.00    +0.000 C 
BRANCH  17  18
ATOM     18  C   UNL     1       1.530   8.389  19.641  0.00  0.00    +0.000 C 
BRANCH  18  19
ATOM     19  C   UNL     1       1.438   9.735  18.896  0.00  0.00    +0.000 C 
BRANCH  19  20
ATOM     20  C   UNL     1       0.043  10.318  18.897  0.00  0.00    +0.000 A 
ATOM     21  C   UNL     1      -0.710  10.189  17.708  0.00  0.00    +0.000 A 
ATOM     22  C   UNL     1      -1.996  10.701  17.605  0.00  0.00    +0.000 A 
ATOM     23  C   UNL     1      -2.550  11.376  18.677  0.00  0.00    +0.000 A 
ATOM     24  C   UNL     1      -1.817  11.537  19.856  0.00  0.00    +0.000 A 
ATOM     25  C   UNL     1      -0.518  11.015  19.991  0.00  0.00    +0.000 A 
BRANCH  25  26
ATOM     26  O   UNL     1       0.234  11.161  21.142  0.00  0.00    +0.000 OA
BRANCH  26  27
ATOM     27  C   UNL     1      -0.523  11.186  22.364  0.00  0.00    +0.000 C 
BRANCH  27  28
ATOM     28  C   UNL     1      -0.494   9.862  23.106  0.00  0.00    +0.000 C 
ATOM     29  F   UNL     1      -0.588   8.857  22.188  0.00  0.00    +0.000 F 
ENDBRANCH  27  28
ENDBRANCH  26  27
ENDBRANCH  25  26
ENDBRANCH  19  20
ENDBRANCH  18  19
ENDBRANCH  17  18
ENDBRANCH  16  17
ENDBRANCH   9  16
TORSDOF 10
ENDMDL
MODEL 4
REMARK VINA RESULT:      -7.2      7.797     10.875
REMARK  Name = 
REMARK  11 active torsions:
REMARK  status: ('A' for Active; 'I' for Inactive)
REMARK    1  A    between atoms: C_1  and  O_2
REMARK    2  A    between atoms: O_2  and  C_3
REMARK    3  A    between atoms: N_11  and  C_12
REMARK    4  A    between atoms: C_12  and  C_13
REMARK    5  A    between atoms: C_13  and  C_14
REMARK    6  A    between atoms: C_14  and  C_15
REMARK    7  A    between atoms: C_15  and  C_16
REMARK    8  A    between atoms: C_21  and  O_22
REMARK    9  A    between atoms: O_22  and  C_23
REMARK   10  A    between atoms: C_23  and  C_24
REMARK   11  A    between atoms: C_27  and  O_28
REMARK                            x       y       z     vdW  Elec       q    Type
REMARK                         _______ _______ _______ _____ _____    ______ ____
ROOT
ATOM      1  C   UNL     1       2.874   4.077  18.506  0.00  0.00    +0.000 A 
ATOM      2  C   UNL     1       3.765   3.566  19.446  0.00  0.00    +0.000 A 
ATOM      3  C   UNL     1       5.138   3.746  19.285  0.00  0.00    +0.000 A 
ATOM      4  C   UNL     1       5.642   4.475  18.196  0.00  0.00    +0.000 A 
ATOM      5  C   UNL     1       4.743   5.020  17.263  0.00  0.00    +0.000 A 
ATOM      6  C   UNL     1       3.363   4.802  17.419  0.00  0.00    +0.000 A 
ATOM      7  C   UNL     1       5.228   5.898  16.137  0.00  0.00    +0.000 C 
ATOM      8  C   UNL     1       5.855   7.210  16.637  0.00  0.00    +0.000 C 
ATOM      9  N   UNL     1       7.251   7.131  17.133  0.00  0.00    +0.000 NA
ATOM     10  C   UNL     1       7.376   6.281  18.352  0.00  0.00    +0.000 C 
ATOM     11  C   UNL     1       7.121   4.776  18.132  0.00  0.00    +0.000 C 
ENDROOT
BRANCH   1  13
ATOM     12  C   UNL     1       1.256   2.707  19.534  0.00  0.00    +0.000 C 
ATOM     13  O   UNL     1       1.549   3.877  18.780  0.00  0.00    +0.000 OA
ENDBRANCH   1  13
BRANCH  11  14
ATOM     14  O   UNL     1       7.697   4.337  16.902  0.00  0.00    +0.000 OA
ATOM     15  H   UNL     1       6.932   4.053  16.354  0.00  0.00    +0.000 HD
ENDBRANCH  11  14
BRANCH   9  16
ATOM     16  C   UNL     1       7.743   8.474  17.515  0.00  0.00    +0.000 C 
BRANCH  16  17
ATOM     17  C   UNL     1       8.616   8.532  18.769  0.00  0.00    +0.000 C 
BRANCH  17  18
ATOM     18  C   UNL     1       9.041   9.969  19.100  0.00  0.00    +0.000 C 
BRANCH  18  19
ATOM     19  C   UNL     1       9.232  10.859  17.857  0.00  0.00    +0.000 C 
BRANCH  19  20
ATOM     20  C   UNL     1      10.072  12.086  18.130  0.00  0.00    +0.000 A 
ATOM     21  C   UNL     1      11.475  11.934  18.063  0.00  0.00    +0.000 A 
ATOM     22  C   UNL     1      12.333  12.998  18.308  0.00  0.00    +0.000 A 
ATOM     23  C   UNL     1      11.809  14.231  18.652  0.00  0.00    +0.000 A 
ATOM     24  C   UNL     1      10.425  14.401  18.747  0.00  0.00    +0.000 A 
ATOM     25  C   UNL     1       9.535  13.343  18.489  0.00  0.00    +0.000 A 
BRANCH  25  26
ATOM     26  O   UNL     1       8.163  13.478  18.579  0.00  0.00    +0.000 OA
BRANCH  26  27
ATOM     27  C   UNL     1       7.707  14.763  19.035  0.00  0.00    +0.000 C 
BRANCH  27  28
ATOM     28  C   UNL     1       6.475  15.253  18.294  0.00  0.00    +0.000 C 
ATOM     29  F   UNL     1       6.418  16.610  18.415  0.00  0.00    +0.000 F 
ENDBRANCH  27  28
ENDBRANCH  26  27
ENDBRANCH  25  26
ENDBRANCH  19  20
ENDBRANCH  18  19
ENDBRANCH  17  18
ENDBRANCH  16  17
ENDBRANCH   9  16
TORSDOF 10
ENDMDL
MODEL 5
REMARK VINA RESULT:      -7.1      4.136     10.505
REMARK  Name = 
REMARK  11 active torsions:
REMARK  status: ('A' for Active; 'I' for Inactive)
REMARK    1  A    between atoms: C_1  and  O_2
REMARK    2  A    between atoms: O_2  and  C_3
REMARK    3  A    between atoms: N_11  and  C_12
REMARK    4  A    between atoms: C_12  and  C_13
REMARK    5  A    between atoms: C_13  and  C_14
REMARK    6  A    between atoms: C_14  and  C_15
REMARK    7  A    between atoms: C_15  and  C_16
REMARK    8  A    between atoms: C_21  and  O_22
REMARK    9  A    between atoms: O_22  and  C_23
REMARK   10  A    between atoms: C_23  and  C_24
REMARK   11  A    between atoms: C_27  and  O_28
REMARK                            x       y       z     vdW  Elec       q    Type
REMARK                         _______ _______ _______ _____ _____    ______ ____
ROOT
ATOM      1  C   UNL     1       6.987   5.013  15.322  0.00  0.00    +0.000 A 
ATOM      2  C   UNL     1       5.979   4.320  14.659  0.00  0.00    +0.000 A 
ATOM      3  C   UNL     1       4.977   3.674  15.382  0.00  0.00    +0.000 A 
ATOM      4  C   UNL     1       4.947   3.742  16.784  0.00  0.00    +0.000 A 
ATOM      5  C   UNL     1       5.947   4.469  17.454  0.00  0.00    +0.000 A 
ATOM      6  C   UNL     1       6.970   5.087  16.715  0.00  0.00    +0.000 A 
ATOM      7  C   UNL     1       5.900   4.659  18.950  0.00  0.00    +0.000 C 
ATOM      8  C   UNL     1       4.682   5.481  19.404  0.00  0.00    +0.000 C 
ATOM      9  N   UNL     1       3.389   4.759  19.488  0.00  0.00    +0.000 NA
ATOM     10  C   UNL     1       2.918   4.277  18.157  0.00  0.00    +0.000 C 
ATOM     11  C   UNL     1       3.769   3.157  17.527  0.00  0.00    +0.000 C 
ENDROOT
BRANCH   1  13
ATOM     12  C   UNL     1       7.802   5.327  13.133  0.00  0.00    +0.000 C 
ATOM     13  O   UNL     1       7.897   5.642  14.517  0.00  0.00    +0.000 OA
ENDBRANCH   1  13
BRANCH  11  14
ATOM     14  O   UNL     1       4.184   2.213  18.515  0.00  0.00    +0.000 OA
ATOM     15  H   UNL     1       3.710   1.383  18.284  0.00  0.00    +0.000 HD
ENDBRANCH  11  14
BRANCH   9  16
ATOM     16  C   UNL     1       2.327   5.654  20.000  0.00  0.00    +0.000 C 
BRANCH  16  17
ATOM     17  C   UNL     1       2.299   7.063  19.407  0.00  0.00    +0.000 C 
BRANCH  17  18
ATOM     18  C   UNL     1       1.806   8.100  20.425  0.00  0.00    +0.000 C 
BRANCH  18  19
ATOM     19  C   UNL     1       0.887   9.176  19.817  0.00  0.00    +0.000 C 
BRANCH  19  20
ATOM     20  C   UNL     1       0.179  10.010  20.861  0.00  0.00    +0.000 A 
ATOM     21  C   UNL     1      -0.098   9.392  22.100  0.00  0.00    +0.000 A 
ATOM     22  C   UNL     1      -0.754  10.070  23.120  0.00  0.00    +0.000 A 
ATOM     23  C   UNL     1      -1.171  11.372  22.914  0.00  0.00    +0.000 A 
ATOM     24  C   UNL     1      -0.928  11.999  21.688  0.00  0.00    +0.000 A 
ATOM     25  C   UNL     1      -0.253  11.339  20.646  0.00  0.00    +0.000 A 
BRANCH  25  26
ATOM     26  O   UNL     1      -0.002  11.929  19.422  0.00  0.00    +0.000 OA
BRANCH  26  27
ATOM     27  C   UNL     1       0.999  12.960  19.437  0.00  0.00    +0.000 C 
BRANCH  27  28
ATOM     28  C   UNL     1       2.208  12.626  18.582  0.00  0.00    +0.000 C 
ATOM     29  F   UNL     1       2.403  13.649  17.701  0.00  0.00    +0.000 F 
ENDBRANCH  27  28
ENDBRANCH  26  27
ENDBRANCH  25  26
ENDBRANCH  19  20
ENDBRANCH  18  19
ENDBRANCH  17  18
ENDBRANCH  16  17
ENDBRANCH   9  16
TORSDOF 10
ENDMDL
MODEL 6
REMARK VINA RESULT:      -7.1      3.075     10.355
REMARK  Name = 
REMARK  11 active torsions:
REMARK  status: ('A' for Active; 'I' for Inactive)
REMARK    1  A    between atoms: C_1  and  O_2
REMARK    2  A    between atoms: O_2  and  C_3
REMARK    3  A    between atoms: N_11  and  C_12
REMARK    4  A    between atoms: C_12  and  C_13
REMARK    5  A    between atoms: C_13  and  C_14
REMARK    6  A    between atoms: C_14  and  C_15
REMARK    7  A    between atoms: C_15  and  C_16
REMARK    8  A    between atoms: C_21  and  O_22
REMARK    9  A    between atoms: O_22  and  C_23
REMARK   10  A    between atoms: C_23  and  C_24
REMARK   11  A    between atoms: C_27  and  O_28
REMARK                            x       y       z     vdW  Elec       q    Type
REMARK                         _______ _______ _______ _____ _____    ______ ____
ROOT
ATOM      1  C   UNL     1       7.191   5.013  14.917  0.00  0.00    +0.000 A 
ATOM      2  C   UNL     1       6.109   4.420  14.271  0.00  0.00    +0.000 A 
ATOM      3  C   UNL     1       5.078   3.844  15.011  0.00  0.00    +0.000 A 
ATOM      4  C   UNL     1       5.094   3.884  16.415  0.00  0.00    +0.000 A 
ATOM      5  C   UNL     1       6.169   4.511  17.068  0.00  0.00    +0.000 A 
ATOM      6  C   UNL     1       7.219   5.058  16.311  0.00  0.00    +0.000 A 
ATOM      7  C   UNL     1       6.181   4.671  18.568  0.00  0.00    +0.000 C 
ATOM      8  C   UNL     1       5.049   5.582  19.074  0.00  0.00    +0.000 C 
ATOM      9  N   UNL     1       3.703   4.968  19.183  0.00  0.00    +0.000 NA
ATOM     10  C   UNL     1       3.156   4.555  17.858  0.00  0.00    +0.000 C 
ATOM     11  C   UNL     1       3.893   3.382  17.181  0.00  0.00    +0.000 C 
ENDROOT
BRANCH   1  13
ATOM     12  C   UNL     1       7.952   5.325  12.708  0.00  0.00    +0.000 C 
ATOM     13  O   UNL     1       8.127   5.581  14.097  0.00  0.00    +0.000 OA
ENDBRANCH   1  13
BRANCH  11  14
ATOM     14  O   UNL     1       4.254   2.386  18.138  0.00  0.00    +0.000 OA
ATOM     15  H   UNL     1       4.832   2.854  18.781  0.00  0.00    +0.000 HD
ENDBRANCH  11  14
BRANCH   9  16
ATOM     16  C   UNL     1       2.735   5.937  19.744  0.00  0.00    +0.000 C 
BRANCH  16  17
ATOM     17  C   UNL     1       2.375   7.118  18.843  0.00  0.00    +0.000 C 
BRANCH  17  18
ATOM     18  C   UNL     1       1.712   8.255  19.633  0.00  0.00    +0.000 C 
BRANCH  18  19
ATOM     19  C   UNL     1       1.358   9.482  18.772  0.00  0.00    +0.000 C 
BRANCH  19  20
ATOM     20  C   UNL     1       0.406  10.434  19.459  0.00  0.00    +0.000 A 
ATOM     21  C   UNL     1       0.798  10.941  20.718  0.00  0.00    +0.000 A 
ATOM     22  C   UNL     1      -0.011  11.814  21.434  0.00  0.00    +0.000 A 
ATOM     23  C   UNL     1      -1.242  12.177  20.921  0.00  0.00    +0.000 A 
ATOM     24  C   UNL     1      -1.663  11.671  19.687  0.00  0.00    +0.000 A 
ATOM     25  C   UNL     1      -0.856  10.799  18.937  0.00  0.00    +0.000 A 
BRANCH  25  26
ATOM     26  O   UNL     1      -1.245  10.278  17.717  0.00  0.00    +0.000 OA
BRANCH  26  27
ATOM     27  C   UNL     1      -2.270  11.022  17.037  0.00  0.00    +0.000 C 
BRANCH  27  28
ATOM     28  C   UNL     1      -3.552  10.231  16.848  0.00  0.00    +0.000 C 
ATOM     29  F   UNL     1      -3.560   9.210  17.753  0.00  0.00    +0.000 F 
ENDBRANCH  27  28
ENDBRANCH  26  27
ENDBRANCH  25  26
ENDBRANCH  19  20
ENDBRANCH  18  19
ENDBRANCH  17  18
ENDBRANCH  16  17
ENDBRANCH   9  16
TORSDOF 10
ENDMDL
MODEL 7
REMARK VINA RESULT:      -7.1      3.394     10.365
REMARK  Name = 
REMARK  11 active torsions:
REMARK  status: ('A' for Active; 'I' for Inactive)
REMARK    1  A    between atoms: C_1  and  O_2
REMARK    2  A    between atoms: O_2  and  C_3
REMARK    3  A    between atoms: N_11  and  C_12
REMARK    4  A    between atoms: C_12  and  C_13
REMARK    5  A    between atoms: C_13  and  C_14
REMARK    6  A    between atoms: C_14  and  C_15
REMARK    7  A    between atoms: C_15  and  C_16
REMARK    8  A    between atoms: C_21  and  O_22
REMARK    9  A    between atoms: O_22  and  C_23
REMARK   10  A    between atoms: C_23  and  C_24
REMARK   11  A    between atoms: C_27  and  O_28
REMARK                            x       y       z     vdW  Elec       q    Type
REMARK                         _______ _______ _______ _____ _____    ______ ____
ROOT
ATOM      1  C   UNL     1       7.223   4.996  14.761  0.00  0.00    +0.000 A 
ATOM      2  C   UNL     1       6.180   4.271  14.192  0.00  0.00    +0.000 A 
ATOM      3  C   UNL     1       5.169   3.744  14.994  0.00  0.00    +0.000 A 
ATOM      4  C   UNL     1       5.164   3.967  16.380  0.00  0.00    +0.000 A 
ATOM      5  C   UNL     1       6.199   4.728  16.953  0.00  0.00    +0.000 A 
ATOM      6  C   UNL     1       7.231   5.224  16.138  0.00  0.00    +0.000 A 
ATOM      7  C   UNL     1       6.183   5.083  18.419  0.00  0.00    +0.000 C 
ATOM      8  C   UNL     1       5.001   5.993  18.794  0.00  0.00    +0.000 C 
ATOM      9  N   UNL     1       3.686   5.332  18.974  0.00  0.00    +0.000 NA
ATOM     10  C   UNL     1       3.177   4.723  17.710  0.00  0.00    +0.000 C 
ATOM     11  C   UNL     1       3.979   3.510  17.198  0.00  0.00    +0.000 C 
ENDROOT
BRANCH   1  13
ATOM     12  C   UNL     1       7.813   5.338  12.505  0.00  0.00    +0.000 C 
ATOM     13  O   UNL     1       8.141   5.499  13.881  0.00  0.00    +0.000 OA
ENDBRANCH   1  13
BRANCH  11  14
ATOM     14  O   UNL     1       4.377   2.667  18.279  0.00  0.00    +0.000 OA
ATOM     15  H   UNL     1       4.381   1.760  17.901  0.00  0.00    +0.000 HD
ENDBRANCH  11  14
BRANCH   9  16
ATOM     16  C   UNL     1       2.664   6.315  19.397  0.00  0.00    +0.000 C 
BRANCH  16  17
ATOM     17  C   UNL     1       1.727   5.863  20.518  0.00  0.00    +0.000 C 
BRANCH  17  18
ATOM     18  C   UNL     1       1.180   7.053  21.317  0.00  0.00    +0.000 C 
BRANCH  18  19
ATOM     19  C   UNL     1       1.183   8.379  20.531  0.00  0.00    +0.000 C 
BRANCH  19  20
ATOM     20  C   UNL     1       0.355   9.459  21.189  0.00  0.00    +0.000 A 
ATOM     21  C   UNL     1       0.084   9.314  22.568  0.00  0.00    +0.000 A 
ATOM     22  C   UNL     1      -0.676  10.248  23.261  0.00  0.00    +0.000 A 
ATOM     23  C   UNL     1      -1.205  11.332  22.586  0.00  0.00    +0.000 A 
ATOM     24  C   UNL     1      -0.970  11.487  21.217  0.00  0.00    +0.000 A 
ATOM     25  C   UNL     1      -0.191  10.564  20.496  0.00  0.00    +0.000 A 
BRANCH  25  26
ATOM     26  O   UNL     1       0.055  10.686  19.141  0.00  0.00    +0.000 OA
BRANCH  26  27
ATOM     27  C   UNL     1      -0.931  11.431  18.409  0.00  0.00    +0.000 C 
BRANCH  27  28
ATOM     28  C   UNL     1      -1.888  10.546  17.631  0.00  0.00    +0.000 C 
ATOM     29  F   UNL     1      -1.175   9.512  17.100  0.00  0.00    +0.000 F 
ENDBRANCH  27  28
ENDBRANCH  26  27
ENDBRANCH  25  26
ENDBRANCH  19  20
ENDBRANCH  18  19
ENDBRANCH  17  18
ENDBRANCH  16  17
ENDBRANCH   9  16
TORSDOF 10
ENDMDL
MODEL 8
REMARK VINA RESULT:      -7.1      7.907     10.887
REMARK  Name = 
REMARK  11 active torsions:
REMARK  status: ('A' for Active; 'I' for Inactive)
REMARK    1  A    between atoms: C_1  and  O_2
REMARK    2  A    between atoms: O_2  and  C_3
REMARK    3  A    between atoms: N_11  and  C_12
REMARK    4  A    between atoms: C_12  and  C_13
REMARK    5  A    between atoms: C_13  and  C_14
REMARK    6  A    between atoms: C_14  and  C_15
REMARK    7  A    between atoms: C_15  and  C_16
REMARK    8  A    between atoms: C_21  and  O_22
REMARK    9  A    between atoms: O_22  and  C_23
REMARK   10  A    between atoms: C_23  and  C_24
REMARK   11  A    between atoms: C_27  and  O_28
REMARK                            x       y       z     vdW  Elec       q    Type
REMARK                         _______ _______ _______ _____ _____    ______ ____
ROOT
ATOM      1  C   UNL     1       2.916   3.839  18.490  0.00  0.00    +0.000 A 
ATOM      2  C   UNL     1       3.788   3.481  19.514  0.00  0.00    +0.000 A 
ATOM      3  C   UNL     1       5.156   3.713  19.387  0.00  0.00    +0.000 A 
ATOM      4  C   UNL     1       5.673   4.343  18.243  0.00  0.00    +0.000 A 
ATOM      5  C   UNL     1       4.790   4.735  17.221  0.00  0.00    +0.000 A 
ATOM      6  C   UNL     1       3.417   4.464  17.348  0.00  0.00    +0.000 A 
ATOM      7  C   UNL     1       5.282   5.507  16.023  0.00  0.00    +0.000 C 
ATOM      8  C   UNL     1       5.824   6.897  16.396  0.00  0.00    +0.000 C 
ATOM      9  N   UNL     1       7.199   6.945  16.950  0.00  0.00    +0.000 NA
ATOM     10  C   UNL     1       7.311   6.242  18.261  0.00  0.00    +0.000 C 
ATOM     11  C   UNL     1       7.137   4.711  18.201  0.00  0.00    +0.000 C 
ENDROOT
BRANCH   1  13
ATOM     12  C   UNL     1       1.200   2.234  18.682  0.00  0.00    +0.000 C 
ATOM     13  O   UNL     1       1.591   3.602  18.734  0.00  0.00    +0.000 OA
ENDBRANCH   1  13
BRANCH  11  14
ATOM     14  O   UNL     1       7.786   4.169  17.051  0.00  0.00    +0.000 OA
ATOM     15  H   UNL     1       8.346   4.901  16.710  0.00  0.00    +0.000 HD
ENDBRANCH  11  14
BRANCH   9  16
ATOM     16  C   UNL     1       7.610   8.345  17.197  0.00  0.00    +0.000 C 
BRANCH  16  17
ATOM     17  C   UNL     1       8.403   8.590  18.482  0.00  0.00    +0.000 C 
BRANCH  17  18
ATOM     18  C   UNL     1       9.017   9.996  18.512  0.00  0.00    +0.000 C 
BRANCH  18  19
ATOM     19  C   UNL     1       9.580  10.396  19.889  0.00  0.00    +0.000 C 
BRANCH  19  20
ATOM     20  C   UNL     1      10.295  11.728  19.873  0.00  0.00    +0.000 A 
ATOM     21  C   UNL     1      11.249  11.935  18.852  0.00  0.00    +0.000 A 
ATOM     22  C   UNL     1      11.966  13.121  18.758  0.00  0.00    +0.000 A 
ATOM     23  C   UNL     1      11.766  14.115  19.697  0.00  0.00    +0.000 A 
ATOM     24  C   UNL     1      10.843  13.926  20.730  0.00  0.00    +0.000 A 
ATOM     25  C   UNL     1      10.093  12.741  20.838  0.00  0.00    +0.000 A 
BRANCH  25  26
ATOM     26  O   UNL     1       9.178  12.522  21.850  0.00  0.00    +0.000 OA
BRANCH  26  27
ATOM     27  C   UNL     1       8.716  13.707  22.520  0.00  0.00    +0.000 C 
BRANCH  27  28
ATOM     28  C   UNL     1       7.207  13.864  22.477  0.00  0.00    +0.000 C 
ATOM     29  F   UNL     1       6.846  14.157  21.194  0.00  0.00    +0.000 F 
ENDBRANCH  27  28
ENDBRANCH  26  27
ENDBRANCH  25  26
ENDBRANCH  19  20
ENDBRANCH  18  19
ENDBRANCH  17  18
ENDBRANCH  16  17
ENDBRANCH   9  16
TORSDOF 10
ENDMDL
MODEL 9
REMARK VINA RESULT:      -7.1      3.365      4.229
REMARK  Name = 
REMARK  11 active torsions:
REMARK  status: ('A' for Active; 'I' for Inactive)
REMARK    1  A    between atoms: C_1  and  O_2
REMARK    2  A    between atoms: O_2  and  C_3
REMARK    3  A    between atoms: N_11  and  C_12
REMARK    4  A    between atoms: C_12  and  C_13
REMARK    5  A    between atoms: C_13  and  C_14
REMARK    6  A    between atoms: C_14  and  C_15
REMARK    7  A    between atoms: C_15  and  C_16
REMARK    8  A    between atoms: C_21  and  O_22
REMARK    9  A    between atoms: O_22  and  C_23
REMARK   10  A    between atoms: C_23  and  C_24
REMARK   11  A    between atoms: C_27  and  O_28
REMARK                            x       y       z     vdW  Elec       q    Type
REMARK                         _______ _______ _______ _____ _____    ______ ____
ROOT
ATOM      1  C   UNL     1      -2.474  12.060  23.076  0.00  0.00    +0.000 A 
ATOM      2  C   UNL     1      -2.565  13.123  22.183  0.00  0.00    +0.000 A 
ATOM      3  C   UNL     1      -1.574  13.324  21.223  0.00  0.00    +0.000 A 
ATOM      4  C   UNL     1      -0.491  12.438  21.116  0.00  0.00    +0.000 A 
ATOM      5  C   UNL     1      -0.413  11.343  21.995  0.00  0.00    +0.000 A 
ATOM      6  C   UNL     1      -1.401  11.173  22.981  0.00  0.00    +0.000 A 
ATOM      7  C   UNL     1       0.673  10.307  21.853  0.00  0.00    +0.000 C 
ATOM      8  C   UNL     1       0.576   9.526  20.531  0.00  0.00    +0.000 C 
ATOM      9  N   UNL     1       1.107  10.201  19.322  0.00  0.00    +0.000 NA
ATOM     10  C   UNL     1       0.341  11.433  18.974  0.00  0.00    +0.000 C 
ATOM     11  C   UNL     1       0.484  12.598  19.973  0.00  0.00    +0.000 C 
ENDROOT
BRANCH   1  13
ATOM     12  C   UNL     1      -4.420  13.033  23.981  0.00  0.00    +0.000 C 
ATOM     13  O   UNL     1      -3.518  11.933  23.951  0.00  0.00    +0.000 OA
ENDBRANCH   1  13
BRANCH  11  14
ATOM     14  O   UNL     1       1.829  12.710  20.438  0.00  0.00    +0.000 OA
ATOM     15  H   UNL     1       1.760  12.676  21.418  0.00  0.00    +0.000 HD
ENDBRANCH  11  14
BRANCH   9  16
ATOM     16  C   UNL     1       1.010   9.309  18.145  0.00  0.00    +0.000 C 
BRANCH  16  17
ATOM     17  C   UNL     1       2.307   8.615  17.725  0.00  0.00    +0.000 C 
BRANCH  17  18
ATOM     18  C   UNL     1       2.546   7.327  18.523  0.00  0.00    +0.000 C 
BRANCH  18  19
ATOM     19  C   UNL     1       3.470   6.320  17.811  0.00  0.00    +0.000 C 
BRANCH  19  20
ATOM     20  C   UNL     1       3.096   4.880  18.079  0.00  0.00    +0.000 A 
ATOM     21  C   UNL     1       1.743   4.520  17.891  0.00  0.00    +0.000 A 
ATOM     22  C   UNL     1       1.298   3.224  18.120  0.00  0.00    +0.000 A 
ATOM     23  C   UNL     1       2.189   2.267  18.569  0.00  0.00    +0.000 A 
ATOM     24  C   UNL     1       3.529   2.604  18.784  0.00  0.00    +0.000 A 
ATOM     25  C   UNL     1       4.007   3.904  18.544  0.00  0.00    +0.000 A 
BRANCH  25  26
ATOM     26  O   UNL     1       5.324   4.270  18.752  0.00  0.00    +0.000 OA
BRANCH  26  27
ATOM     27  C   UNL     1       6.157   4.233  17.581  0.00  0.00    +0.000 C 
BRANCH  27  28
ATOM     28  C   UNL     1       7.429   5.047  17.732  0.00  0.00    +0.000 C 
ATOM     29  F   UNL     1       8.474   4.182  17.880  0.00  0.00    +0.000 F 
ENDBRANCH  27  28
ENDBRANCH  26  27
ENDBRANCH  25  26
ENDBRANCH  19  20
ENDBRANCH  18  19
ENDBRANCH  17  18
ENDBRANCH  16  17
ENDBRANCH   9  16
TORSDOF 10
ENDMDL
