MODEL 1
REMARK VINA RESULT:      -8.2      0.000      0.000
REMARK  Name = 
REMARK  3 active torsions:
REMARK  status: ('A' for Active; 'I' for Inactive)
REMARK    1  A    between atoms: C_2  and  C_3
REMARK    2  A    between atoms: C_3  and  C_4
REMARK    3  A    between atoms: C_11  and  C_13
REMARK                            x       y       z     vdW  Elec       q    Type
REMARK                         _______ _______ _______ _____ _____    ______ ____
ROOT
ATOM      1  C   UNL     1       3.018   7.008  17.761  0.00  0.00    +0.000 C 
ATOM      2  C   UNL     1       1.912   5.984  18.134  0.00  0.00    +0.000 C 
ATOM      3  O   UNL     1       2.143   5.333  19.388  0.00  0.00    +0.000 OA
ATOM      4  C   UNL     1       3.323   4.523  19.367  0.00  0.00    +0.000 C 
ATOM      5  C   UNL     1       4.540   5.432  19.229  0.00  0.00    +0.000 C 
ATOM      6  C   UNL     1       5.830   4.679  18.861  0.00  0.00    +0.000 C 
ATOM      7  N   UNL     1       5.863   4.699  17.399  0.00  0.00    +0.000 N 
ATOM      8  C   UNL     1       7.019   4.458  16.669  0.00  0.00    +0.000 C 
ATOM      9  O   UNL     1       8.115   4.247  17.173  0.00  0.00    +0.000 OA
ATOM     10  C   UNL     1       4.784   5.510  16.878  0.00  0.00    +0.000 C 
ATOM     11  C   UNL     1       4.391   6.401  18.044  0.00  0.00    +0.000 C 
ENDROOT
BRANCH   8  12
ATOM     12  C   UNL     1       6.885   4.478  15.191  0.00  0.00    +0.000 A 
ATOM     13  C   UNL     1       6.027   3.605  14.527  0.00  0.00    +0.000 A 
ATOM     14  C   UNL     1       6.001   3.614  13.133  0.00  0.00    +0.000 A 
ATOM     15  C   UNL     1       6.838   4.494  12.457  0.00  0.00    +0.000 A 
ATOM     16  N   UNL     1       7.672   5.359  13.073  0.00  0.00    +0.000 NA
ATOM     17  C   UNL     1       7.660   5.344  14.426  0.00  0.00    +0.000 A 
ENDBRANCH   8  12
BRANCH   1  18
ATOM     18  C   UNL     1       2.767   8.380  18.411  0.00  0.00    +0.000 C 
BRANCH  18  20
ATOM     19  O   UNL     1       0.753   9.444  17.655  0.00  0.00    +0.000 OA
ATOM     20  C   UNL     1       1.359   8.957  18.613  0.00  0.00    +0.000 C 
ATOM     21  N   UNL     1       0.883   9.125  19.907  0.00  0.00    +0.000 N 
ATOM     22  C   UNL     1       1.209   8.318  21.087  0.00  0.00    +0.000 C 
ATOM     23  C   UNL     1       1.488   9.219  22.299  0.00  0.00    +0.000 C 
ATOM     24  O   UNL     1       0.398  10.126  22.540  0.00  0.00    +0.000 OA
ATOM     25  C   UNL     1       0.144  10.946  21.387  0.00  0.00    +0.000 C 
ATOM     26  C   UNL     1      -0.204  10.084  20.166  0.00  0.00    +0.000 C 
ENDBRANCH  18  20
ENDBRANCH   1  18
TORSDOF 3
ENDMDL
MODEL 2
REMARK VINA RESULT:      -7.8      1.090      1.211
REMARK  Name = 
REMARK  3 active torsions:
REMARK  status: ('A' for Active; 'I' for Inactive)
REMARK    1  A    between atoms: C_2  and  C_3
REMARK    2  A    between atoms: C_3  and  C_4
REMARK    3  A    between atoms: C_11  and  C_13
REMARK                            x       y       z     vdW  Elec       q    Type
REMARK                         _______ _______ _______ _____ _____    ______ ____
ROOT
ATOM      1  C   UNL     1       2.747   6.279  18.203  0.00  0.00    +0.000 C 
ATOM      2  C   UNL     1       1.786   5.093  18.488  0.00  0.00    +0.000 C 
ATOM      3  O   UNL     1       2.110   4.376  19.684  0.00  0.00    +0.000 OA
ATOM      4  C   UNL     1       3.385   3.731  19.598  0.00  0.00    +0.000 C 
ATOM      5  C   UNL     1       4.472   4.798  19.538  0.00  0.00    +0.000 C 
ATOM      6  C   UNL     1       5.846   4.251  19.111  0.00  0.00    +0.000 C 
ATOM      7  N   UNL     1       5.863   4.395  17.656  0.00  0.00    +0.000 N 
ATOM      8  C   UNL     1       7.034   4.367  16.911  0.00  0.00    +0.000 C 
ATOM      9  O   UNL     1       8.153   4.259  17.399  0.00  0.00    +0.000 OA
ATOM     10  C   UNL     1       4.684   5.100  17.202  0.00  0.00    +0.000 C 
ATOM     11  C   UNL     1       4.189   5.833  18.437  0.00  0.00    +0.000 C 
ENDROOT
BRANCH   8  12
ATOM     12  C   UNL     1       6.886   4.491  15.440  0.00  0.00    +0.000 A 
ATOM     13  C   UNL     1       6.012   3.676  14.726  0.00  0.00    +0.000 A 
ATOM     14  C   UNL     1       5.972   3.782  13.336  0.00  0.00    +0.000 A 
ATOM     15  C   UNL     1       6.812   4.697  12.714  0.00  0.00    +0.000 A 
ATOM     16  N   UNL     1       7.662   5.509  13.380  0.00  0.00    +0.000 NA
ATOM     17  C   UNL     1       7.663   5.400  14.729  0.00  0.00    +0.000 A 
ENDBRANCH   8  12
BRANCH   1  18
ATOM     18  C   UNL     1       2.327   7.549  18.964  0.00  0.00    +0.000 C 
BRANCH  18  20
ATOM     19  O   UNL     1       2.305   9.076  17.112  0.00  0.00    +0.000 OA
ATOM     20  C   UNL     1       1.895   8.838  18.251  0.00  0.00    +0.000 C 
ATOM     21  N   UNL     1       1.236   9.819  18.982  0.00  0.00    +0.000 N 
ATOM     22  C   UNL     1       0.350   9.626  20.133  0.00  0.00    +0.000 C 
ATOM     23  C   UNL     1       0.675  10.636  21.242  0.00  0.00    +0.000 C 
ATOM     24  O   UNL     1       0.645  11.987  20.749  0.00  0.00    +0.000 OA
ATOM     25  C   UNL     1       1.570  12.159  19.662  0.00  0.00    +0.000 C 
ATOM     26  C   UNL     1       1.238  11.211  18.502  0.00  0.00    +0.000 C 
ENDBRANCH  18  20
ENDBRANCH   1  18
TORSDOF 3
ENDMDL
MODEL 3
REMARK VINA RESULT:      -7.7      3.070      4.424
REMARK  Name = 
REMARK  3 active torsions:
REMARK  status: ('A' for Active; 'I' for Inactive)
REMARK    1  A    between atoms: C_2  and  C_3
REMARK    2  A    between atoms: C_3  and  C_4
REMARK    3  A    between atoms: C_11  and  C_13
REMARK                            x       y       z     vdW  Elec       q    Type
REMARK                         _______ _______ _______ _____ _____    ______ ____
ROOT
ATOM      1  C   UNL     1       4.063   4.531  17.051  0.00  0.00    +0.000 C 
ATOM      2  C   UNL     1       4.726   3.659  18.152  0.00  0.00    +0.000 C 
ATOM      3  O   UNL     1       5.828   4.305  18.799  0.00  0.00    +0.000 OA
ATOM      4  C   UNL     1       6.914   4.551  17.900  0.00  0.00    +0.000 C 
ATOM      5  C   UNL     1       6.473   5.586  16.870  0.00  0.00    +0.000 C 
ATOM      6  C   UNL     1       7.420   5.689  15.661  0.00  0.00    +0.000 C 
ATOM      7  N   UNL     1       6.879   4.741  14.688  0.00  0.00    +0.000 N 
ATOM      8  C   UNL     1       7.203   4.780  13.339  0.00  0.00    +0.000 C 
ATOM      9  O   UNL     1       7.933   5.625  12.834  0.00  0.00    +0.000 OA
ATOM     10  C   UNL     1       5.627   4.189  15.159  0.00  0.00    +0.000 C 
ATOM     11  C   UNL     1       5.148   5.187  16.199  0.00  0.00    +0.000 C 
ENDROOT
BRANCH   8  12
ATOM     12  C   UNL     1       6.601   3.728  12.482  0.00  0.00    +0.000 A 
ATOM     13  C   UNL     1       5.228   3.670  12.260  0.00  0.00    +0.000 A 
ATOM     14  C   UNL     1       4.709   2.614  11.511  0.00  0.00    +0.000 A 
ATOM     15  C   UNL     1       5.585   1.654  11.019  0.00  0.00    +0.000 A 
ATOM     16  N   UNL     1       6.922   1.690  11.208  0.00  0.00    +0.000 NA
ATOM     17  C   UNL     1       7.399   2.738  11.918  0.00  0.00    +0.000 A 
ENDBRANCH   8  12
BRANCH   1  18
ATOM     18  C   UNL     1       3.024   5.500  17.641  0.00  0.00    +0.000 C 
BRANCH  18  20
ATOM     19  O   UNL     1       3.308   6.509  19.801  0.00  0.00    +0.000 OA
ATOM     20  C   UNL     1       2.761   5.615  19.150  0.00  0.00    +0.000 C 
ATOM     21  N   UNL     1       2.094   4.581  19.794  0.00  0.00    +0.000 N 
ATOM     22  C   UNL     1       1.076   3.690  19.229  0.00  0.00    +0.000 C 
ATOM     23  C   UNL     1       1.346   2.234  19.633  0.00  0.00    +0.000 C 
ATOM     24  O   UNL     1       1.461   2.098  21.060  0.00  0.00    +0.000 OA
ATOM     25  C   UNL     1       2.508   2.937  21.576  0.00  0.00    +0.000 C 
ATOM     26  C   UNL     1       2.242   4.412  21.249  0.00  0.00    +0.000 C 
ENDBRANCH  18  20
ENDBRANCH   1  18
TORSDOF 3
ENDMDL
MODEL 4
REMARK VINA RESULT:      -7.4      1.512      2.496
REMARK  Name = 
REMARK  3 active torsions:
REMARK  status: ('A' for Active; 'I' for Inactive)
REMARK    1  A    between atoms: C_2  and  C_3
REMARK    2  A    between atoms: C_3  and  C_4
REMARK    3  A    between atoms: C_11  and  C_13
REMARK                            x       y       z     vdW  Elec       q    Type
REMARK                         _______ _______ _______ _____ _____    ______ ____
ROOT
ATOM      1  C   UNL     1       2.690   4.144  17.849  0.00  0.00    +0.000 C 
ATOM      2  C   UNL     1       2.895   2.816  18.627  0.00  0.00    +0.000 C 
ATOM      3  O   UNL     1       3.743   2.956  19.773  0.00  0.00    +0.000 OA
ATOM      4  C   UNL     1       5.080   3.316  19.414  0.00  0.00    +0.000 C 
ATOM      5  C   UNL     1       5.069   4.724  18.829  0.00  0.00    +0.000 C 
ATOM      6  C   UNL     1       6.373   5.097  18.103  0.00  0.00    +0.000 C 
ATOM      7  N   UNL     1       6.148   4.702  16.713  0.00  0.00    +0.000 N 
ATOM      8  C   UNL     1       6.913   5.185  15.660  0.00  0.00    +0.000 C 
ATOM      9  O   UNL     1       7.812   6.007  15.788  0.00  0.00    +0.000 OA
ATOM     10  C   UNL     1       4.784   4.256  16.528  0.00  0.00    +0.000 C 
ATOM     11  C   UNL     1       4.032   4.860  17.702  0.00  0.00    +0.000 C 
ENDROOT
BRANCH   8  12
ATOM     12  C   UNL     1       6.585   4.663  14.310  0.00  0.00    +0.000 A 
ATOM     13  C   UNL     1       5.410   3.955  14.071  0.00  0.00    +0.000 A 
ATOM     14  C   UNL     1       5.192   3.419  12.801  0.00  0.00    +0.000 A 
ATOM     15  C   UNL     1       6.159   3.610  11.823  0.00  0.00    +0.000 A 
ATOM     16  N   UNL     1       7.302   4.301  12.022  0.00  0.00    +0.000 NA
ATOM     17  C   UNL     1       7.477   4.829  13.256  0.00  0.00    +0.000 A 
ENDBRANCH   8  12
BRANCH   1  18
ATOM     18  C   UNL     1       1.563   4.995  18.461  0.00  0.00    +0.000 C 
BRANCH  18  20
ATOM     19  O   UNL     1       1.638   5.411  20.823  0.00  0.00    +0.000 OA
ATOM     20  C   UNL     1       1.772   5.887  19.693  0.00  0.00    +0.000 C 
ATOM     21  N   UNL     1       1.884   7.260  19.514  0.00  0.00    +0.000 N 
ATOM     22  C   UNL     1       2.437   7.964  18.353  0.00  0.00    +0.000 C 
ATOM     23  C   UNL     1       1.536   9.141  17.955  0.00  0.00    +0.000 C 
ATOM     24  O   UNL     1       1.300  10.022  19.067  0.00  0.00    +0.000 OA
ATOM     25  C   UNL     1       0.701   9.315  20.166  0.00  0.00    +0.000 C 
ATOM     26  C   UNL     1       1.602   8.167  20.639  0.00  0.00    +0.000 C 
ENDBRANCH  18  20
ENDBRANCH   1  18
TORSDOF 3
ENDMDL
MODEL 5
REMARK VINA RESULT:      -7.2      1.992      3.373
REMARK  Name = 
REMARK  3 active torsions:
REMARK  status: ('A' for Active; 'I' for Inactive)
REMARK    1  A    between atoms: C_2  and  C_3
REMARK    2  A    between atoms: C_3  and  C_4
REMARK    3  A    between atoms: C_11  and  C_13
REMARK                            x       y       z     vdW  Elec       q    Type
REMARK                         _______ _______ _______ _____ _____    ______ ____
ROOT
ATOM      1  C   UNL     1       3.669   4.025  17.138  0.00  0.00    +0.000 C 
ATOM      2  C   UNL     1       4.360   3.151  18.220  0.00  0.00    +0.000 C 
ATOM      3  O   UNL     1       5.359   3.856  18.966  0.00  0.00    +0.000 OA
ATOM      4  C   UNL     1       6.458   4.264  18.145  0.00  0.00    +0.000 C 
ATOM      5  C   UNL     1       5.968   5.317  17.156  0.00  0.00    +0.000 C 
ATOM      6  C   UNL     1       6.959   5.590  16.011  0.00  0.00    +0.000 C 
ATOM      7  N   UNL     1       6.564   4.660  14.953  0.00  0.00    +0.000 N 
ATOM      8  C   UNL     1       6.950   4.819  13.629  0.00  0.00    +0.000 C 
ATOM      9  O   UNL     1       7.616   5.761  13.218  0.00  0.00    +0.000 OA
ATOM     10  C   UNL     1       5.351   3.961  15.319  0.00  0.00    +0.000 C 
ATOM     11  C   UNL     1       4.725   4.838  16.390  0.00  0.00    +0.000 C 
ENDROOT
BRANCH   8  12
ATOM     12  C   UNL     1       6.499   3.772  12.678  0.00  0.00    +0.000 A 
ATOM     13  C   UNL     1       5.153   3.611  12.360  0.00  0.00    +0.000 A 
ATOM     14  C   UNL     1       4.779   2.560  11.522  0.00  0.00    +0.000 A 
ATOM     15  C   UNL     1       5.765   1.709  11.040  0.00  0.00    +0.000 A 
ATOM     16  N   UNL     1       7.079   1.847  11.322  0.00  0.00    +0.000 NA
ATOM     17  C   UNL     1       7.416   2.888  12.118  0.00  0.00    +0.000 A 
ENDBRANCH   8  12
BRANCH   1  18
ATOM     18  C   UNL     1       2.511   4.849  17.727  0.00  0.00    +0.000 C 
BRANCH  18  20
ATOM     19  O   UNL     1       2.609   5.014  20.120  0.00  0.00    +0.000 OA
ATOM     20  C   UNL     1       2.631   5.624  19.047  0.00  0.00    +0.000 C 
ATOM     21  N   UNL     1       2.535   7.009  19.021  0.00  0.00    +0.000 N 
ATOM     22  C   UNL     1       2.937   7.909  17.936  0.00  0.00    +0.000 C 
ATOM     23  C   UNL     1       1.860   8.975  17.690  0.00  0.00    +0.000 C 
ATOM     24  O   UNL     1       1.537   9.685  18.898  0.00  0.00    +0.000 OA
ATOM     25  C   UNL     1       1.087   8.782  19.922  0.00  0.00    +0.000 C 
ATOM     26  C   UNL     1       2.163   7.738  20.246  0.00  0.00    +0.000 C 
ENDBRANCH  18  20
ENDBRANCH   1  18
TORSDOF 3
ENDMDL
MODEL 6
REMARK VINA RESULT:      -7.0      1.711      2.876
REMARK  Name = 
REMARK  3 active torsions:
REMARK  status: ('A' for Active; 'I' for Inactive)
REMARK    1  A    between atoms: C_2  and  C_3
REMARK    2  A    between atoms: C_3  and  C_4
REMARK    3  A    between atoms: C_11  and  C_13
REMARK                            x       y       z     vdW  Elec       q    Type
REMARK                         _______ _______ _______ _____ _____    ______ ____
ROOT
ATOM      1  C   UNL     1       2.927   4.144  17.610  0.00  0.00    +0.000 C 
ATOM      2  C   UNL     1       3.278   3.003  18.604  0.00  0.00    +0.000 C 
ATOM      3  O   UNL     1       4.250   3.385  19.584  0.00  0.00    +0.000 OA
ATOM      4  C   UNL     1       5.519   3.688  18.996  0.00  0.00    +0.000 C 
ATOM      5  C   UNL     1       5.379   4.949  18.150  0.00  0.00    +0.000 C 
ATOM      6  C   UNL     1       6.572   5.190  17.208  0.00  0.00    +0.000 C 
ATOM      7  N   UNL     1       6.199   4.520  15.963  0.00  0.00    +0.000 N 
ATOM      8  C   UNL     1       6.812   4.793  14.748  0.00  0.00    +0.000 C 
ATOM      9  O   UNL     1       7.685   5.639  14.597  0.00  0.00    +0.000 OA
ATOM     10  C   UNL     1       4.842   4.022  16.041  0.00  0.00    +0.000 C 
ATOM     11  C   UNL     1       4.211   4.837  17.157  0.00  0.00    +0.000 C 
ENDROOT
BRANCH   8  12
ATOM     12  C   UNL     1       6.347   4.005  13.579  0.00  0.00    +0.000 A 
ATOM     13  C   UNL     1       7.248   3.413  12.698  0.00  0.00    +0.000 A 
ATOM     14  C   UNL     1       6.756   2.750  11.574  0.00  0.00    +0.000 A 
ATOM     15  C   UNL     1       5.382   2.711  11.372  0.00  0.00    +0.000 A 
ATOM     16  N   UNL     1       4.484   3.266  12.215  0.00  0.00    +0.000 NA
ATOM     17  C   UNL     1       4.988   3.882  13.309  0.00  0.00    +0.000 A 
ENDBRANCH   8  12
BRANCH   1  18
ATOM     18  C   UNL     1       1.846   5.080  18.177  0.00  0.00    +0.000 C 
BRANCH  18  20
ATOM     19  O   UNL     1       2.006   5.441  20.545  0.00  0.00    +0.000 OA
ATOM     20  C   UNL     1       2.072   5.949  19.423  0.00  0.00    +0.000 C 
ATOM     21  N   UNL     1       2.122   7.330  19.276  0.00  0.00    +0.000 N 
ATOM     22  C   UNL     1       2.596   8.084  18.112  0.00  0.00    +0.000 C 
ATOM     23  C   UNL     1       1.633   9.234  17.783  0.00  0.00    +0.000 C 
ATOM     24  O   UNL     1       1.410  10.076  18.927  0.00  0.00    +0.000 OA
ATOM     25  C   UNL     1       0.887   9.318  20.031  0.00  0.00    +0.000 C 
ATOM     26  C   UNL     1       1.853   8.197  20.436  0.00  0.00    +0.000 C 
ENDBRANCH  18  20
ENDBRANCH   1  18
TORSDOF 3
ENDMDL
MODEL 7
REMARK VINA RESULT:      -7.0      1.131      1.492
REMARK  Name = 
REMARK  3 active torsions:
REMARK  status: ('A' for Active; 'I' for Inactive)
REMARK    1  A    between atoms: C_2  and  C_3
REMARK    2  A    between atoms: C_3  and  C_4
REMARK    3  A    between atoms: C_11  and  C_13
REMARK                            x       y       z     vdW  Elec       q    Type
REMARK                         _______ _______ _______ _____ _____    ______ ____
ROOT
ATOM      1  C   UNL     1       2.559   6.156  17.575  0.00  0.00    +0.000 C 
ATOM      2  C   UNL     1       1.661   4.931  17.900  0.00  0.00    +0.000 C 
ATOM      3  O   UNL     1       1.981   4.311  19.151  0.00  0.00    +0.000 OA
ATOM      4  C   UNL     1       3.295   3.744  19.152  0.00  0.00    +0.000 C 
ATOM      5  C   UNL     1       4.317   4.873  19.064  0.00  0.00    +0.000 C 
ATOM      6  C   UNL     1       5.737   4.388  18.723  0.00  0.00    +0.000 C 
ATOM      7  N   UNL     1       5.804   4.443  17.263  0.00  0.00    +0.000 N 
ATOM      8  C   UNL     1       7.003   4.443  16.564  0.00  0.00    +0.000 C 
ATOM      9  O   UNL     1       8.106   4.436  17.097  0.00  0.00    +0.000 OA
ATOM     10  C   UNL     1       4.602   5.042  16.722  0.00  0.00    +0.000 C 
ATOM     11  C   UNL     1       4.015   5.817  17.889  0.00  0.00    +0.000 C 
ENDROOT
BRANCH   8  12
ATOM     12  C   UNL     1       6.907   4.466  15.083  0.00  0.00    +0.000 A 
ATOM     13  C   UNL     1       6.099   3.565  14.393  0.00  0.00    +0.000 A 
ATOM     14  C   UNL     1       6.108   3.582  12.999  0.00  0.00    +0.000 A 
ATOM     15  C   UNL     1       6.929   4.495  12.349  0.00  0.00    +0.000 A 
ATOM     16  N   UNL     1       7.714   5.388  12.990  0.00  0.00    +0.000 NA
ATOM     17  C   UNL     1       7.668   5.365  14.343  0.00  0.00    +0.000 A 
ENDBRANCH   8  12
BRANCH   1  18
ATOM     18  C   UNL     1       2.032   7.440  18.237  0.00  0.00    +0.000 C 
BRANCH  18  20
ATOM     19  O   UNL     1       2.556   6.805  20.491  0.00  0.00    +0.000 OA
ATOM     20  C   UNL     1       2.066   7.665  19.755  0.00  0.00    +0.000 C 
ATOM     21  N   UNL     1       1.344   8.724  20.292  0.00  0.00    +0.000 N 
ATOM     22  C   UNL     1       1.046  10.011  19.655  0.00  0.00    +0.000 C 
ATOM     23  C   UNL     1      -0.424  10.396  19.876  0.00  0.00    +0.000 C 
ATOM     24  O   UNL     1      -0.766  10.384  21.272  0.00  0.00    +0.000 OA
ATOM     25  C   UNL     1      -0.522   9.092  21.852  0.00  0.00    +0.000 C 
ATOM     26  C   UNL     1       0.954   8.696  21.711  0.00  0.00    +0.000 C 
ENDBRANCH  18  20
ENDBRANCH   1  18
TORSDOF 3
ENDMDL
MODEL 8
REMARK VINA RESULT:      -6.8      1.233      2.009
REMARK  Name = 
REMARK  3 active torsions:
REMARK  status: ('A' for Active; 'I' for Inactive)
REMARK    1  A    between atoms: C_2  and  C_3
REMARK    2  A    between atoms: C_3  and  C_4
REMARK    3  A    between atoms: C_11  and  C_13
REMARK                            x       y       z     vdW  Elec       q    Type
REMARK                         _______ _______ _______ _____ _____    ______ ____
ROOT
ATOM      1  C   UNL     1       2.311   4.763  17.733  0.00  0.00    +0.000 C 
ATOM      2  C   UNL     1       1.869   3.322  18.108  0.00  0.00    +0.000 C 
ATOM      3  O   UNL     1       2.412   2.871  19.355  0.00  0.00    +0.000 OA
ATOM      4  C   UNL     1       3.838   2.760  19.314  0.00  0.00    +0.000 C 
ATOM      5  C   UNL     1       4.435   4.156  19.172  0.00  0.00    +0.000 C 
ATOM      6  C   UNL     1       5.924   4.150  18.784  0.00  0.00    +0.000 C 
ATOM      7  N   UNL     1       5.924   4.187  17.322  0.00  0.00    +0.000 N 
ATOM      8  C   UNL     1       7.036   4.558  16.579  0.00  0.00    +0.000 C 
ATOM      9  O   UNL     1       8.097   4.922  17.070  0.00  0.00    +0.000 OA
ATOM     10  C   UNL     1       4.577   4.351  16.819  0.00  0.00    +0.000 C 
ATOM     11  C   UNL     1       3.807   4.923  17.997  0.00  0.00    +0.000 C 
ENDROOT
BRANCH   8  12
ATOM     12  C   UNL     1       6.891   4.512  15.102  0.00  0.00    +0.000 A 
ATOM     13  C   UNL     1       6.049   3.592  14.484  0.00  0.00    +0.000 A 
ATOM     14  C   UNL     1       6.012   3.541  13.090  0.00  0.00    +0.000 A 
ATOM     15  C   UNL     1       6.823   4.410  12.371  0.00  0.00    +0.000 A 
ATOM     16  N   UNL     1       7.641   5.321  12.943  0.00  0.00    +0.000 NA
ATOM     17  C   UNL     1       7.639   5.363  14.295  0.00  0.00    +0.000 A 
ENDBRANCH   8  12
BRANCH   1  18
ATOM     18  C   UNL     1       1.415   5.824  18.397  0.00  0.00    +0.000 C 
BRANCH  18  20
ATOM     19  O   UNL     1       1.897   5.757  20.748  0.00  0.00    +0.000 OA
ATOM     20  C   UNL     1       1.756   6.468  19.749  0.00  0.00    +0.000 C 
ATOM     21  N   UNL     1       1.675   7.849  19.872  0.00  0.00    +0.000 N 
ATOM     22  C   UNL     1       1.910   8.851  18.828  0.00  0.00    +0.000 C 
ATOM     23  C   UNL     1       0.821   9.933  18.862  0.00  0.00    +0.000 C 
ATOM     24  O   UNL     1       0.706  10.522  20.169  0.00  0.00    +0.000 OA
ATOM     25  C   UNL     1       0.414   9.523  21.160  0.00  0.00    +0.000 C 
ATOM     26  C   UNL     1       1.514   8.455  21.205  0.00  0.00    +0.000 C 
ENDBRANCH  18  20
ENDBRANCH   1  18
TORSDOF 3
ENDMDL
MODEL 9
REMARK VINA RESULT:      -6.8      4.117      8.722
REMARK  Name = 
REMARK  3 active torsions:
REMARK  status: ('A' for Active; 'I' for Inactive)
REMARK    1  A    between atoms: C_2  and  C_3
REMARK    2  A    between atoms: C_3  and  C_4
REMARK    3  A    between atoms: C_11  and  C_13
REMARK                            x       y       z     vdW  Elec       q    Type
REMARK                         _______ _______ _______ _____ _____    ______ ____
ROOT
ATOM      1  C   UNL     1       1.343   9.255  21.396  0.00  0.00    +0.000 C 
ATOM      2  C   UNL     1       1.126   9.385  22.928  0.00  0.00    +0.000 C 
ATOM      3  O   UNL     1      -0.253   9.508  23.296  0.00  0.00    +0.000 OA
ATOM      4  C   UNL     1      -0.840  10.713  22.795  0.00  0.00    +0.000 C 
ATOM      5  C   UNL     1      -0.902  10.633  21.273  0.00  0.00    +0.000 C 
ATOM      6  C   UNL     1      -1.198  11.984  20.600  0.00  0.00    +0.000 C 
ATOM      7  N   UNL     1       0.120  12.565  20.344  0.00  0.00    +0.000 N 
ATOM      8  C   UNL     1       0.325  13.594  19.436  0.00  0.00    +0.000 C 
ATOM      9  O   UNL     1      -0.558  14.081  18.741  0.00  0.00    +0.000 OA
ATOM     10  C   UNL     1       1.164  11.622  20.683  0.00  0.00    +0.000 C 
ATOM     11  C   UNL     1       0.466  10.273  20.669  0.00  0.00    +0.000 C 
ENDROOT
BRANCH   8  12
ATOM     12  C   UNL     1       1.715  14.102  19.313  0.00  0.00    +0.000 A 
ATOM     13  C   UNL     1       2.514  13.774  18.221  0.00  0.00    +0.000 A 
ATOM     14  C   UNL     1       3.838  14.214  18.197  0.00  0.00    +0.000 A 
ATOM     15  C   UNL     1       4.311  14.960  19.270  0.00  0.00    +0.000 A 
ATOM     16  N   UNL     1       3.557  15.302  20.337  0.00  0.00    +0.000 NA
ATOM     17  C   UNL     1       2.270  14.881  20.322  0.00  0.00    +0.000 A 
ENDBRANCH   8  12
BRANCH   1  18
ATOM     18  C   UNL     1       1.185   7.801  20.919  0.00  0.00    +0.000 C 
BRANCH  18  20
ATOM     19  O   UNL     1       2.519   7.921  18.928  0.00  0.00    +0.000 OA
ATOM     20  C   UNL     1       2.053   7.194  19.808  0.00  0.00    +0.000 C 
ATOM     21  N   UNL     1       2.112   5.811  19.685  0.00  0.00    +0.000 N 
ATOM     22  C   UNL     1       1.995   4.816  20.755  0.00  0.00    +0.000 C 
ATOM     23  C   UNL     1       1.071   3.667  20.328  0.00  0.00    +0.000 C 
ATOM     24  O   UNL     1       1.498   3.085  19.084  0.00  0.00    +0.000 OA
ATOM     25  C   UNL     1       1.543   4.072  18.041  0.00  0.00    +0.000 C 
ATOM     26  C   UNL     1       2.508   5.209  18.401  0.00  0.00    +0.000 C 
ENDBRANCH  18  20
ENDBRANCH   1  18
TORSDOF 3
ENDMDL
