MODEL 1
REMARK VINA RESULT:      -8.1      0.000      0.000
REMARK  Name = 
REMARK  6 active torsions:
REMARK  status: ('A' for Active; 'I' for Inactive)
REMARK    1  A    between atoms: C_1  and  C_2
REMARK    2  A    between atoms: C_2  and  O_3
REMARK    3  A    between atoms: O_3  and  C_4
REMARK    4  A    between atoms: C_14  and  C_15
REMARK    5  A    between atoms: C_16  and  C_17
REMARK    6  A    between atoms: C_17  and  C_18
REMARK                            x       y       z     vdW  Elec       q    Type
REMARK                         _______ _______ _______ _____ _____    ______ ____
ROOT
ATOM      1  C   UNL     1       2.393   5.786  20.046  0.00  0.00    +0.000 A 
ATOM      2  N   UNL     1       1.854   6.693  20.854  0.00  0.00    +0.000 NA
ATOM      3  N   UNL     1       1.740   7.809  20.089  0.00  0.00    +0.000 N 
ATOM      4  C   UNL     1       0.965   8.917  20.568  0.00  0.00    +0.000 A 
ATOM      5  C   UNL     1       0.513   8.906  21.893  0.00  0.00    +0.000 A 
ATOM      6  C   UNL     1      -0.325   9.933  22.336  0.00  0.00    +0.000 A 
ATOM      7  C   UNL     1      -0.693  10.934  21.448  0.00  0.00    +0.000 A 
ATOM      8 CL   UNL     1      -1.759  12.187  21.929  0.00  0.00    +0.000 Cl
ATOM      9  C   UNL     1      -0.187  10.889  20.161  0.00  0.00    +0.000 A 
ATOM     10  N   UNL     1       0.632   9.912  19.705  0.00  0.00    +0.000 NA
ATOM     11  C   UNL     1       2.389   7.651  18.869  0.00  0.00    +0.000 A 
ATOM     12  C   UNL     1       2.582   8.719  17.854  0.00  0.00    +0.000 C 
ATOM     13  C   UNL     1       2.795   6.315  18.802  0.00  0.00    +0.000 A 
ENDROOT
BRANCH   1  14
ATOM     14  O   UNL     1       2.546   4.513  20.484  0.00  0.00    +0.000 OA
BRANCH  14  16
ATOM     15  C   UNL     1       1.526   2.621  21.594  0.00  0.00    +0.000 C 
ATOM     16  C   UNL     1       1.296   3.863  20.754  0.00  0.00    +0.000 C 
ENDBRANCH  14  16
ENDBRANCH   1  14
BRANCH  13  17
ATOM     17  C   UNL     1       3.536   5.646  17.702  0.00  0.00    +0.000 C 
BRANCH  17  18
ATOM     18  C   UNL     1       5.017   5.889  17.902  0.00  0.00    +0.000 A 
ATOM     19  C   UNL     1       5.708   6.818  17.108  0.00  0.00    +0.000 A 
ATOM     20  C   UNL     1       7.049   7.118  17.359  0.00  0.00    +0.000 A 
ATOM     21  C   UNL     1       7.722   6.490  18.405  0.00  0.00    +0.000 A 
ATOM     22  C   UNL     1       7.057   5.555  19.193  0.00  0.00    +0.000 A 
ATOM     23  C   UNL     1       5.712   5.259  18.947  0.00  0.00    +0.000 A 
ENDBRANCH  17  18
ENDBRANCH  13  17
TORSDOF 4
ENDMDL
MODEL 2
REMARK VINA RESULT:      -8.0      0.439      1.149
REMARK  Name = 
REMARK  6 active torsions:
REMARK  status: ('A' for Active; 'I' for Inactive)
REMARK    1  A    between atoms: C_1  and  C_2
REMARK    2  A    between atoms: C_2  and  O_3
REMARK    3  A    between atoms: O_3  and  C_4
REMARK    4  A    between atoms: C_14  and  C_15
REMARK    5  A    between atoms: C_16  and  C_17
REMARK    6  A    between atoms: C_17  and  C_18
REMARK                            x       y       z     vdW  Elec       q    Type
REMARK                         _______ _______ _______ _____ _____    ______ ____
ROOT
ATOM      1  C   UNL     1       2.168   5.828  20.162  0.00  0.00    +0.000 A 
ATOM      2  N   UNL     1       1.643   6.738  20.976  0.00  0.00    +0.000 NA
ATOM      3  N   UNL     1       1.573   7.868  20.226  0.00  0.00    +0.000 N 
ATOM      4  C   UNL     1       0.822   8.992  20.711  0.00  0.00    +0.000 A 
ATOM      5  C   UNL     1       0.351   8.973  22.029  0.00  0.00    +0.000 A 
ATOM      6  C   UNL     1      -0.464  10.018  22.474  0.00  0.00    +0.000 A 
ATOM      7  C   UNL     1      -0.790  11.042  21.597  0.00  0.00    +0.000 A 
ATOM      8 CL   UNL     1      -1.827  12.318  22.080  0.00  0.00    +0.000 Cl
ATOM      9  C   UNL     1      -0.266  11.001  20.317  0.00  0.00    +0.000 A 
ATOM     10  N   UNL     1       0.532  10.008  19.858  0.00  0.00    +0.000 NA
ATOM     11  C   UNL     1       2.236   7.710  19.013  0.00  0.00    +0.000 A 
ATOM     12  C   UNL     1       2.474   8.787  18.018  0.00  0.00    +0.000 C 
ATOM     13  C   UNL     1       2.604   6.364  18.933  0.00  0.00    +0.000 A 
ENDROOT
BRANCH   1  14
ATOM     14  O   UNL     1       2.278   4.545  20.582  0.00  0.00    +0.000 OA
BRANCH  14  16
ATOM     15  C   UNL     1       1.034   2.964  19.237  0.00  0.00    +0.000 C 
ATOM     16  C   UNL     1       1.042   3.821  20.490  0.00  0.00    +0.000 C 
ENDBRANCH  14  16
ENDBRANCH   1  14
BRANCH  13  17
ATOM     17  C   UNL     1       3.342   5.690  17.833  0.00  0.00    +0.000 C 
BRANCH  17  18
ATOM     18  C   UNL     1       4.823   5.946  18.021  0.00  0.00    +0.000 A 
ATOM     19  C   UNL     1       5.537   5.316  19.053  0.00  0.00    +0.000 A 
ATOM     20  C   UNL     1       6.921   5.471  19.163  0.00  0.00    +0.000 A 
ATOM     21  C   UNL     1       7.612   6.261  18.247  0.00  0.00    +0.000 A 
ATOM     22  C   UNL     1       6.917   6.905  17.227  0.00  0.00    +0.000 A 
ATOM     23  C   UNL     1       5.533   6.745  17.111  0.00  0.00    +0.000 A 
ENDBRANCH  17  18
ENDBRANCH  13  17
TORSDOF 4
ENDMDL
MODEL 3
REMARK VINA RESULT:      -7.6      1.271      1.635
REMARK  Name = 
REMARK  6 active torsions:
REMARK  status: ('A' for Active; 'I' for Inactive)
REMARK    1  A    between atoms: C_1  and  C_2
REMARK    2  A    between atoms: C_2  and  O_3
REMARK    3  A    between atoms: O_3  and  C_4
REMARK    4  A    between atoms: C_14  and  C_15
REMARK    5  A    between atoms: C_16  and  C_17
REMARK    6  A    between atoms: C_17  and  C_18
REMARK                            x       y       z     vdW  Elec       q    Type
REMARK                         _______ _______ _______ _____ _____    ______ ____
ROOT
ATOM      1  C   UNL     1       2.435   4.929  19.780  0.00  0.00    +0.000 A 
ATOM      2  N   UNL     1       2.118   5.901  20.630  0.00  0.00    +0.000 NA
ATOM      3  N   UNL     1       2.070   7.022  19.866  0.00  0.00    +0.000 N 
ATOM      4  C   UNL     1       1.509   8.225  20.413  0.00  0.00    +0.000 A 
ATOM      5  C   UNL     1       1.214   8.275  21.780  0.00  0.00    +0.000 A 
ATOM      6  C   UNL     1       0.578   9.406  22.299  0.00  0.00    +0.000 A 
ATOM      7  C   UNL     1       0.249  10.448  21.443  0.00  0.00    +0.000 A 
ATOM      8 CL   UNL     1      -0.577  11.834  22.021  0.00  0.00    +0.000 Cl
ATOM      9  C   UNL     1       0.595  10.335  20.108  0.00  0.00    +0.000 A 
ATOM     10  N   UNL     1       1.218   9.256  19.577  0.00  0.00    +0.000 NA
ATOM     11  C   UNL     1       2.549   6.778  18.583  0.00  0.00    +0.000 A 
ATOM     12  C   UNL     1       2.766   7.811  17.537  0.00  0.00    +0.000 C 
ATOM     13  C   UNL     1       2.761   5.400  18.492  0.00  0.00    +0.000 A 
ENDROOT
BRANCH   1  14
ATOM     14  O   UNL     1       2.464   3.648  20.217  0.00  0.00    +0.000 OA
BRANCH  14  16
ATOM     15  C   UNL     1       0.769   2.410  19.013  0.00  0.00    +0.000 C 
ATOM     16  C   UNL     1       1.156   3.066  20.325  0.00  0.00    +0.000 C 
ENDBRANCH  14  16
ENDBRANCH   1  14
BRANCH  13  17
ATOM     17  C   UNL     1       3.275   4.636  17.325  0.00  0.00    +0.000 C 
BRANCH  17  18
ATOM     18  C   UNL     1       4.781   4.790  17.276  0.00  0.00    +0.000 A 
ATOM     19  C   UNL     1       5.567   4.534  18.411  0.00  0.00    +0.000 A 
ATOM     20  C   UNL     1       6.962   4.575  18.340  0.00  0.00    +0.000 A 
ATOM     21  C   UNL     1       7.592   4.877  17.134  0.00  0.00    +0.000 A 
ATOM     22  C   UNL     1       6.827   5.148  16.003  0.00  0.00    +0.000 A 
ATOM     23  C   UNL     1       5.431   5.100  16.072  0.00  0.00    +0.000 A 
ENDBRANCH  17  18
ENDBRANCH  13  17
TORSDOF 4
ENDMDL
MODEL 4
REMARK VINA RESULT:      -7.4      0.990      1.356
REMARK  Name = 
REMARK  6 active torsions:
REMARK  status: ('A' for Active; 'I' for Inactive)
REMARK    1  A    between atoms: C_1  and  C_2
REMARK    2  A    between atoms: C_2  and  O_3
REMARK    3  A    between atoms: O_3  and  C_4
REMARK    4  A    between atoms: C_14  and  C_15
REMARK    5  A    between atoms: C_16  and  C_17
REMARK    6  A    between atoms: C_17  and  C_18
REMARK                            x       y       z     vdW  Elec       q    Type
REMARK                         _______ _______ _______ _____ _____    ______ ____
ROOT
ATOM      1  C   UNL     1       1.956   5.280  19.966  0.00  0.00    +0.000 A 
ATOM      2  N   UNL     1       1.592   6.215  20.838  0.00  0.00    +0.000 NA
ATOM      3  N   UNL     1       1.736   7.385  20.165  0.00  0.00    +0.000 N 
ATOM      4  C   UNL     1       1.192   8.591  20.722  0.00  0.00    +0.000 A 
ATOM      5  C   UNL     1       0.707   8.573  22.035  0.00  0.00    +0.000 A 
ATOM      6  C   UNL     1       0.087   9.716  22.548  0.00  0.00    +0.000 A 
ATOM      7  C   UNL     1      -0.038  10.837  21.739  0.00  0.00    +0.000 A 
ATOM      8 CL   UNL     1      -0.836  12.244  22.305  0.00  0.00    +0.000 Cl
ATOM      9  C   UNL     1       0.487  10.785  20.460  0.00  0.00    +0.000 A 
ATOM     10  N   UNL     1       1.100   9.697  19.938  0.00  0.00    +0.000 NA
ATOM     11  C   UNL     1       2.376   7.189  18.945  0.00  0.00    +0.000 A 
ATOM     12  C   UNL     1       2.817   8.269  18.024  0.00  0.00    +0.000 C 
ATOM     13  C   UNL     1       2.498   5.808  18.776  0.00  0.00    +0.000 A 
ENDROOT
BRANCH   1  14
ATOM     14  O   UNL     1       1.828   3.974  20.300  0.00  0.00    +0.000 OA
BRANCH  14  16
ATOM     15  C   UNL     1       3.705   2.447  20.256  0.00  0.00    +0.000 C 
ATOM     16  C   UNL     1       2.941   3.482  21.061  0.00  0.00    +0.000 C 
ENDBRANCH  14  16
ENDBRANCH   1  14
BRANCH  13  17
ATOM     17  C   UNL     1       3.117   5.085  17.635  0.00  0.00    +0.000 C 
BRANCH  17  18
ATOM     18  C   UNL     1       4.606   5.362  17.642  0.00  0.00    +0.000 A 
ATOM     19  C   UNL     1       5.344   5.298  18.835  0.00  0.00    +0.000 A 
ATOM     20  C   UNL     1       6.733   5.452  18.827  0.00  0.00    +0.000 A 
ATOM     21  C   UNL     1       7.404   5.677  17.627  0.00  0.00    +0.000 A 
ATOM     22  C   UNL     1       6.686   5.758  16.437  0.00  0.00    +0.000 A 
ATOM     23  C   UNL     1       5.297   5.598  16.443  0.00  0.00    +0.000 A 
ENDBRANCH  17  18
ENDBRANCH  13  17
TORSDOF 4
ENDMDL
MODEL 5
REMARK VINA RESULT:      -7.3      1.803      2.653
REMARK  Name = 
REMARK  6 active torsions:
REMARK  status: ('A' for Active; 'I' for Inactive)
REMARK    1  A    between atoms: C_1  and  C_2
REMARK    2  A    between atoms: C_2  and  O_3
REMARK    3  A    between atoms: O_3  and  C_4
REMARK    4  A    between atoms: C_14  and  C_15
REMARK    5  A    between atoms: C_16  and  C_17
REMARK    6  A    between atoms: C_17  and  C_18
REMARK                            x       y       z     vdW  Elec       q    Type
REMARK                         _______ _______ _______ _____ _____    ______ ____
ROOT
ATOM      1  C   UNL     1       2.468   6.385  20.166  0.00  0.00    +0.000 A 
ATOM      2  N   UNL     1       1.942   7.212  21.064  0.00  0.00    +0.000 NA
ATOM      3  N   UNL     1       1.538   8.288  20.341  0.00  0.00    +0.000 N 
ATOM      4  C   UNL     1       0.696   9.276  20.955  0.00  0.00    +0.000 A 
ATOM      5  C   UNL     1       0.477   9.215  22.336  0.00  0.00    +0.000 A 
ATOM      6  C   UNL     1      -0.420  10.112  22.924  0.00  0.00    +0.000 A 
ATOM      7  C   UNL     1      -1.075  11.035  22.121  0.00  0.00    +0.000 A 
ATOM      8 CL   UNL     1      -2.221  12.122  22.786  0.00  0.00    +0.000 Cl
ATOM      9  C   UNL     1      -0.787  11.048  20.767  0.00  0.00    +0.000 A 
ATOM     10  N   UNL     1       0.082  10.198  20.170  0.00  0.00    +0.000 NA
ATOM     11  C   UNL     1       1.993   8.213  19.028  0.00  0.00    +0.000 A 
ATOM     12  C   UNL     1       1.853   9.285  18.008  0.00  0.00    +0.000 C 
ATOM     13  C   UNL     1       2.576   6.952  18.880  0.00  0.00    +0.000 A 
ENDROOT
BRANCH   1  14
ATOM     14  O   UNL     1       2.879   5.155  20.558  0.00  0.00    +0.000 OA
BRANCH  14  16
ATOM     15  C   UNL     1       2.331   2.994  21.499  0.00  0.00    +0.000 C 
ATOM     16  C   UNL     1       1.840   4.398  21.196  0.00  0.00    +0.000 C 
ENDBRANCH  14  16
ENDBRANCH   1  14
BRANCH  13  17
ATOM     17  C   UNL     1       3.216   6.385  17.665  0.00  0.00    +0.000 C 
BRANCH  17  18
ATOM     18  C   UNL     1       2.978   4.890  17.649  0.00  0.00    +0.000 A 
ATOM     19  C   UNL     1       4.055   3.990  17.704  0.00  0.00    +0.000 A 
ATOM     20  C   UNL     1       3.833   2.613  17.794  0.00  0.00    +0.000 A 
ATOM     21  C   UNL     1       2.532   2.115  17.825  0.00  0.00    +0.000 A 
ATOM     22  C   UNL     1       1.454   2.992  17.756  0.00  0.00    +0.000 A 
ATOM     23  C   UNL     1       1.674   4.371  17.673  0.00  0.00    +0.000 A 
ENDBRANCH  17  18
ENDBRANCH  13  17
TORSDOF 4
ENDMDL
MODEL 6
REMARK VINA RESULT:      -7.1      3.508      7.202
REMARK  Name = 
REMARK  6 active torsions:
REMARK  status: ('A' for Active; 'I' for Inactive)
REMARK    1  A    between atoms: C_1  and  C_2
REMARK    2  A    between atoms: C_2  and  O_3
REMARK    3  A    between atoms: O_3  and  C_4
REMARK    4  A    between atoms: C_14  and  C_15
REMARK    5  A    between atoms: C_16  and  C_17
REMARK    6  A    between atoms: C_17  and  C_18
REMARK                            x       y       z     vdW  Elec       q    Type
REMARK                         _______ _______ _______ _____ _____    ______ ____
ROOT
ATOM      1  C   UNL     1       1.133   9.090  21.223  0.00  0.00    +0.000 A 
ATOM      2  N   UNL     1       1.288   7.774  21.318  0.00  0.00    +0.000 NA
ATOM      3  N   UNL     1       1.745   7.394  20.097  0.00  0.00    +0.000 N 
ATOM      4  C   UNL     1       2.261   6.067  19.917  0.00  0.00    +0.000 A 
ATOM      5  C   UNL     1       2.095   5.131  20.945  0.00  0.00    +0.000 A 
ATOM      6  C   UNL     1       2.681   3.868  20.816  0.00  0.00    +0.000 A 
ATOM      7  C   UNL     1       3.418   3.578  19.677  0.00  0.00    +0.000 A 
ATOM      8 CL   UNL     1       4.197   2.063  19.496  0.00  0.00    +0.000 Cl
ATOM      9  C   UNL     1       3.517   4.548  18.695  0.00  0.00    +0.000 A 
ATOM     10  N   UNL     1       2.955   5.777  18.786  0.00  0.00    +0.000 NA
ATOM     11  C   UNL     1       1.684   8.446  19.188  0.00  0.00    +0.000 A 
ATOM     12  C   UNL     1       1.972   8.341  17.733  0.00  0.00    +0.000 C 
ATOM     13  C   UNL     1       1.319   9.582  19.915  0.00  0.00    +0.000 A 
ENDROOT
BRANCH   1  14
ATOM     14  O   UNL     1       0.779   9.798  22.323  0.00  0.00    +0.000 OA
BRANCH  14  16
ATOM     15  C   UNL     1      -1.245  10.829  23.157  0.00  0.00    +0.000 C 
ATOM     16  C   UNL     1      -0.568   9.536  22.744  0.00  0.00    +0.000 C 
ENDBRANCH  14  16
ENDBRANCH   1  14
BRANCH  13  17
ATOM     17  C   UNL     1       1.112  10.960  19.401  0.00  0.00    +0.000 C 
BRANCH  17  18
ATOM     18  C   UNL     1      -0.372  11.179  19.194  0.00  0.00    +0.000 A 
ATOM     19  C   UNL     1      -1.054  12.188  19.892  0.00  0.00    +0.000 A 
ATOM     20  C   UNL     1      -2.399  12.458  19.626  0.00  0.00    +0.000 A 
ATOM     21  C   UNL     1      -3.083  11.721  18.663  0.00  0.00    +0.000 A 
ATOM     22  C   UNL     1      -2.426  10.706  17.972  0.00  0.00    +0.000 A 
ATOM     23  C   UNL     1      -1.078  10.440  18.232  0.00  0.00    +0.000 A 
ENDBRANCH  17  18
ENDBRANCH  13  17
TORSDOF 4
ENDMDL
MODEL 7
REMARK VINA RESULT:      -7.1      3.486      7.212
REMARK  Name = 
REMARK  6 active torsions:
REMARK  status: ('A' for Active; 'I' for Inactive)
REMARK    1  A    between atoms: C_1  and  C_2
REMARK    2  A    between atoms: C_2  and  O_3
REMARK    3  A    between atoms: O_3  and  C_4
REMARK    4  A    between atoms: C_14  and  C_15
REMARK    5  A    between atoms: C_16  and  C_17
REMARK    6  A    between atoms: C_17  and  C_18
REMARK                            x       y       z     vdW  Elec       q    Type
REMARK                         _______ _______ _______ _____ _____    ______ ____
ROOT
ATOM      1  C   UNL     1       1.102   9.317  21.179  0.00  0.00    +0.000 A 
ATOM      2  N   UNL     1       1.240   7.998  21.275  0.00  0.00    +0.000 NA
ATOM      3  N   UNL     1       1.696   7.613  20.055  0.00  0.00    +0.000 N 
ATOM      4  C   UNL     1       2.195   6.278  19.878  0.00  0.00    +0.000 A 
ATOM      5  C   UNL     1       2.013   5.345  20.904  0.00  0.00    +0.000 A 
ATOM      6  C   UNL     1       2.583   4.075  20.778  0.00  0.00    +0.000 A 
ATOM      7  C   UNL     1       3.320   3.775  19.641  0.00  0.00    +0.000 A 
ATOM      8 CL   UNL     1       4.081   2.250  19.463  0.00  0.00    +0.000 Cl
ATOM      9  C   UNL     1       3.435   4.743  18.660  0.00  0.00    +0.000 A 
ATOM     10  N   UNL     1       2.889   5.979  18.749  0.00  0.00    +0.000 NA
ATOM     11  C   UNL     1       1.652   8.665  19.146  0.00  0.00    +0.000 A 
ATOM     12  C   UNL     1       1.943   8.556  17.692  0.00  0.00    +0.000 C 
ATOM     13  C   UNL     1       1.299   9.805  19.872  0.00  0.00    +0.000 A 
ENDROOT
BRANCH   1  14
ATOM     14  O   UNL     1       0.753  10.029  22.278  0.00  0.00    +0.000 OA
BRANCH  14  16
ATOM     15  C   UNL     1      -1.323  10.914  23.150  0.00  0.00    +0.000 C 
ATOM     16  C   UNL     1      -0.537   9.666  22.790  0.00  0.00    +0.000 C 
ENDBRANCH  14  16
ENDBRANCH   1  14
BRANCH  13  17
ATOM     17  C   UNL     1       1.112  11.186  19.357  0.00  0.00    +0.000 C 
BRANCH  17  18
ATOM     18  C   UNL     1      -0.367  11.420  19.131  0.00  0.00    +0.000 A 
ATOM     19  C   UNL     1      -1.089  10.632  18.220  0.00  0.00    +0.000 A 
ATOM     20  C   UNL     1      -2.472  10.777  18.088  0.00  0.00    +0.000 A 
ATOM     21  C   UNL     1      -3.154  11.716  18.859  0.00  0.00    +0.000 A 
ATOM     22  C   UNL     1      -2.452  12.515  19.757  0.00  0.00    +0.000 A 
ATOM     23  C   UNL     1      -1.068  12.365  19.896  0.00  0.00    +0.000 A 
ENDBRANCH  17  18
ENDBRANCH  13  17
TORSDOF 4
ENDMDL
MODEL 8
REMARK VINA RESULT:      -7.0      1.777      2.572
REMARK  Name = 
REMARK  6 active torsions:
REMARK  status: ('A' for Active; 'I' for Inactive)
REMARK    1  A    between atoms: C_1  and  C_2
REMARK    2  A    between atoms: C_2  and  O_3
REMARK    3  A    between atoms: O_3  and  C_4
REMARK    4  A    between atoms: C_14  and  C_15
REMARK    5  A    between atoms: C_16  and  C_17
REMARK    6  A    between atoms: C_17  and  C_18
REMARK                            x       y       z     vdW  Elec       q    Type
REMARK                         _______ _______ _______ _____ _____    ______ ____
ROOT
ATOM      1  C   UNL     1       2.402   6.505  20.163  0.00  0.00    +0.000 A 
ATOM      2  N   UNL     1       1.875   7.362  21.032  0.00  0.00    +0.000 NA
ATOM      3  N   UNL     1       1.473   8.414  20.273  0.00  0.00    +0.000 N 
ATOM      4  C   UNL     1       0.631   9.422  20.854  0.00  0.00    +0.000 A 
ATOM      5  C   UNL     1       0.411   9.407  22.236  0.00  0.00    +0.000 A 
ATOM      6  C   UNL     1      -0.486  10.324  22.792  0.00  0.00    +0.000 A 
ATOM      7  C   UNL     1      -1.139  11.221  21.958  0.00  0.00    +0.000 A 
ATOM      8 CL   UNL     1      -2.285  12.330  22.585  0.00  0.00    +0.000 Cl
ATOM      9  C   UNL     1      -0.850  11.189  20.605  0.00  0.00    +0.000 A 
ATOM     10  N   UNL     1       0.018  10.319  20.037  0.00  0.00    +0.000 NA
ATOM     11  C   UNL     1       1.929   8.294  18.965  0.00  0.00    +0.000 A 
ATOM     12  C   UNL     1       1.791   9.332  17.909  0.00  0.00    +0.000 C 
ATOM     13  C   UNL     1       2.511   7.029  18.859  0.00  0.00    +0.000 A 
ENDROOT
BRANCH   1  14
ATOM     14  O   UNL     1       2.811   5.288  20.596  0.00  0.00    +0.000 OA
BRANCH  14  16
ATOM     15  C   UNL     1       2.240   3.102  21.462  0.00  0.00    +0.000 C 
ATOM     16  C   UNL     1       1.736   4.490  21.112  0.00  0.00    +0.000 C 
ENDBRANCH  14  16
ENDBRANCH   1  14
BRANCH  13  17
ATOM     17  C   UNL     1       3.152   6.422  17.664  0.00  0.00    +0.000 C 
BRANCH  17  18
ATOM     18  C   UNL     1       3.022   4.916  17.762  0.00  0.00    +0.000 A 
ATOM     19  C   UNL     1       1.768   4.293  17.654  0.00  0.00    +0.000 A 
ATOM     20  C   UNL     1       1.659   2.900  17.641  0.00  0.00    +0.000 A 
ATOM     21  C   UNL     1       2.801   2.109  17.740  0.00  0.00    +0.000 A 
ATOM     22  C   UNL     1       4.051   2.710  17.863  0.00  0.00    +0.000 A 
ATOM     23  C   UNL     1       4.162   4.104  17.869  0.00  0.00    +0.000 A 
ENDBRANCH  17  18
ENDBRANCH  13  17
TORSDOF 4
ENDMDL
MODEL 9
REMARK VINA RESULT:      -6.8      3.602      6.646
REMARK  Name = 
REMARK  6 active torsions:
REMARK  status: ('A' for Active; 'I' for Inactive)
REMARK    1  A    between atoms: C_1  and  C_2
REMARK    2  A    between atoms: C_2  and  O_3
REMARK    3  A    between atoms: O_3  and  C_4
REMARK    4  A    between atoms: C_14  and  C_15
REMARK    5  A    between atoms: C_16  and  C_17
REMARK    6  A    between atoms: C_17  and  C_18
REMARK                            x       y       z     vdW  Elec       q    Type
REMARK                         _______ _______ _______ _____ _____    ______ ____
ROOT
ATOM      1  C   UNL     1       0.884   9.751  21.407  0.00  0.00    +0.000 A 
ATOM      2  N   UNL     1       1.208   8.465  21.331  0.00  0.00    +0.000 NA
ATOM      3  N   UNL     1       1.508   8.264  20.022  0.00  0.00    +0.000 N 
ATOM      4  C   UNL     1       2.144   7.040  19.623  0.00  0.00    +0.000 A 
ATOM      5  C   UNL     1       2.255   6.000  20.553  0.00  0.00    +0.000 A 
ATOM      6  C   UNL     1       2.960   4.845  20.201  0.00  0.00    +0.000 A 
ATOM      7  C   UNL     1       3.537   4.763  18.942  0.00  0.00    +0.000 A 
ATOM      8 CL   UNL     1       4.453   3.390  18.483  0.00  0.00    +0.000 Cl
ATOM      9  C   UNL     1       3.363   5.824  18.070  0.00  0.00    +0.000 A 
ATOM     10  N   UNL     1       2.680   6.952  18.378  0.00  0.00    +0.000 NA
ATOM     11  C   UNL     1       1.180   9.377  19.254  0.00  0.00    +0.000 A 
ATOM     12  C   UNL     1       1.245   9.446  17.771  0.00  0.00    +0.000 C 
ATOM     13  C   UNL     1       0.801  10.381  20.148  0.00  0.00    +0.000 A 
ENDROOT
BRANCH   1  14
ATOM     14  O   UNL     1       0.626  10.301  22.618  0.00  0.00    +0.000 OA
BRANCH  14  16
ATOM     15  C   UNL     1      -1.503  11.367  23.048  0.00  0.00    +0.000 C 
ATOM     16  C   UNL     1      -0.719  10.068  23.060  0.00  0.00    +0.000 C 
ENDBRANCH  14  16
ENDBRANCH   1  14
BRANCH  13  17
ATOM     17  C   UNL     1       0.353  11.761  19.826  0.00  0.00    +0.000 C 
BRANCH  17  18
ATOM     18  C   UNL     1       1.576  12.645  19.697  0.00  0.00    +0.000 A 
ATOM     19  C   UNL     1       2.111  12.953  18.436  0.00  0.00    +0.000 A 
ATOM     20  C   UNL     1       3.174  13.850  18.309  0.00  0.00    +0.000 A 
ATOM     21  C   UNL     1       3.722  14.449  19.441  0.00  0.00    +0.000 A 
ATOM     22  C   UNL     1       3.213  14.144  20.700  0.00  0.00    +0.000 A 
ATOM     23  C   UNL     1       2.144  13.252  20.828  0.00  0.00    +0.000 A 
ENDBRANCH  17  18
ENDBRANCH  13  17
TORSDOF 4
ENDMDL
