MODEL 1
REMARK VINA RESULT:      -8.0      0.000      0.000
REMARK  Name = 
REMARK  9 active torsions:
REMARK  status: ('A' for Active; 'I' for Inactive)
REMARK    1  A    between atoms: C_1  and  C_2
REMARK    2  A    between atoms: C_6  and  C_7
REMARK    3  A    between atoms: C_7  and  C_8
REMARK    4  A    between atoms: C_7  and  C_9
REMARK    5  A    between atoms: C_10  and  O_11
REMARK    6  A    between atoms: O_11  and  C_12
REMARK    7  A    between atoms: C_12  and  C_14
REMARK    8  A    between atoms: N_16  and  C_17
REMARK    9  A    between atoms: C_24  and  C_25
REMARK                            x       y       z     vdW  Elec       q    Type
REMARK                         _______ _______ _______ _____ _____    ______ ____
ROOT
ATOM      1  C   UNL     1       5.734   4.591  17.108  0.00  0.00    +0.000 A 
ATOM      2  C   UNL     1       5.461   3.788  16.016  0.00  0.00    +0.000 A 
ATOM      3  N   UNL     1       6.171   4.267  14.947  0.00  0.00    +0.000 N 
ATOM      4  N   UNL     1       7.000   5.269  15.330  0.00  0.00    +0.000 NA
ATOM      5  C   UNL     1       6.722   5.475  16.629  0.00  0.00    +0.000 A 
ENDROOT
BRANCH   3   6
ATOM      6  C   UNL     1       6.042   3.859  13.589  0.00  0.00    +0.000 A 
ATOM      7  C   UNL     1       7.182   3.657  12.792  0.00  0.00    +0.000 A 
ATOM      8  C   UNL     1       7.054   3.200  11.480  0.00  0.00    +0.000 A 
ATOM      9  C   UNL     1       5.791   2.952  10.949  0.00  0.00    +0.000 A 
ATOM     10  C   UNL     1       4.655   3.162  11.730  0.00  0.00    +0.000 A 
ATOM     11  C   UNL     1       4.774   3.613  13.048  0.00  0.00    +0.000 A 
ENDBRANCH   3   6
BRANCH   5  12
ATOM     12  C   UNL     1       7.312   6.601  17.366  0.00  0.00    +0.000 A 
ATOM     13  C   UNL     1       7.984   6.403  18.614  0.00  0.00    +0.000 A 
ATOM     14  C   UNL     1       8.517   7.571  19.111  0.00  0.00    +0.000 A 
ATOM     15  S   UNL     1       8.179   8.909  18.103  0.00  0.00    +0.000 S 
ATOM     16  C   UNL     1       7.319   7.926  16.994  0.00  0.00    +0.000 A 
ENDBRANCH   5  12
BRANCH   1  17
ATOM     17  C   UNL     1       5.040   4.458  18.374  0.00  0.00    +0.000 C 
ATOM     18  O   UNL     1       5.559   4.209  19.451  0.00  0.00    +0.000 OA
BRANCH  17  19
ATOM     19  O   UNL     1       3.666   4.585  18.153  0.00  0.00    +0.000 OA
BRANCH  19  26
ATOM     20  C   UNL     1       3.527   7.532  17.605  0.00  0.00    +0.000 C 
ATOM     21  C   UNL     1       2.810   6.820  18.718  0.00  0.00    +0.000 A 
ATOM     22  C   UNL     1       2.129   7.611  19.652  0.00  0.00    +0.000 A 
ATOM     23  C   UNL     1       1.473   7.035  20.735  0.00  0.00    +0.000 A 
ATOM     24  C   UNL     1       1.453   5.650  20.882  0.00  0.00    +0.000 A 
ATOM     25  C   UNL     1       2.095   4.807  19.958  0.00  0.00    +0.000 A 
ATOM     26  C   UNL     1       2.785   5.418  18.887  0.00  0.00    +0.000 A 
BRANCH  25  27
ATOM     27  C   UNL     1       1.974   3.304  20.190  0.00  0.00    +0.000 C 
ATOM     28  C   UNL     1       1.873   2.952  21.675  0.00  0.00    +0.000 C 
ATOM     29  C   UNL     1       0.870   2.619  19.382  0.00  0.00    +0.000 C 
ENDBRANCH  25  27
ENDBRANCH  19  26
ENDBRANCH  17  19
ENDBRANCH   1  17
TORSDOF 6
ENDMDL
MODEL 2
REMARK VINA RESULT:      -8.0      3.707      8.273
REMARK  Name = 
REMARK  9 active torsions:
REMARK  status: ('A' for Active; 'I' for Inactive)
REMARK    1  A    between atoms: C_1  and  C_2
REMARK    2  A    between atoms: C_6  and  C_7
REMARK    3  A    between atoms: C_7  and  C_8
REMARK    4  A    between atoms: C_7  and  C_9
REMARK    5  A    between atoms: C_10  and  O_11
REMARK    6  A    between atoms: O_11  and  C_12
REMARK    7  A    between atoms: C_12  and  C_14
REMARK    8  A    between atoms: N_16  and  C_17
REMARK    9  A    between atoms: C_24  and  C_25
REMARK                            x       y       z     vdW  Elec       q    Type
REMARK                         _______ _______ _______ _____ _____    ______ ____
ROOT
ATOM      1  C   UNL     1       2.293   7.184  19.478  0.00  0.00    +0.000 A 
ATOM      2  C   UNL     1       1.911   8.488  19.735  0.00  0.00    +0.000 A 
ATOM      3  N   UNL     1       1.108   8.486  20.844  0.00  0.00    +0.000 N 
ATOM      4  N   UNL     1       1.059   7.252  21.401  0.00  0.00    +0.000 NA
ATOM      5  C   UNL     1       1.758   6.464  20.565  0.00  0.00    +0.000 A 
ENDROOT
BRANCH   3   6
ATOM      6  C   UNL     1       0.347   9.582  21.344  0.00  0.00    +0.000 A 
ATOM      7  C   UNL     1      -0.275   9.505  22.602  0.00  0.00    +0.000 A 
ATOM      8  C   UNL     1      -0.970  10.600  23.114  0.00  0.00    +0.000 A 
ATOM      9  C   UNL     1      -1.058  11.776  22.374  0.00  0.00    +0.000 A 
ATOM     10  C   UNL     1      -0.454  11.856  21.120  0.00  0.00    +0.000 A 
ATOM     11  C   UNL     1       0.250  10.765  20.602  0.00  0.00    +0.000 A 
ENDBRANCH   3   6
BRANCH   5  12
ATOM     12  C   UNL     1       1.801   5.007  20.749  0.00  0.00    +0.000 A 
ATOM     13  C   UNL     1       0.791   4.157  20.195  0.00  0.00    +0.000 A 
ATOM     14  C   UNL     1       1.045   2.824  20.428  0.00  0.00    +0.000 A 
ATOM     15  S   UNL     1       2.471   2.594  21.343  0.00  0.00    +0.000 S 
ATOM     16  C   UNL     1       2.755   4.282  21.427  0.00  0.00    +0.000 A 
ENDBRANCH   5  12
BRANCH   1  17
ATOM     17  C   UNL     1       3.030   6.799  18.290  0.00  0.00    +0.000 C 
ATOM     18  O   UNL     1       2.716   7.057  17.139  0.00  0.00    +0.000 OA
BRANCH  17  19
ATOM     19  O   UNL     1       4.124   6.016  18.671  0.00  0.00    +0.000 OA
BRANCH  19  26
ATOM     20  C   UNL     1       6.606   7.430  17.755  0.00  0.00    +0.000 C 
ATOM     21  C   UNL     1       6.134   6.091  17.257  0.00  0.00    +0.000 A 
ATOM     22  C   UNL     1       6.835   5.520  16.187  0.00  0.00    +0.000 A 
ATOM     23  C   UNL     1       6.440   4.305  15.640  0.00  0.00    +0.000 A 
ATOM     24  C   UNL     1       5.356   3.616  16.180  0.00  0.00    +0.000 A 
ATOM     25  C   UNL     1       4.635   4.129  17.272  0.00  0.00    +0.000 A 
ATOM     26  C   UNL     1       5.034   5.383  17.786  0.00  0.00    +0.000 A 
BRANCH  25  27
ATOM     27  C   UNL     1       3.493   3.274  17.813  0.00  0.00    +0.000 C 
ATOM     28  C   UNL     1       2.202   3.456  17.011  0.00  0.00    +0.000 C 
ATOM     29  C   UNL     1       3.831   1.792  17.989  0.00  0.00    +0.000 C 
ENDBRANCH  25  27
ENDBRANCH  19  26
ENDBRANCH  17  19
ENDBRANCH   1  17
TORSDOF 6
ENDMDL
MODEL 3
REMARK VINA RESULT:      -7.8      3.746      8.226
REMARK  Name = 
REMARK  9 active torsions:
REMARK  status: ('A' for Active; 'I' for Inactive)
REMARK    1  A    between atoms: C_1  and  C_2
REMARK    2  A    between atoms: C_6  and  C_7
REMARK    3  A    between atoms: C_7  and  C_8
REMARK    4  A    between atoms: C_7  and  C_9
REMARK    5  A    between atoms: C_10  and  O_11
REMARK    6  A    between atoms: O_11  and  C_12
REMARK    7  A    between atoms: C_12  and  C_14
REMARK    8  A    between atoms: N_16  and  C_17
REMARK    9  A    between atoms: C_24  and  C_25
REMARK                            x       y       z     vdW  Elec       q    Type
REMARK                         _______ _______ _______ _____ _____    ______ ____
ROOT
ATOM      1  C   UNL     1       2.341   7.182  19.453  0.00  0.00    +0.000 A 
ATOM      2  C   UNL     1       1.985   8.482  19.763  0.00  0.00    +0.000 A 
ATOM      3  N   UNL     1       1.161   8.448  20.856  0.00  0.00    +0.000 N 
ATOM      4  N   UNL     1       1.071   7.190  21.354  0.00  0.00    +0.000 NA
ATOM      5  C   UNL     1       1.768   6.425  20.495  0.00  0.00    +0.000 A 
ENDROOT
BRANCH   3   6
ATOM      6  C   UNL     1       0.416   9.537  21.393  0.00  0.00    +0.000 A 
ATOM      7  C   UNL     1       0.229  10.713  20.646  0.00  0.00    +0.000 A 
ATOM      8  C   UNL     1      -0.550  11.754  21.151  0.00  0.00    +0.000 A 
ATOM      9  C   UNL     1      -1.141  11.635  22.406  0.00  0.00    +0.000 A 
ATOM     10  C   UNL     1      -0.951  10.477  23.158  0.00  0.00    +0.000 A 
ATOM     11  C   UNL     1      -0.177   9.425  22.657  0.00  0.00    +0.000 A 
ENDBRANCH   3   6
BRANCH   5  12
ATOM     12  C   UNL     1       1.773   4.961  20.611  0.00  0.00    +0.000 A 
ATOM     13  C   UNL     1       2.835   4.271  21.278  0.00  0.00    +0.000 A 
ATOM     14  C   UNL     1       2.623   2.912  21.331  0.00  0.00    +0.000 A 
ATOM     15  S   UNL     1       1.172   2.459  20.548  0.00  0.00    +0.000 S 
ATOM     16  C   UNL     1       0.822   4.086  20.137  0.00  0.00    +0.000 A 
ENDBRANCH   5  12
BRANCH   1  17
ATOM     17  C   UNL     1       3.093   6.835  18.262  0.00  0.00    +0.000 C 
ATOM     18  O   UNL     1       2.795   7.133  17.117  0.00  0.00    +0.000 OA
BRANCH  17  19
ATOM     19  O   UNL     1       4.178   6.034  18.630  0.00  0.00    +0.000 OA
BRANCH  19  26
ATOM     20  C   UNL     1       6.659   7.429  17.682  0.00  0.00    +0.000 C 
ATOM     21  C   UNL     1       6.171   6.094  17.191  0.00  0.00    +0.000 A 
ATOM     22  C   UNL     1       6.855   5.517  16.114  0.00  0.00    +0.000 A 
ATOM     23  C   UNL     1       6.444   4.303  15.573  0.00  0.00    +0.000 A 
ATOM     24  C   UNL     1       5.362   3.623  16.127  0.00  0.00    +0.000 A 
ATOM     25  C   UNL     1       4.658   4.143  17.227  0.00  0.00    +0.000 A 
ATOM     26  C   UNL     1       5.072   5.394  17.735  0.00  0.00    +0.000 A 
BRANCH  25  27
ATOM     27  C   UNL     1       3.517   3.296  17.784  0.00  0.00    +0.000 C 
ATOM     28  C   UNL     1       2.220   3.480  16.993  0.00  0.00    +0.000 C 
ATOM     29  C   UNL     1       3.849   1.814  17.965  0.00  0.00    +0.000 C 
ENDBRANCH  25  27
ENDBRANCH  19  26
ENDBRANCH  17  19
ENDBRANCH   1  17
TORSDOF 6
ENDMDL
MODEL 4
REMARK VINA RESULT:      -7.6      1.176      2.660
REMARK  Name = 
REMARK  9 active torsions:
REMARK  status: ('A' for Active; 'I' for Inactive)
REMARK    1  A    between atoms: C_1  and  C_2
REMARK    2  A    between atoms: C_6  and  C_7
REMARK    3  A    between atoms: C_7  and  C_8
REMARK    4  A    between atoms: C_7  and  C_9
REMARK    5  A    between atoms: C_10  and  O_11
REMARK    6  A    between atoms: O_11  and  C_12
REMARK    7  A    between atoms: C_12  and  C_14
REMARK    8  A    between atoms: N_16  and  C_17
REMARK    9  A    between atoms: C_24  and  C_25
REMARK                            x       y       z     vdW  Elec       q    Type
REMARK                         _______ _______ _______ _____ _____    ______ ____
ROOT
ATOM      1  C   UNL     1       6.417   5.345  17.538  0.00  0.00    +0.000 A 
ATOM      2  C   UNL     1       6.202   4.486  16.475  0.00  0.00    +0.000 A 
ATOM      3  N   UNL     1       6.828   5.006  15.374  0.00  0.00    +0.000 N 
ATOM      4  N   UNL     1       7.555   6.101  15.706  0.00  0.00    +0.000 NA
ATOM      5  C   UNL     1       7.291   6.314  17.007  0.00  0.00    +0.000 A 
ENDROOT
BRANCH   3   6
ATOM      6  C   UNL     1       6.706   4.547  14.031  0.00  0.00    +0.000 A 
ATOM      7  C   UNL     1       7.644   4.930  13.057  0.00  0.00    +0.000 A 
ATOM      8  C   UNL     1       7.556   4.432  11.757  0.00  0.00    +0.000 A 
ATOM      9  C   UNL     1       6.529   3.557  11.416  0.00  0.00    +0.000 A 
ATOM     10  C   UNL     1       5.587   3.182  12.373  0.00  0.00    +0.000 A 
ATOM     11  C   UNL     1       5.672   3.671  13.680  0.00  0.00    +0.000 A 
ENDBRANCH   3   6
BRANCH   5  12
ATOM     12  C   UNL     1       7.777   7.517  17.695  0.00  0.00    +0.000 A 
ATOM     13  C   UNL     1       7.447   8.828  17.227  0.00  0.00    +0.000 A 
ATOM     14  C   UNL     1       7.949   9.817  18.042  0.00  0.00    +0.000 A 
ATOM     15  S   UNL     1       8.848   9.176  19.347  0.00  0.00    +0.000 S 
ATOM     16  C   UNL     1       8.565   7.568  18.824  0.00  0.00    +0.000 A 
ENDBRANCH   5  12
BRANCH   1  17
ATOM     17  C   UNL     1       5.775   5.176  18.827  0.00  0.00    +0.000 C 
ATOM     18  O   UNL     1       6.323   5.262  19.915  0.00  0.00    +0.000 OA
BRANCH  17  19
ATOM     19  O   UNL     1       4.438   4.821  18.625  0.00  0.00    +0.000 OA
BRANCH  19  26
ATOM     20  C   UNL     1       4.458   2.035  19.738  0.00  0.00    +0.000 C 
ATOM     21  C   UNL     1       3.447   3.097  20.072  0.00  0.00    +0.000 A 
ATOM     22  C   UNL     1       2.355   2.718  20.861  0.00  0.00    +0.000 A 
ATOM     23  C   UNL     1       1.354   3.629  21.182  0.00  0.00    +0.000 A 
ATOM     24  C   UNL     1       1.449   4.950  20.752  0.00  0.00    +0.000 A 
ATOM     25  C   UNL     1       2.538   5.392  19.982  0.00  0.00    +0.000 A 
ATOM     26  C   UNL     1       3.523   4.439  19.638  0.00  0.00    +0.000 A 
BRANCH  25  27
ATOM     27  C   UNL     1       2.566   6.869  19.599  0.00  0.00    +0.000 C 
ATOM     28  C   UNL     1       2.262   7.089  18.116  0.00  0.00    +0.000 C 
ATOM     29  C   UNL     1       1.703   7.773  20.482  0.00  0.00    +0.000 C 
ENDBRANCH  25  27
ENDBRANCH  19  26
ENDBRANCH  17  19
ENDBRANCH   1  17
TORSDOF 6
ENDMDL
MODEL 5
REMARK VINA RESULT:      -7.6      0.846      2.403
REMARK  Name = 
REMARK  9 active torsions:
REMARK  status: ('A' for Active; 'I' for Inactive)
REMARK    1  A    between atoms: C_1  and  C_2
REMARK    2  A    between atoms: C_6  and  C_7
REMARK    3  A    between atoms: C_7  and  C_8
REMARK    4  A    between atoms: C_7  and  C_9
REMARK    5  A    between atoms: C_10  and  O_11
REMARK    6  A    between atoms: O_11  and  C_12
REMARK    7  A    between atoms: C_12  and  C_14
REMARK    8  A    between atoms: N_16  and  C_17
REMARK    9  A    between atoms: C_24  and  C_25
REMARK                            x       y       z     vdW  Elec       q    Type
REMARK                         _______ _______ _______ _____ _____    ______ ____
ROOT
ATOM      1  C   UNL     1       6.024   4.848  17.208  0.00  0.00    +0.000 A 
ATOM      2  C   UNL     1       5.775   4.033  16.118  0.00  0.00    +0.000 A 
ATOM      3  N   UNL     1       6.437   4.553  15.038  0.00  0.00    +0.000 N 
ATOM      4  N   UNL     1       7.217   5.598  15.408  0.00  0.00    +0.000 NA
ATOM      5  C   UNL     1       6.952   5.786  16.713  0.00  0.00    +0.000 A 
ENDROOT
BRANCH   3   6
ATOM      6  C   UNL     1       6.304   4.142  13.681  0.00  0.00    +0.000 A 
ATOM      7  C   UNL     1       7.375   4.284  12.783  0.00  0.00    +0.000 A 
ATOM      8  C   UNL     1       7.262   3.826  11.470  0.00  0.00    +0.000 A 
ATOM      9  C   UNL     1       6.078   3.233  11.040  0.00  0.00    +0.000 A 
ATOM     10  C   UNL     1       5.006   3.099  11.922  0.00  0.00    +0.000 A 
ATOM     11  C   UNL     1       5.114   3.549  13.241  0.00  0.00    +0.000 A 
ENDBRANCH   3   6
BRANCH   5  12
ATOM     12  C   UNL     1       7.494   6.940  17.442  0.00  0.00    +0.000 A 
ATOM     13  C   UNL     1       8.209   6.776  18.670  0.00  0.00    +0.000 A 
ATOM     14  C   UNL     1       8.685   7.971  19.162  0.00  0.00    +0.000 A 
ATOM     15  S   UNL     1       8.242   9.293  18.172  0.00  0.00    +0.000 S 
ATOM     16  C   UNL     1       7.412   8.266  17.079  0.00  0.00    +0.000 A 
ENDBRANCH   5  12
BRANCH   1  17
ATOM     17  C   UNL     1       5.363   4.674  18.487  0.00  0.00    +0.000 C 
ATOM     18  O   UNL     1       5.918   4.525  19.564  0.00  0.00    +0.000 OA
BRANCH  17  19
ATOM     19  O   UNL     1       3.981   4.626  18.279  0.00  0.00    +0.000 OA
BRANCH  19  26
ATOM     20  C   UNL     1       3.590   1.673  18.629  0.00  0.00    +0.000 C 
ATOM     21  C   UNL     1       2.752   2.743  19.273  0.00  0.00    +0.000 A 
ATOM     22  C   UNL     1       1.619   2.330  19.986  0.00  0.00    +0.000 A 
ATOM     23  C   UNL     1       0.769   3.258  20.577  0.00  0.00    +0.000 A 
ATOM     24  C   UNL     1       1.058   4.618  20.500  0.00  0.00    +0.000 A 
ATOM     25  C   UNL     1       2.197   5.086  19.822  0.00  0.00    +0.000 A 
ATOM     26  C   UNL     1       3.025   4.126  19.199  0.00  0.00    +0.000 A 
BRANCH  25  27
ATOM     27  C   UNL     1       2.443   6.592  19.835  0.00  0.00    +0.000 C 
ATOM     28  C   UNL     1       2.366   7.204  18.435  0.00  0.00    +0.000 C 
ATOM     29  C   UNL     1       1.580   7.372  20.829  0.00  0.00    +0.000 C 
ENDBRANCH  25  27
ENDBRANCH  19  26
ENDBRANCH  17  19
ENDBRANCH   1  17
TORSDOF 6
ENDMDL
MODEL 6
REMARK VINA RESULT:      -7.4      3.575      8.523
REMARK  Name = 
REMARK  9 active torsions:
REMARK  status: ('A' for Active; 'I' for Inactive)
REMARK    1  A    between atoms: C_1  and  C_2
REMARK    2  A    between atoms: C_6  and  C_7
REMARK    3  A    between atoms: C_7  and  C_8
REMARK    4  A    between atoms: C_7  and  C_9
REMARK    5  A    between atoms: C_10  and  O_11
REMARK    6  A    between atoms: O_11  and  C_12
REMARK    7  A    between atoms: C_12  and  C_14
REMARK    8  A    between atoms: N_16  and  C_17
REMARK    9  A    between atoms: C_24  and  C_25
REMARK                            x       y       z     vdW  Elec       q    Type
REMARK                         _______ _______ _______ _____ _____    ______ ____
ROOT
ATOM      1  C   UNL     1       2.419   7.315  19.402  0.00  0.00    +0.000 A 
ATOM      2  C   UNL     1       1.940   8.560  19.767  0.00  0.00    +0.000 A 
ATOM      3  N   UNL     1       1.077   8.392  20.817  0.00  0.00    +0.000 N 
ATOM      4  N   UNL     1       1.076   7.104  21.239  0.00  0.00    +0.000 NA
ATOM      5  C   UNL     1       1.871   6.452  20.372  0.00  0.00    +0.000 A 
ENDROOT
BRANCH   3   6
ATOM      6  C   UNL     1       0.219   9.381  21.379  0.00  0.00    +0.000 A 
ATOM      7  C   UNL     1      -0.104   9.354  22.746  0.00  0.00    +0.000 A 
ATOM      8  C   UNL     1      -0.896  10.356  23.305  0.00  0.00    +0.000 A 
ATOM      9  C   UNL     1      -1.380  11.387  22.504  0.00  0.00    +0.000 A 
ATOM     10  C   UNL     1      -1.075  11.415  21.144  0.00  0.00    +0.000 A 
ATOM     11  C   UNL     1      -0.275  10.417  20.578  0.00  0.00    +0.000 A 
ENDBRANCH   3   6
BRANCH   5  12
ATOM     12  C   UNL     1       1.998   4.989  20.407  0.00  0.00    +0.000 A 
ATOM     13  C   UNL     1       0.880   4.139  20.133  0.00  0.00    +0.000 A 
ATOM     14  C   UNL     1       1.219   2.805  20.157  0.00  0.00    +0.000 A 
ATOM     15  S   UNL     1       2.868   2.571  20.546  0.00  0.00    +0.000 S 
ATOM     16  C   UNL     1       3.132   4.259  20.681  0.00  0.00    +0.000 A 
ENDBRANCH   5  12
BRANCH   1  17
ATOM     17  C   UNL     1       3.246   7.104  18.230  0.00  0.00    +0.000 C 
ATOM     18  O   UNL     1       3.158   7.710  17.174  0.00  0.00    +0.000 OA
BRANCH  17  19
ATOM     19  O   UNL     1       4.115   6.036  18.476  0.00  0.00    +0.000 OA
BRANCH  19  26
ATOM     20  C   UNL     1       2.768   3.917  16.835  0.00  0.00    +0.000 C 
ATOM     21  C   UNL     1       4.238   4.234  16.808  0.00  0.00    +0.000 A 
ATOM     22  C   UNL     1       5.063   3.388  16.057  0.00  0.00    +0.000 A 
ATOM     23  C   UNL     1       6.439   3.586  16.012  0.00  0.00    +0.000 A 
ATOM     24  C   UNL     1       7.011   4.662  16.686  0.00  0.00    +0.000 A 
ATOM     25  C   UNL     1       6.226   5.559  17.430  0.00  0.00    +0.000 A 
ATOM     26  C   UNL     1       4.836   5.315  17.491  0.00  0.00    +0.000 A 
BRANCH  25  27
ATOM     27  C   UNL     1       6.948   6.728  18.094  0.00  0.00    +0.000 C 
ATOM     28  C   UNL     1       8.001   6.263  19.103  0.00  0.00    +0.000 C 
ATOM     29  C   UNL     1       7.530   7.756  17.122  0.00  0.00    +0.000 C 
ENDBRANCH  25  27
ENDBRANCH  19  26
ENDBRANCH  17  19
ENDBRANCH   1  17
TORSDOF 6
ENDMDL
MODEL 7
REMARK VINA RESULT:      -7.2      0.869      1.104
REMARK  Name = 
REMARK  9 active torsions:
REMARK  status: ('A' for Active; 'I' for Inactive)
REMARK    1  A    between atoms: C_1  and  C_2
REMARK    2  A    between atoms: C_6  and  C_7
REMARK    3  A    between atoms: C_7  and  C_8
REMARK    4  A    between atoms: C_7  and  C_9
REMARK    5  A    between atoms: C_10  and  O_11
REMARK    6  A    between atoms: O_11  and  C_12
REMARK    7  A    between atoms: C_12  and  C_14
REMARK    8  A    between atoms: N_16  and  C_17
REMARK    9  A    between atoms: C_24  and  C_25
REMARK                            x       y       z     vdW  Elec       q    Type
REMARK                         _______ _______ _______ _____ _____    ______ ____
ROOT
ATOM      1  C   UNL     1       5.924   5.402  17.371  0.00  0.00    +0.000 A 
ATOM      2  C   UNL     1       5.679   4.539  16.318  0.00  0.00    +0.000 A 
ATOM      3  N   UNL     1       6.479   4.909  15.271  0.00  0.00    +0.000 N 
ATOM      4  N   UNL     1       7.334   5.894  15.641  0.00  0.00    +0.000 NA
ATOM      5  C   UNL     1       6.985   6.202  16.902  0.00  0.00    +0.000 A 
ENDROOT
BRANCH   3   6
ATOM      6  C   UNL     1       6.415   4.414  13.936  0.00  0.00    +0.000 A 
ATOM      7  C   UNL     1       7.456   4.672  13.028  0.00  0.00    +0.000 A 
ATOM      8  C   UNL     1       7.418   4.137  11.740  0.00  0.00    +0.000 A 
ATOM      9  C   UNL     1       6.339   3.350  11.345  0.00  0.00    +0.000 A 
ATOM     10  C   UNL     1       5.297   3.100  12.237  0.00  0.00    +0.000 A 
ATOM     11  C   UNL     1       5.331   3.627  13.532  0.00  0.00    +0.000 A 
ENDBRANCH   3   6
BRANCH   5  12
ATOM     12  C   UNL     1       7.586   7.346  17.601  0.00  0.00    +0.000 A 
ATOM     13  C   UNL     1       7.360   8.689  17.161  0.00  0.00    +0.000 A 
ATOM     14  C   UNL     1       7.960   9.617  17.982  0.00  0.00    +0.000 A 
ATOM     15  S   UNL     1       8.827   8.877  19.257  0.00  0.00    +0.000 S 
ATOM     16  C   UNL     1       8.397   7.310  18.713  0.00  0.00    +0.000 A 
ENDBRANCH   5  12
BRANCH   1  17
ATOM     17  C   UNL     1       5.145   5.390  18.595  0.00  0.00    +0.000 C 
ATOM     18  O   UNL     1       5.594   5.316  19.727  0.00  0.00    +0.000 OA
BRANCH  17  19
ATOM     19  O   UNL     1       3.786   5.400  18.266  0.00  0.00    +0.000 OA
BRANCH  19  26
ATOM     20  C   UNL     1       3.096   8.270  17.731  0.00  0.00    +0.000 C 
ATOM     21  C   UNL     1       2.524   7.430  18.840  0.00  0.00    +0.000 A 
ATOM     22  C   UNL     1       1.706   8.075  19.777  0.00  0.00    +0.000 A 
ATOM     23  C   UNL     1       1.170   7.381  20.856  0.00  0.00    +0.000 A 
ATOM     24  C   UNL     1       1.410   6.016  20.996  0.00  0.00    +0.000 A 
ATOM     25  C   UNL     1       2.200   5.314  20.070  0.00  0.00    +0.000 A 
ATOM     26  C   UNL     1       2.763   6.049  19.003  0.00  0.00    +0.000 A 
BRANCH  25  27
ATOM     27  C   UNL     1       2.365   3.813  20.294  0.00  0.00    +0.000 C 
ATOM     28  C   UNL     1       2.116   3.413  21.750  0.00  0.00    +0.000 C 
ATOM     29  C   UNL     1       1.564   2.932  19.333  0.00  0.00    +0.000 C 
ENDBRANCH  25  27
ENDBRANCH  19  26
ENDBRANCH  17  19
ENDBRANCH   1  17
TORSDOF 6
ENDMDL
MODEL 8
REMARK VINA RESULT:      -7.2      0.299      1.153
REMARK  Name = 
REMARK  9 active torsions:
REMARK  status: ('A' for Active; 'I' for Inactive)
REMARK    1  A    between atoms: C_1  and  C_2
REMARK    2  A    between atoms: C_6  and  C_7
REMARK    3  A    between atoms: C_7  and  C_8
REMARK    4  A    between atoms: C_7  and  C_9
REMARK    5  A    between atoms: C_10  and  O_11
REMARK    6  A    between atoms: O_11  and  C_12
REMARK    7  A    between atoms: C_12  and  C_14
REMARK    8  A    between atoms: N_16  and  C_17
REMARK    9  A    between atoms: C_24  and  C_25
REMARK                            x       y       z     vdW  Elec       q    Type
REMARK                         _______ _______ _______ _____ _____    ______ ____
ROOT
ATOM      1  C   UNL     1       5.622   4.522  17.141  0.00  0.00    +0.000 A 
ATOM      2  C   UNL     1       5.327   3.721  16.052  0.00  0.00    +0.000 A 
ATOM      3  N   UNL     1       6.036   4.186  14.977  0.00  0.00    +0.000 N 
ATOM      4  N   UNL     1       6.885   5.174  15.351  0.00  0.00    +0.000 NA
ATOM      5  C   UNL     1       6.621   5.388  16.652  0.00  0.00    +0.000 A 
ENDROOT
BRANCH   3   6
ATOM      6  C   UNL     1       5.889   3.778  13.621  0.00  0.00    +0.000 A 
ATOM      7  C   UNL     1       4.612   3.588  13.066  0.00  0.00    +0.000 A 
ATOM      8  C   UNL     1       4.469   3.246  11.721  0.00  0.00    +0.000 A 
ATOM      9  C   UNL     1       5.598   3.080  10.922  0.00  0.00    +0.000 A 
ATOM     10  C   UNL     1       6.869   3.255  11.469  0.00  0.00    +0.000 A 
ATOM     11  C   UNL     1       7.020   3.605  12.814  0.00  0.00    +0.000 A 
ENDBRANCH   3   6
BRANCH   5  12
ATOM     12  C   UNL     1       7.237   6.504  17.382  0.00  0.00    +0.000 A 
ATOM     13  C   UNL     1       7.946   6.292  18.606  0.00  0.00    +0.000 A 
ATOM     14  C   UNL     1       8.498   7.453  19.099  0.00  0.00    +0.000 A 
ATOM     15  S   UNL     1       8.132   8.803  18.115  0.00  0.00    +0.000 S 
ATOM     16  C   UNL     1       7.235   7.834  17.023  0.00  0.00    +0.000 A 
ENDBRANCH   5  12
BRANCH   1  17
ATOM     17  C   UNL     1       4.937   4.403  18.413  0.00  0.00    +0.000 C 
ATOM     18  O   UNL     1       5.462   4.163  19.489  0.00  0.00    +0.000 OA
BRANCH  17  19
ATOM     19  O   UNL     1       3.561   4.531  18.199  0.00  0.00    +0.000 OA
BRANCH  19  26
ATOM     20  C   UNL     1       3.587   7.469  17.592  0.00  0.00    +0.000 C 
ATOM     21  C   UNL     1       2.798   6.816  18.693  0.00  0.00    +0.000 A 
ATOM     22  C   UNL     1       2.126   7.658  19.588  0.00  0.00    +0.000 A 
ATOM     23  C   UNL     1       1.407   7.138  20.659  0.00  0.00    +0.000 A 
ATOM     24  C   UNL     1       1.313   5.759  20.831  0.00  0.00    +0.000 A 
ATOM     25  C   UNL     1       1.943   4.867  19.946  0.00  0.00    +0.000 A 
ATOM     26  C   UNL     1       2.698   5.422  18.888  0.00  0.00    +0.000 A 
BRANCH  25  27
ATOM     27  C   UNL     1       1.741   3.376  20.200  0.00  0.00    +0.000 C 
ATOM     28  C   UNL     1       1.494   2.595  18.908  0.00  0.00    +0.000 C 
ATOM     29  C   UNL     1       2.833   2.718  21.045  0.00  0.00    +0.000 C 
ENDBRANCH  25  27
ENDBRANCH  19  26
ENDBRANCH  17  19
ENDBRANCH   1  17
TORSDOF 6
ENDMDL
MODEL 9
REMARK VINA RESULT:      -7.2      1.763      3.387
REMARK  Name = 
REMARK  9 active torsions:
REMARK  status: ('A' for Active; 'I' for Inactive)
REMARK    1  A    between atoms: C_1  and  C_2
REMARK    2  A    between atoms: C_6  and  C_7
REMARK    3  A    between atoms: C_7  and  C_8
REMARK    4  A    between atoms: C_7  and  C_9
REMARK    5  A    between atoms: C_10  and  O_11
REMARK    6  A    between atoms: O_11  and  C_12
REMARK    7  A    between atoms: C_12  and  C_14
REMARK    8  A    between atoms: N_16  and  C_17
REMARK    9  A    between atoms: C_24  and  C_25
REMARK                            x       y       z     vdW  Elec       q    Type
REMARK                         _______ _______ _______ _____ _____    ______ ____
ROOT
ATOM      1  C   UNL     1       7.080   5.613  18.125  0.00  0.00    +0.000 A 
ATOM      2  C   UNL     1       6.793   4.669  17.155  0.00  0.00    +0.000 A 
ATOM      3  N   UNL     1       7.058   5.224  15.931  0.00  0.00    +0.000 N 
ATOM      4  N   UNL     1       7.632   6.444  16.068  0.00  0.00    +0.000 NA
ATOM      5  C   UNL     1       7.628   6.684  17.391  0.00  0.00    +0.000 A 
ENDROOT
BRANCH   3   6
ATOM      6  C   UNL     1       6.727   4.673  14.659  0.00  0.00    +0.000 A 
ATOM      7  C   UNL     1       5.531   3.960  14.478  0.00  0.00    +0.000 A 
ATOM      8  C   UNL     1       5.182   3.472  13.218  0.00  0.00    +0.000 A 
ATOM      9  C   UNL     1       6.028   3.685  12.132  0.00  0.00    +0.000 A 
ATOM     10  C   UNL     1       7.223   4.382  12.306  0.00  0.00    +0.000 A 
ATOM     11  C   UNL     1       7.576   4.879  13.564  0.00  0.00    +0.000 A 
ENDBRANCH   3   6
BRANCH   5  12
ATOM     12  C   UNL     1       8.031   7.990  17.929  0.00  0.00    +0.000 A 
ATOM     13  C   UNL     1       7.565   9.211  17.346  0.00  0.00    +0.000 A 
ATOM     14  C   UNL     1       8.008  10.320  18.031  0.00  0.00    +0.000 A 
ATOM     15  S   UNL     1       9.014   9.900  19.348  0.00  0.00    +0.000 S 
ATOM     16  C   UNL     1       8.856   8.228  19.005  0.00  0.00    +0.000 A 
ENDBRANCH   5  12
BRANCH   1  17
ATOM     17  C   UNL     1       6.779   5.413  19.529  0.00  0.00    +0.000 C 
ATOM     18  O   UNL     1       7.582   5.109  20.396  0.00  0.00    +0.000 OA
BRANCH  17  19
ATOM     19  O   UNL     1       5.401   5.550  19.720  0.00  0.00    +0.000 OA
BRANCH  19  26
ATOM     20  C   UNL     1       5.026   2.642  20.355  0.00  0.00    +0.000 C 
ATOM     21  C   UNL     1       4.303   3.396  19.273  0.00  0.00    +0.000 A 
ATOM     22  C   UNL     1       3.489   2.654  18.408  0.00  0.00    +0.000 A 
ATOM     23  C   UNL     1       2.818   3.267  17.356  0.00  0.00    +0.000 A 
ATOM     24  C   UNL     1       2.917   4.644  17.173  0.00  0.00    +0.000 A 
ATOM     25  C   UNL     1       3.696   5.441  18.029  0.00  0.00    +0.000 A 
ATOM     26  C   UNL     1       4.398   4.789  19.068  0.00  0.00    +0.000 A 
BRANCH  25  27
ATOM     27  C   UNL     1       3.701   6.944  17.766  0.00  0.00    +0.000 C 
ATOM     28  C   UNL     1       4.197   7.285  16.359  0.00  0.00    +0.000 C 
ATOM     29  C   UNL     1       2.380   7.651  18.074  0.00  0.00    +0.000 C 
ENDBRANCH  25  27
ENDBRANCH  19  26
ENDBRANCH  17  19
ENDBRANCH   1  17
TORSDOF 6
ENDMDL
