MODEL 1
REMARK VINA RESULT:      -7.0      0.000      0.000
REMARK  Name = 
REMARK  5 active torsions:
REMARK  status: ('A' for Active; 'I' for Inactive)
REMARK    1  A    between atoms: C_1  and  O_2
REMARK    2  A    between atoms: O_2  and  C_3
REMARK    3  A    between atoms: C_6  and  N_7
REMARK    4  A    between atoms: C_8  and  C_10
REMARK    5  A    between atoms: C_15  and  C_16
REMARK                            x       y       z     vdW  Elec       q    Type
REMARK                         _______ _______ _______ _____ _____    ______ ____
ROOT
ATOM      1  N   UNL     1       2.514   7.078  18.599  0.00  0.00    +0.000 N 
ATOM      2  C   UNL     1       2.118   8.335  18.174  0.00  0.00    +0.000 C 
ATOM      3  O   UNL     1       2.469   8.903  17.144  0.00  0.00    +0.000 OA
ATOM      4  H   UNL     1       2.084   6.688  19.427  0.00  0.00    +0.000 HD
ENDROOT
BRANCH   2   5
ATOM      5  C   UNL     1       1.154   9.078  19.023  0.00  0.00    +0.000 A 
ATOM      6  C   UNL     1       0.320  10.002  18.376  0.00  0.00    +0.000 A 
ATOM      7  C   UNL     1      -0.526  10.809  19.119  0.00  0.00    +0.000 A 
ATOM      8  F   UNL     1      -1.303  11.702  18.494  0.00  0.00    +0.000 F 
ATOM      9  C   UNL     1      -0.565  10.719  20.504  0.00  0.00    +0.000 A 
ATOM     10  C   UNL     1       0.260   9.799  21.156  0.00  0.00    +0.000 A 
ATOM     11  C   UNL     1       1.124   8.973  20.418  0.00  0.00    +0.000 A 
BRANCH  10  12
ATOM     12  C   UNL     1       0.242   9.716  22.586  0.00  0.00    +0.000 C 
ATOM     13  N   UNL     1       0.237   9.640  23.744  0.00  0.00    +0.000 NA
ENDBRANCH  10  12
ENDBRANCH   2   5
BRANCH   1  17
ATOM     14  C   UNL     1       5.113   4.449  16.516  0.00  0.00    +0.000 A 
ATOM     15  C   UNL     1       5.463   5.785  16.678  0.00  0.00    +0.000 A 
ATOM     16  C   UNL     1       4.629   6.659  17.377  0.00  0.00    +0.000 A 
ATOM     17  C   UNL     1       3.414   6.224  17.909  0.00  0.00    +0.000 A 
ATOM     18  C   UNL     1       3.062   4.878  17.742  0.00  0.00    +0.000 A 
ATOM     19  C   UNL     1       3.908   3.995  17.049  0.00  0.00    +0.000 A 
BRANCH  14  21
ATOM     20  C   UNL     1       6.113   4.053  14.413  0.00  0.00    +0.000 C 
ATOM     21  O   UNL     1       6.001   3.711  15.787  0.00  0.00    +0.000 OA
ENDBRANCH  14  21
ENDBRANCH   1  17
TORSDOF 4
ENDMDL
MODEL 2
REMARK VINA RESULT:      -6.9      3.507      8.166
REMARK  Name = 
REMARK  5 active torsions:
REMARK  status: ('A' for Active; 'I' for Inactive)
REMARK    1  A    between atoms: C_1  and  O_2
REMARK    2  A    between atoms: O_2  and  C_3
REMARK    3  A    between atoms: C_6  and  N_7
REMARK    4  A    between atoms: C_8  and  C_10
REMARK    5  A    between atoms: C_15  and  C_16
REMARK                            x       y       z     vdW  Elec       q    Type
REMARK                         _______ _______ _______ _____ _____    ______ ____
ROOT
ATOM      1  N   UNL     1       3.441   7.397  18.069  0.00  0.00    +0.000 N 
ATOM      2  C   UNL     1       3.414   6.034  17.823  0.00  0.00    +0.000 C 
ATOM      3  O   UNL     1       2.457   5.282  17.978  0.00  0.00    +0.000 OA
ATOM      4  H   UNL     1       4.270   7.919  17.819  0.00  0.00    +0.000 HD
ENDROOT
BRANCH   2   5
ATOM      5  C   UNL     1       4.651   5.404  17.299  0.00  0.00    +0.000 A 
ATOM      6  C   UNL     1       5.766   5.392  18.150  0.00  0.00    +0.000 A 
ATOM      7  C   UNL     1       6.984   4.921  17.688  0.00  0.00    +0.000 A 
ATOM      8  F   UNL     1       8.047   4.932  18.502  0.00  0.00    +0.000 F 
ATOM      9  C   UNL     1       7.123   4.455  16.388  0.00  0.00    +0.000 A 
ATOM     10  C   UNL     1       6.016   4.460  15.535  0.00  0.00    +0.000 A 
ATOM     11  C   UNL     1       4.774   4.935  15.987  0.00  0.00    +0.000 A 
BRANCH  10  12
ATOM     12  C   UNL     1       6.157   4.002  14.185  0.00  0.00    +0.000 C 
ATOM     13  N   UNL     1       6.283   3.629  13.093  0.00  0.00    +0.000 NA
ENDBRANCH  10  12
ENDBRANCH   2   5
BRANCH   1  17
ATOM     14  C   UNL     1       0.221   9.672  19.639  0.00  0.00    +0.000 A 
ATOM     15  C   UNL     1       0.594   9.827  18.309  0.00  0.00    +0.000 A 
ATOM     16  C   UNL     1       1.638   9.072  17.770  0.00  0.00    +0.000 A 
ATOM     17  C   UNL     1       2.350   8.164  18.556  0.00  0.00    +0.000 A 
ATOM     18  C   UNL     1       1.975   8.014  19.898  0.00  0.00    +0.000 A 
ATOM     19  C   UNL     1       0.915   8.763  20.436  0.00  0.00    +0.000 A 
BRANCH  14  21
ATOM     20  C   UNL     1      -1.274  11.413  19.078  0.00  0.00    +0.000 C 
ATOM     21  O   UNL     1      -0.793  10.491  20.046  0.00  0.00    +0.000 OA
ENDBRANCH  14  21
ENDBRANCH   1  17
TORSDOF 4
ENDMDL
MODEL 3
REMARK VINA RESULT:      -6.9      0.231      1.097
REMARK  Name = 
REMARK  5 active torsions:
REMARK  status: ('A' for Active; 'I' for Inactive)
REMARK    1  A    between atoms: C_1  and  O_2
REMARK    2  A    between atoms: O_2  and  C_3
REMARK    3  A    between atoms: C_6  and  N_7
REMARK    4  A    between atoms: C_8  and  C_10
REMARK    5  A    between atoms: C_15  and  C_16
REMARK                            x       y       z     vdW  Elec       q    Type
REMARK                         _______ _______ _______ _____ _____    ______ ____
ROOT
ATOM      1  N   UNL     1       2.463   7.218  18.666  0.00  0.00    +0.000 N 
ATOM      2  C   UNL     1       2.006   8.445  18.214  0.00  0.00    +0.000 C 
ATOM      3  O   UNL     1       2.257   8.965  17.132  0.00  0.00    +0.000 OA
ATOM      4  H   UNL     1       2.113   6.864  19.546  0.00  0.00    +0.000 HD
ENDROOT
BRANCH   2   5
ATOM      5  C   UNL     1       1.100   9.213  19.104  0.00  0.00    +0.000 A 
ATOM      6  C   UNL     1       0.335  10.226  18.508  0.00  0.00    +0.000 A 
ATOM      7  C   UNL     1      -0.448  11.055  19.294  0.00  0.00    +0.000 A 
ATOM      8  F   UNL     1      -1.159  12.033  18.718  0.00  0.00    +0.000 F 
ATOM      9  C   UNL     1      -0.492  10.900  20.673  0.00  0.00    +0.000 A 
ATOM     10  C   UNL     1       0.265   9.890  21.274  0.00  0.00    +0.000 A 
ATOM     11  C   UNL     1       1.064   9.041  20.492  0.00  0.00    +0.000 A 
BRANCH  10  12
ATOM     12  C   UNL     1       0.242   9.738  22.698  0.00  0.00    +0.000 C 
ATOM     13  N   UNL     1       0.237   9.613  23.852  0.00  0.00    +0.000 NA
ENDBRANCH  10  12
ENDBRANCH   2   5
BRANCH   1  17
ATOM     14  C   UNL     1       5.118   4.690  16.529  0.00  0.00    +0.000 A 
ATOM     15  C   UNL     1       3.949   4.168  17.069  0.00  0.00    +0.000 A 
ATOM     16  C   UNL     1       3.054   4.989  17.758  0.00  0.00    +0.000 A 
ATOM     17  C   UNL     1       3.321   6.347  17.946  0.00  0.00    +0.000 A 
ATOM     18  C   UNL     1       4.502   6.870  17.403  0.00  0.00    +0.000 A 
ATOM     19  C   UNL     1       5.396   6.046  16.697  0.00  0.00    +0.000 A 
BRANCH  14  21
ATOM     20  C   UNL     1       6.445   4.164  14.647  0.00  0.00    +0.000 C 
ATOM     21  O   UNL     1       5.918   3.775  15.907  0.00  0.00    +0.000 OA
ENDBRANCH  14  21
ENDBRANCH   1  17
TORSDOF 4
ENDMDL
MODEL 4
REMARK VINA RESULT:      -6.8      3.348      7.989
REMARK  Name = 
REMARK  5 active torsions:
REMARK  status: ('A' for Active; 'I' for Inactive)
REMARK    1  A    between atoms: C_1  and  O_2
REMARK    2  A    between atoms: O_2  and  C_3
REMARK    3  A    between atoms: C_6  and  N_7
REMARK    4  A    between atoms: C_8  and  C_10
REMARK    5  A    between atoms: C_15  and  C_16
REMARK                            x       y       z     vdW  Elec       q    Type
REMARK                         _______ _______ _______ _____ _____    ______ ____
ROOT
ATOM      1  N   UNL     1       1.953   7.935  19.563  0.00  0.00    +0.000 N 
ATOM      2  C   UNL     1       2.207   6.583  19.729  0.00  0.00    +0.000 C 
ATOM      3  O   UNL     1       1.874   5.888  20.684  0.00  0.00    +0.000 OA
ATOM      4  H   UNL     1       2.208   8.372  18.689  0.00  0.00    +0.000 HD
ENDROOT
BRANCH   2   5
ATOM      5  C   UNL     1       2.933   5.880  18.642  0.00  0.00    +0.000 A 
ATOM      6  C   UNL     1       2.365   4.689  18.168  0.00  0.00    +0.000 A 
ATOM      7  C   UNL     1       3.043   3.923  17.233  0.00  0.00    +0.000 A 
ATOM      8  F   UNL     1       2.502   2.777  16.801  0.00  0.00    +0.000 F 
ATOM      9  C   UNL     1       4.284   4.318  16.751  0.00  0.00    +0.000 A 
ATOM     10  C   UNL     1       4.855   5.506  17.216  0.00  0.00    +0.000 A 
ATOM     11  C   UNL     1       4.181   6.294  18.164  0.00  0.00    +0.000 A 
BRANCH  10  12
ATOM     12  C   UNL     1       6.145   5.908  16.741  0.00  0.00    +0.000 C 
ATOM     13  N   UNL     1       7.188   6.245  16.360  0.00  0.00    +0.000 NA
ENDBRANCH  10  12
ENDBRANCH   2   5
BRANCH   1  17
ATOM     14  C   UNL     1      -0.191  10.426  22.246  0.00  0.00    +0.000 A 
ATOM     15  C   UNL     1       0.657   9.443  22.743  0.00  0.00    +0.000 A 
ATOM     16  C   UNL     1       1.385   8.627  21.875  0.00  0.00    +0.000 A 
ATOM     17  C   UNL     1       1.262   8.759  20.490  0.00  0.00    +0.000 A 
ATOM     18  C   UNL     1       0.404   9.748  19.993  0.00  0.00    +0.000 A 
ATOM     19  C   UNL     1      -0.319  10.579  20.867  0.00  0.00    +0.000 A 
BRANCH  14  21
ATOM     20  C   UNL     1      -2.024  11.827  22.758  0.00  0.00    +0.000 C 
ATOM     21  O   UNL     1      -0.866  11.132  23.201  0.00  0.00    +0.000 OA
ENDBRANCH  14  21
ENDBRANCH   1  17
TORSDOF 4
ENDMDL
MODEL 5
REMARK VINA RESULT:      -6.8      3.575      8.283
REMARK  Name = 
REMARK  5 active torsions:
REMARK  status: ('A' for Active; 'I' for Inactive)
REMARK    1  A    between atoms: C_1  and  O_2
REMARK    2  A    between atoms: O_2  and  C_3
REMARK    3  A    between atoms: C_6  and  N_7
REMARK    4  A    between atoms: C_8  and  C_10
REMARK    5  A    between atoms: C_15  and  C_16
REMARK                            x       y       z     vdW  Elec       q    Type
REMARK                         _______ _______ _______ _____ _____    ______ ____
ROOT
ATOM      1  N   UNL     1       3.569   7.236  17.975  0.00  0.00    +0.000 N 
ATOM      2  C   UNL     1       3.551   5.859  17.823  0.00  0.00    +0.000 C 
ATOM      3  O   UNL     1       2.640   5.100  18.140  0.00  0.00    +0.000 OA
ATOM      4  H   UNL     1       4.347   7.755  17.594  0.00  0.00    +0.000 HD
ENDROOT
BRANCH   2   5
ATOM      5  C   UNL     1       4.734   5.220  17.196  0.00  0.00    +0.000 A 
ATOM      6  C   UNL     1       5.895   5.129  17.979  0.00  0.00    +0.000 A 
ATOM      7  C   UNL     1       7.068   4.646  17.423  0.00  0.00    +0.000 A 
ATOM      8  F   UNL     1       8.176   4.582  18.172  0.00  0.00    +0.000 F 
ATOM      9  C   UNL     1       7.116   4.244  16.095  0.00  0.00    +0.000 A 
ATOM     10  C   UNL     1       5.963   4.327  15.310  0.00  0.00    +0.000 A 
ATOM     11  C   UNL     1       4.766   4.815  15.857  0.00  0.00    +0.000 A 
BRANCH  10  12
ATOM     12  C   UNL     1       6.011   3.936  13.933  0.00  0.00    +0.000 C 
ATOM     13  N   UNL     1       6.043   3.608  12.819  0.00  0.00    +0.000 NA
ENDBRANCH  10  12
ENDBRANCH   2   5
BRANCH   1  17
ATOM     14  C   UNL     1       0.405   9.584  19.551  0.00  0.00    +0.000 A 
ATOM     15  C   UNL     1       1.016   8.622  20.347  0.00  0.00    +0.000 A 
ATOM     16  C   UNL     1       2.072   7.854  19.851  0.00  0.00    +0.000 A 
ATOM     17  C   UNL     1       2.523   8.012  18.539  0.00  0.00    +0.000 A 
ATOM     18  C   UNL     1       1.903   8.980  17.738  0.00  0.00    +0.000 A 
ATOM     19  C   UNL     1       0.849   9.763  18.242  0.00  0.00    +0.000 A 
BRANCH  14  21
ATOM     20  C   UNL     1      -0.329  10.910  21.363  0.00  0.00    +0.000 C 
ATOM     21  O   UNL     1      -0.633  10.242  20.147  0.00  0.00    +0.000 OA
ENDBRANCH  14  21
ENDBRANCH   1  17
TORSDOF 4
ENDMDL
MODEL 6
REMARK VINA RESULT:      -6.8      3.117      7.858
REMARK  Name = 
REMARK  5 active torsions:
REMARK  status: ('A' for Active; 'I' for Inactive)
REMARK    1  A    between atoms: C_1  and  O_2
REMARK    2  A    between atoms: O_2  and  C_3
REMARK    3  A    between atoms: C_6  and  N_7
REMARK    4  A    between atoms: C_8  and  C_10
REMARK    5  A    between atoms: C_15  and  C_16
REMARK                            x       y       z     vdW  Elec       q    Type
REMARK                         _______ _______ _______ _____ _____    ______ ____
ROOT
ATOM      1  N   UNL     1       2.089   7.370  19.741  0.00  0.00    +0.000 N 
ATOM      2  C   UNL     1       2.499   7.351  18.417  0.00  0.00    +0.000 C 
ATOM      3  O   UNL     1       2.392   8.265  17.606  0.00  0.00    +0.000 OA
ATOM      4  H   UNL     1       2.312   6.579  20.329  0.00  0.00    +0.000 HD
ENDROOT
BRANCH   2   5
ATOM      5  C   UNL     1       3.156   6.118  17.917  0.00  0.00    +0.000 A 
ATOM      6  C   UNL     1       2.355   4.971  17.816  0.00  0.00    +0.000 A 
ATOM      7  C   UNL     1       2.926   3.759  17.463  0.00  0.00    +0.000 A 
ATOM      8  F   UNL     1       2.157   2.665  17.388  0.00  0.00    +0.000 F 
ATOM      9  C   UNL     1       4.286   3.658  17.203  0.00  0.00    +0.000 A 
ATOM     10  C   UNL     1       5.089   4.797  17.298  0.00  0.00    +0.000 A 
ATOM     11  C   UNL     1       4.527   6.034  17.655  0.00  0.00    +0.000 A 
BRANCH  10  12
ATOM     12  C   UNL     1       6.497   4.697  17.053  0.00  0.00    +0.000 C 
ATOM     13  N   UNL     1       7.635   4.609  16.844  0.00  0.00    +0.000 NA
ENDBRANCH  10  12
ENDBRANCH   2   5
BRANCH   1  17
ATOM     14  C   UNL     1       0.246  10.601  21.783  0.00  0.00    +0.000 A 
ATOM     15  C   UNL     1       0.504  10.700  20.420  0.00  0.00    +0.000 A 
ATOM     16  C   UNL     1       1.091   9.639  19.728  0.00  0.00    +0.000 A 
ATOM     17  C   UNL     1       1.459   8.465  20.388  0.00  0.00    +0.000 A 
ATOM     18  C   UNL     1       1.202   8.370  21.762  0.00  0.00    +0.000 A 
ATOM     19  C   UNL     1       0.598   9.432  22.456  0.00  0.00    +0.000 A 
BRANCH  14  21
ATOM     20  C   UNL     1      -1.563  11.545  22.972  0.00  0.00    +0.000 C 
ATOM     21  O   UNL     1      -0.302  11.720  22.342  0.00  0.00    +0.000 OA
ENDBRANCH  14  21
ENDBRANCH   1  17
TORSDOF 4
ENDMDL
MODEL 7
REMARK VINA RESULT:      -6.8      5.417      8.978
REMARK  Name = 
REMARK  5 active torsions:
REMARK  status: ('A' for Active; 'I' for Inactive)
REMARK    1  A    between atoms: C_1  and  O_2
REMARK    2  A    between atoms: O_2  and  C_3
REMARK    3  A    between atoms: C_6  and  N_7
REMARK    4  A    between atoms: C_8  and  C_10
REMARK    5  A    between atoms: C_15  and  C_16
REMARK                            x       y       z     vdW  Elec       q    Type
REMARK                         _______ _______ _______ _____ _____    ______ ____
ROOT
ATOM      1  N   UNL     1       4.664   3.750  16.475  0.00  0.00    +0.000 N 
ATOM      2  C   UNL     1       5.409   4.764  15.896  0.00  0.00    +0.000 C 
ATOM      3  O   UNL     1       5.576   5.895  16.342  0.00  0.00    +0.000 OA
ATOM      4  H   UNL     1       4.676   2.835  16.047  0.00  0.00    +0.000 HD
ENDROOT
BRANCH   2   5
ATOM      5  C   UNL     1       6.101   4.467  14.617  0.00  0.00    +0.000 A 
ATOM      6  C   UNL     1       7.138   5.333  14.242  0.00  0.00    +0.000 A 
ATOM      7  C   UNL     1       7.755   5.182  13.010  0.00  0.00    +0.000 A 
ATOM      8  F   UNL     1       8.730   6.026  12.653  0.00  0.00    +0.000 F 
ATOM      9  C   UNL     1       7.363   4.179  12.134  0.00  0.00    +0.000 A 
ATOM     10  C   UNL     1       6.333   3.309  12.503  0.00  0.00    +0.000 A 
ATOM     11  C   UNL     1       5.697   3.448  13.747  0.00  0.00    +0.000 A 
BRANCH  10  12
ATOM     12  C   UNL     1       5.908   2.286  11.595  0.00  0.00    +0.000 C 
ATOM     13  N   UNL     1       5.574   1.450  10.862  0.00  0.00    +0.000 NA
ENDBRANCH  10  12
ENDBRANCH   2   5
BRANCH   1  17
ATOM     14  C   UNL     1       2.429   4.079  20.067  0.00  0.00    +0.000 A 
ATOM     15  C   UNL     1       3.641   3.399  20.066  0.00  0.00    +0.000 A 
ATOM     16  C   UNL     1       4.400   3.298  18.898  0.00  0.00    +0.000 A 
ATOM     17  C   UNL     1       3.950   3.852  17.697  0.00  0.00    +0.000 A 
ATOM     18  C   UNL     1       2.726   4.534  17.701  0.00  0.00    +0.000 A 
ATOM     19  C   UNL     1       1.970   4.648  18.880  0.00  0.00    +0.000 A 
BRANCH  14  21
ATOM     20  C   UNL     1       1.402   2.802  21.768  0.00  0.00    +0.000 C 
ATOM     21  O   UNL     1       1.775   4.077  21.265  0.00  0.00    +0.000 OA
ENDBRANCH  14  21
ENDBRANCH   1  17
TORSDOF 4
ENDMDL
MODEL 8
REMARK VINA RESULT:      -6.8      3.430      7.920
REMARK  Name = 
REMARK  5 active torsions:
REMARK  status: ('A' for Active; 'I' for Inactive)
REMARK    1  A    between atoms: C_1  and  O_2
REMARK    2  A    between atoms: O_2  and  C_3
REMARK    3  A    between atoms: C_6  and  N_7
REMARK    4  A    between atoms: C_8  and  C_10
REMARK    5  A    between atoms: C_15  and  C_16
REMARK                            x       y       z     vdW  Elec       q    Type
REMARK                         _______ _______ _______ _____ _____    ______ ____
ROOT
ATOM      1  N   UNL     1       1.948   8.676  17.681  0.00  0.00    +0.000 N 
ATOM      2  C   UNL     1       2.403   7.655  18.500  0.00  0.00    +0.000 C 
ATOM      3  O   UNL     1       2.274   7.581  19.717  0.00  0.00    +0.000 OA
ATOM      4  H   UNL     1       2.045   8.575  16.681  0.00  0.00    +0.000 HD
ENDROOT
BRANCH   2   5
ATOM      5  C   UNL     1       3.101   6.515  17.855  0.00  0.00    +0.000 A 
ATOM      6  C   UNL     1       2.485   5.259  17.951  0.00  0.00    +0.000 A 
ATOM      7  C   UNL     1       3.132   4.132  17.470  0.00  0.00    +0.000 A 
ATOM      8  F   UNL     1       2.544   2.935  17.584  0.00  0.00    +0.000 F 
ATOM      9  C   UNL     1       4.389   4.225  16.887  0.00  0.00    +0.000 A 
ATOM     10  C   UNL     1       5.008   5.473  16.784  0.00  0.00    +0.000 A 
ATOM     11  C   UNL     1       4.366   6.625  17.268  0.00  0.00    +0.000 A 
BRANCH  10  12
ATOM     12  C   UNL     1       6.314   5.573  16.205  0.00  0.00    +0.000 C 
ATOM     13  N   UNL     1       7.377   5.646  15.744  0.00  0.00    +0.000 NA
ENDBRANCH  10  12
ENDBRANCH   2   5
BRANCH   1  17
ATOM     14  C   UNL     1      -0.042  12.197  18.964  0.00  0.00    +0.000 A 
ATOM     15  C   UNL     1      -0.773  11.043  18.709  0.00  0.00    +0.000 A 
ATOM     16  C   UNL     1      -0.133   9.869  18.306  0.00  0.00    +0.000 A 
ATOM     17  C   UNL     1       1.251   9.831  18.122  0.00  0.00    +0.000 A 
ATOM     18  C   UNL     1       1.985  10.997  18.376  0.00  0.00    +0.000 A 
ATOM     19  C   UNL     1       1.342  12.174  18.796  0.00  0.00    +0.000 A 
BRANCH  14  21
ATOM     20  C   UNL     1      -2.006  12.998  20.004  0.00  0.00    +0.000 C 
ATOM     21  O   UNL     1      -0.793  13.280  19.321  0.00  0.00    +0.000 OA
ENDBRANCH  14  21
ENDBRANCH   1  17
TORSDOF 4
ENDMDL
MODEL 9
REMARK VINA RESULT:      -6.8      3.463      7.752
REMARK  Name = 
REMARK  5 active torsions:
REMARK  status: ('A' for Active; 'I' for Inactive)
REMARK    1  A    between atoms: C_1  and  O_2
REMARK    2  A    between atoms: O_2  and  C_3
REMARK    3  A    between atoms: C_6  and  N_7
REMARK    4  A    between atoms: C_8  and  C_10
REMARK    5  A    between atoms: C_15  and  C_16
REMARK                            x       y       z     vdW  Elec       q    Type
REMARK                         _______ _______ _______ _____ _____    ______ ____
ROOT
ATOM      1  N   UNL     1       2.183   8.418  17.662  0.00  0.00    +0.000 N 
ATOM      2  C   UNL     1       2.496   7.395  18.541  0.00  0.00    +0.000 C 
ATOM      3  O   UNL     1       2.290   7.381  19.750  0.00  0.00    +0.000 OA
ATOM      4  H   UNL     1       2.329   8.270  16.673  0.00  0.00    +0.000 HD
ENDROOT
BRANCH   2   5
ATOM      5  C   UNL     1       3.125   6.173  17.980  0.00  0.00    +0.000 A 
ATOM      6  C   UNL     1       2.322   5.026  17.901  0.00  0.00    +0.000 A 
ATOM      7  C   UNL     1       2.874   3.823  17.492  0.00  0.00    +0.000 A 
ATOM      8  F   UNL     1       2.103   2.729  17.439  0.00  0.00    +0.000 F 
ATOM      9  C   UNL     1       4.217   3.731  17.153  0.00  0.00    +0.000 A 
ATOM     10  C   UNL     1       5.022   4.870  17.225  0.00  0.00    +0.000 A 
ATOM     11  C   UNL     1       4.480   6.098  17.638  0.00  0.00    +0.000 A 
BRANCH  10  12
ATOM     12  C   UNL     1       6.414   4.778  16.898  0.00  0.00    +0.000 C 
ATOM     13  N   UNL     1       7.541   4.715  16.628  0.00  0.00    +0.000 NA
ENDBRANCH  10  12
ENDBRANCH   2   5
BRANCH   1  17
ATOM     14  C   UNL     1       0.250  12.029  18.770  0.00  0.00    +0.000 A 
ATOM     15  C   UNL     1       1.628  12.008  18.594  0.00  0.00    +0.000 A 
ATOM     16  C   UNL     1       2.278  10.834  18.210  0.00  0.00    +0.000 A 
ATOM     17  C   UNL     1       1.568   9.647  18.019  0.00  0.00    +0.000 A 
ATOM     18  C   UNL     1       0.179   9.670  18.201  0.00  0.00    +0.000 A 
ATOM     19  C   UNL     1      -0.477  10.856  18.574  0.00  0.00    +0.000 A 
BRANCH  14  21
ATOM     20  C   UNL     1      -1.404  13.174  20.009  0.00  0.00    +0.000 C 
ATOM     21  O   UNL     1      -0.255  13.231  19.175  0.00  0.00    +0.000 OA
ENDBRANCH  14  21
ENDBRANCH   1  17
TORSDOF 4
ENDMDL
