MODEL 1
REMARK VINA RESULT:      -7.0      0.000      0.000
REMARK  Name = 
REMARK  4 active torsions:
REMARK  status: ('A' for Active; 'I' for Inactive)
REMARK    1  A    between atoms: C_4  and  C_5
REMARK    2  A    between atoms: C_5  and  S_6
REMARK    3  A    between atoms: S_6  and  C_7
REMARK    4  A    between atoms: C_15  and  O_16
REMARK                            x       y       z     vdW  Elec       q    Type
REMARK                         _______ _______ _______ _____ _____    ______ ____
ROOT
ATOM      1  O   UNL     1       7.451   5.094  15.358  0.00  0.00    +0.000 OA
ATOM      2  C   UNL     1       6.820   5.288  16.390  0.00  0.00    +0.000 A 
ATOM      3  C   UNL     1       5.571   6.076  16.363  0.00  0.00    +0.000 A 
ATOM      4  C   UNL     1       4.861   6.266  17.488  0.00  0.00    +0.000 A 
ATOM      5  O   UNL     1       5.293   5.768  18.717  0.00  0.00    +0.000 OA
ATOM      6  C   UNL     1       6.459   5.037  18.764  0.00  0.00    +0.000 A 
ATOM      7  C   UNL     1       7.241   4.757  17.715  0.00  0.00    +0.000 A 
ENDROOT
BRANCH   7   8
ATOM      8  O   UNL     1       8.399   4.015  17.807  0.00  0.00    +0.000 OA
ATOM      9  H   UNL     1       8.283   3.318  18.472  0.00  0.00    +0.000 HD
ENDBRANCH   7   8
BRANCH   4  10
ATOM     10  C   UNL     1       3.540   7.006  17.571  0.00  0.00    +0.000 C 
BRANCH  10  11
ATOM     11  S   UNL     1       2.788   6.883  19.234  0.00  0.00    +0.000 S 
BRANCH  11  12
ATOM     12  C   UNL     1       2.123   5.229  19.283  0.00  0.00    +0.000 A 
ATOM     13  C   UNL     1       1.736   4.733  20.537  0.00  0.00    +0.000 A 
ATOM     14  C   UNL     1       1.108   3.493  20.656  0.00  0.00    +0.000 A 
ATOM     15  C   UNL     1       0.855   2.732  19.519  0.00  0.00    +0.000 A 
ATOM     16  C   UNL     1       1.239   3.209  18.268  0.00  0.00    +0.000 A 
ATOM     17  C   UNL     1       1.871   4.455  18.148  0.00  0.00    +0.000 A 
ENDBRANCH  11  12
ENDBRANCH  10  11
ENDBRANCH   4  10
TORSDOF 4
ENDMDL
MODEL 2
REMARK VINA RESULT:      -6.9      1.152      2.155
REMARK  Name = 
REMARK  4 active torsions:
REMARK  status: ('A' for Active; 'I' for Inactive)
REMARK    1  A    between atoms: C_4  and  C_5
REMARK    2  A    between atoms: C_5  and  S_6
REMARK    3  A    between atoms: S_6  and  C_7
REMARK    4  A    between atoms: C_15  and  O_16
REMARK                            x       y       z     vdW  Elec       q    Type
REMARK                         _______ _______ _______ _____ _____    ______ ____
ROOT
ATOM      1  O   UNL     1       7.394   5.241  20.054  0.00  0.00    +0.000 OA
ATOM      2  C   UNL     1       6.696   5.214  19.047  0.00  0.00    +0.000 A 
ATOM      3  C   UNL     1       5.343   5.807  19.061  0.00  0.00    +0.000 A 
ATOM      4  C   UNL     1       4.586   5.804  17.951  0.00  0.00    +0.000 A 
ATOM      5  O   UNL     1       5.027   5.213  16.768  0.00  0.00    +0.000 OA
ATOM      6  C   UNL     1       6.283   4.648  16.736  0.00  0.00    +0.000 A 
ATOM      7  C   UNL     1       7.141   4.608  17.763  0.00  0.00    +0.000 A 
ENDROOT
BRANCH   7   8
ATOM      8  O   UNL     1       8.393   4.038  17.685  0.00  0.00    +0.000 OA
ATOM      9  H   UNL     1       8.304   3.087  17.515  0.00  0.00    +0.000 HD
ENDBRANCH   7   8
BRANCH   4  10
ATOM     10  C   UNL     1       3.210   6.431  17.832  0.00  0.00    +0.000 C 
BRANCH  10  11
ATOM     11  S   UNL     1       2.434   6.694  19.468  0.00  0.00    +0.000 S 
BRANCH  11  12
ATOM     12  C   UNL     1       1.964   5.054  19.987  0.00  0.00    +0.000 A 
ATOM     13  C   UNL     1       1.409   4.210  19.013  0.00  0.00    +0.000 A 
ATOM     14  C   UNL     1       1.111   2.878  19.302  0.00  0.00    +0.000 A 
ATOM     15  C   UNL     1       1.368   2.371  20.572  0.00  0.00    +0.000 A 
ATOM     16  C   UNL     1       1.912   3.198  21.551  0.00  0.00    +0.000 A 
ATOM     17  C   UNL     1       2.211   4.536  21.261  0.00  0.00    +0.000 A 
ENDBRANCH  11  12
ENDBRANCH  10  11
ENDBRANCH   4  10
TORSDOF 4
ENDMDL
MODEL 3
REMARK VINA RESULT:      -6.9      1.143      1.780
REMARK  Name = 
REMARK  4 active torsions:
REMARK  status: ('A' for Active; 'I' for Inactive)
REMARK    1  A    between atoms: C_4  and  C_5
REMARK    2  A    between atoms: C_5  and  S_6
REMARK    3  A    between atoms: S_6  and  C_7
REMARK    4  A    between atoms: C_15  and  O_16
REMARK                            x       y       z     vdW  Elec       q    Type
REMARK                         _______ _______ _______ _____ _____    ______ ____
ROOT
ATOM      1  O   UNL     1       7.509   5.432  19.980  0.00  0.00    +0.000 OA
ATOM      2  C   UNL     1       6.789   5.340  18.992  0.00  0.00    +0.000 A 
ATOM      3  C   UNL     1       5.454   5.972  18.980  0.00  0.00    +0.000 A 
ATOM      4  C   UNL     1       4.675   5.897  17.888  0.00  0.00    +0.000 A 
ATOM      5  O   UNL     1       5.075   5.195  16.753  0.00  0.00    +0.000 OA
ATOM      6  C   UNL     1       6.314   4.593  16.746  0.00  0.00    +0.000 A 
ATOM      7  C   UNL     1       7.191   4.614  17.757  0.00  0.00    +0.000 A 
ENDROOT
BRANCH   7   8
ATOM      8  O   UNL     1       8.425   4.002  17.705  0.00  0.00    +0.000 OA
ATOM      9  H   UNL     1       8.909   4.183  18.526  0.00  0.00    +0.000 HD
ENDBRANCH   7   8
BRANCH   4  10
ATOM     10  C   UNL     1       3.315   6.552  17.742  0.00  0.00    +0.000 C 
BRANCH  10  11
ATOM     11  S   UNL     1       2.448   6.698  19.346  0.00  0.00    +0.000 S 
BRANCH  11  12
ATOM     12  C   UNL     1       2.061   5.012  19.779  0.00  0.00    +0.000 A 
ATOM     13  C   UNL     1       2.268   4.633  21.114  0.00  0.00    +0.000 A 
ATOM     14  C   UNL     1       1.893   3.366  21.566  0.00  0.00    +0.000 A 
ATOM     15  C   UNL     1       1.302   2.464  20.688  0.00  0.00    +0.000 A 
ATOM     16  C   UNL     1       1.097   2.824  19.358  0.00  0.00    +0.000 A 
ATOM     17  C   UNL     1       1.474   4.095  18.904  0.00  0.00    +0.000 A 
ENDBRANCH  11  12
ENDBRANCH  10  11
ENDBRANCH   4  10
TORSDOF 4
ENDMDL
MODEL 4
REMARK VINA RESULT:      -6.8      2.175      2.876
REMARK  Name = 
REMARK  4 active torsions:
REMARK  status: ('A' for Active; 'I' for Inactive)
REMARK    1  A    between atoms: C_4  and  C_5
REMARK    2  A    between atoms: C_5  and  S_6
REMARK    3  A    between atoms: S_6  and  C_7
REMARK    4  A    between atoms: C_15  and  O_16
REMARK                            x       y       z     vdW  Elec       q    Type
REMARK                         _______ _______ _______ _____ _____    ______ ____
ROOT
ATOM      1  O   UNL     1       7.754   5.311  20.281  0.00  0.00    +0.000 OA
ATOM      2  C   UNL     1       7.194   5.667  19.251  0.00  0.00    +0.000 A 
ATOM      3  C   UNL     1       6.028   4.919  18.739  0.00  0.00    +0.000 A 
ATOM      4  C   UNL     1       5.394   5.323  17.625  0.00  0.00    +0.000 A 
ATOM      5  O   UNL     1       5.833   6.426  16.896  0.00  0.00    +0.000 OA
ATOM      6  C   UNL     1       6.923   7.134  17.352  0.00  0.00    +0.000 A 
ATOM      7  C   UNL     1       7.624   6.850  18.457  0.00  0.00    +0.000 A 
ENDROOT
BRANCH   7   8
ATOM      8  O   UNL     1       8.706   7.590  18.881  0.00  0.00    +0.000 OA
ATOM      9  H   UNL     1       9.397   6.992  19.207  0.00  0.00    +0.000 HD
ENDBRANCH   7   8
BRANCH   4  10
ATOM     10  C   UNL     1       4.157   4.669  17.040  0.00  0.00    +0.000 C 
BRANCH  10  11
ATOM     11  S   UNL     1       3.953   2.946  17.622  0.00  0.00    +0.000 S 
BRANCH  11  12
ATOM     12  C   UNL     1       3.006   3.111  19.124  0.00  0.00    +0.000 A 
ATOM     13  C   UNL     1       1.746   3.719  19.021  0.00  0.00    +0.000 A 
ATOM     14  C   UNL     1       0.893   3.793  20.124  0.00  0.00    +0.000 A 
ATOM     15  C   UNL     1       1.290   3.256  21.344  0.00  0.00    +0.000 A 
ATOM     16  C   UNL     1       2.540   2.656  21.463  0.00  0.00    +0.000 A 
ATOM     17  C   UNL     1       3.397   2.581  20.356  0.00  0.00    +0.000 A 
ENDBRANCH  11  12
ENDBRANCH  10  11
ENDBRANCH   4  10
TORSDOF 4
ENDMDL
MODEL 5
REMARK VINA RESULT:      -6.6      1.722      2.585
REMARK  Name = 
REMARK  4 active torsions:
REMARK  status: ('A' for Active; 'I' for Inactive)
REMARK    1  A    between atoms: C_4  and  C_5
REMARK    2  A    between atoms: C_5  and  S_6
REMARK    3  A    between atoms: S_6  and  C_7
REMARK    4  A    between atoms: C_15  and  O_16
REMARK                            x       y       z     vdW  Elec       q    Type
REMARK                         _______ _______ _______ _____ _____    ______ ____
ROOT
ATOM      1  O   UNL     1       7.666   5.209  20.299  0.00  0.00    +0.000 OA
ATOM      2  C   UNL     1       7.080   5.584  19.290  0.00  0.00    +0.000 A 
ATOM      3  C   UNL     1       5.860   4.888  18.834  0.00  0.00    +0.000 A 
ATOM      4  C   UNL     1       5.199   5.314  17.744  0.00  0.00    +0.000 A 
ATOM      5  O   UNL     1       5.658   6.390  16.987  0.00  0.00    +0.000 OA
ATOM      6  C   UNL     1       6.799   7.049  17.391  0.00  0.00    +0.000 A 
ATOM      7  C   UNL     1       7.531   6.740  18.467  0.00  0.00    +0.000 A 
ENDROOT
BRANCH   7   8
ATOM      8  O   UNL     1       8.664   7.431  18.839  0.00  0.00    +0.000 OA
ATOM      9  H   UNL     1       9.024   7.897  18.068  0.00  0.00    +0.000 HD
ENDBRANCH   7   8
BRANCH   4  10
ATOM     10  C   UNL     1       3.909   4.715  17.218  0.00  0.00    +0.000 C 
BRANCH  10  11
ATOM     11  S   UNL     1       2.434   5.532  17.929  0.00  0.00    +0.000 S 
BRANCH  11  12
ATOM     12  C   UNL     1       2.013   4.512  19.329  0.00  0.00    +0.000 A 
ATOM     13  C   UNL     1       1.205   3.392  19.083  0.00  0.00    +0.000 A 
ATOM     14  C   UNL     1       0.914   2.479  20.099  0.00  0.00    +0.000 A 
ATOM     15  C   UNL     1       1.432   2.675  21.375  0.00  0.00    +0.000 A 
ATOM     16  C   UNL     1       2.231   3.786  21.636  0.00  0.00    +0.000 A 
ATOM     17  C   UNL     1       2.523   4.702  20.616  0.00  0.00    +0.000 A 
ENDBRANCH  11  12
ENDBRANCH  10  11
ENDBRANCH   4  10
TORSDOF 4
ENDMDL
MODEL 6
REMARK VINA RESULT:      -6.5      1.505      2.320
REMARK  Name = 
REMARK  4 active torsions:
REMARK  status: ('A' for Active; 'I' for Inactive)
REMARK    1  A    between atoms: C_4  and  C_5
REMARK    2  A    between atoms: C_5  and  S_6
REMARK    3  A    between atoms: S_6  and  C_7
REMARK    4  A    between atoms: C_15  and  O_16
REMARK                            x       y       z     vdW  Elec       q    Type
REMARK                         _______ _______ _______ _____ _____    ______ ____
ROOT
ATOM      1  O   UNL     1       7.844   5.560  14.695  0.00  0.00    +0.000 OA
ATOM      2  C   UNL     1       6.878   5.126  15.311  0.00  0.00    +0.000 A 
ATOM      3  C   UNL     1       6.447   5.765  16.571  0.00  0.00    +0.000 A 
ATOM      4  C   UNL     1       5.371   5.309  17.234  0.00  0.00    +0.000 A 
ATOM      5  O   UNL     1       4.653   4.202  16.785  0.00  0.00    +0.000 OA
ATOM      6  C   UNL     1       5.042   3.587  15.615  0.00  0.00    +0.000 A 
ATOM      7  C   UNL     1       6.077   3.958  14.852  0.00  0.00    +0.000 A 
ENDROOT
BRANCH   7   8
ATOM      8  O   UNL     1       6.428   3.316  13.684  0.00  0.00    +0.000 OA
ATOM      9  H   UNL     1       5.718   2.709  13.425  0.00  0.00    +0.000 HD
ENDBRANCH   7   8
BRANCH   4  10
ATOM     10  C   UNL     1       4.805   5.919  18.502  0.00  0.00    +0.000 C 
BRANCH  10  11
ATOM     11  S   UNL     1       3.016   6.269  18.354  0.00  0.00    +0.000 S 
BRANCH  11  12
ATOM     12  C   UNL     1       2.245   4.970  19.301  0.00  0.00    +0.000 A 
ATOM     13  C   UNL     1       1.524   4.001  18.586  0.00  0.00    +0.000 A 
ATOM     14  C   UNL     1       0.979   2.890  19.232  0.00  0.00    +0.000 A 
ATOM     15  C   UNL     1       1.152   2.733  20.604  0.00  0.00    +0.000 A 
ATOM     16  C   UNL     1       1.859   3.690  21.327  0.00  0.00    +0.000 A 
ATOM     17  C   UNL     1       2.407   4.805  20.678  0.00  0.00    +0.000 A 
ENDBRANCH  11  12
ENDBRANCH  10  11
ENDBRANCH   4  10
TORSDOF 4
ENDMDL
MODEL 7
REMARK VINA RESULT:      -6.4      2.944      5.933
REMARK  Name = 
REMARK  4 active torsions:
REMARK  status: ('A' for Active; 'I' for Inactive)
REMARK    1  A    between atoms: C_4  and  C_5
REMARK    2  A    between atoms: C_5  and  S_6
REMARK    3  A    between atoms: S_6  and  C_7
REMARK    4  A    between atoms: C_15  and  O_16
REMARK                            x       y       z     vdW  Elec       q    Type
REMARK                         _______ _______ _______ _____ _____    ______ ____
ROOT
ATOM      1  O   UNL     1       4.153   1.941  21.315  0.00  0.00    +0.000 OA
ATOM      2  C   UNL     1       3.411   2.674  20.673  0.00  0.00    +0.000 A 
ATOM      3  C   UNL     1       3.859   3.253  19.390  0.00  0.00    +0.000 A 
ATOM      4  C   UNL     1       3.037   4.034  18.670  0.00  0.00    +0.000 A 
ATOM      5  O   UNL     1       1.758   4.359  19.121  0.00  0.00    +0.000 OA
ATOM      6  C   UNL     1       1.323   3.836  20.319  0.00  0.00    +0.000 A 
ATOM      7  C   UNL     1       2.034   3.028  21.115  0.00  0.00    +0.000 A 
ENDROOT
BRANCH   7   8
ATOM      8  O   UNL     1       1.556   2.521  22.304  0.00  0.00    +0.000 OA
ATOM      9  H   UNL     1       2.027   1.700  22.517  0.00  0.00    +0.000 HD
ENDBRANCH   7   8
BRANCH   4  10
ATOM     10  C   UNL     1       3.367   4.634  17.317  0.00  0.00    +0.000 C 
BRANCH  10  11
ATOM     11  S   UNL     1       5.031   4.142  16.737  0.00  0.00    +0.000 S 
BRANCH  11  12
ATOM     12  C   UNL     1       6.105   5.403  17.396  0.00  0.00    +0.000 A 
ATOM     13  C   UNL     1       7.001   5.015  18.405  0.00  0.00    +0.000 A 
ATOM     14  C   UNL     1       7.951   5.908  18.903  0.00  0.00    +0.000 A 
ATOM     15  C   UNL     1       8.019   7.202  18.396  0.00  0.00    +0.000 A 
ATOM     16  C   UNL     1       7.132   7.603  17.400  0.00  0.00    +0.000 A 
ATOM     17  C   UNL     1       6.178   6.706  16.900  0.00  0.00    +0.000 A 
ENDBRANCH  11  12
ENDBRANCH  10  11
ENDBRANCH   4  10
TORSDOF 4
ENDMDL
MODEL 8
REMARK VINA RESULT:      -6.3      1.791      2.367
REMARK  Name = 
REMARK  4 active torsions:
REMARK  status: ('A' for Active; 'I' for Inactive)
REMARK    1  A    between atoms: C_4  and  C_5
REMARK    2  A    between atoms: C_5  and  S_6
REMARK    3  A    between atoms: S_6  and  C_7
REMARK    4  A    between atoms: C_15  and  O_16
REMARK                            x       y       z     vdW  Elec       q    Type
REMARK                         _______ _______ _______ _____ _____    ______ ____
ROOT
ATOM      1  O   UNL     1       7.606   5.133  14.818  0.00  0.00    +0.000 OA
ATOM      2  C   UNL     1       6.727   5.276  15.660  0.00  0.00    +0.000 A 
ATOM      3  C   UNL     1       5.561   4.369  15.683  0.00  0.00    +0.000 A 
ATOM      4  C   UNL     1       4.610   4.505  16.622  0.00  0.00    +0.000 A 
ATOM      5  O   UNL     1       4.665   5.522  17.574  0.00  0.00    +0.000 OA
ATOM      6  C   UNL     1       5.740   6.383  17.566  0.00  0.00    +0.000 A 
ATOM      7  C   UNL     1       6.761   6.338  16.702  0.00  0.00    +0.000 A 
ENDROOT
BRANCH   7   8
ATOM      8  O   UNL     1       7.822   7.218  16.733  0.00  0.00    +0.000 OA
ATOM      9  H   UNL     1       7.814   7.760  15.929  0.00  0.00    +0.000 HD
ENDBRANCH   7   8
BRANCH   4  10
ATOM     10  C   UNL     1       3.403   3.600  16.778  0.00  0.00    +0.000 C 
BRANCH  10  11
ATOM     11  S   UNL     1       2.060   4.406  17.723  0.00  0.00    +0.000 S 
BRANCH  11  12
ATOM     12  C   UNL     1       2.084   3.573  19.299  0.00  0.00    +0.000 A 
ATOM     13  C   UNL     1       3.302   3.004  19.701  0.00  0.00    +0.000 A 
ATOM     14  C   UNL     1       3.442   2.427  20.964  0.00  0.00    +0.000 A 
ATOM     15  C   UNL     1       2.364   2.414  21.843  0.00  0.00    +0.000 A 
ATOM     16  C   UNL     1       1.147   2.968  21.455  0.00  0.00    +0.000 A 
ATOM     17  C   UNL     1       1.006   3.548  20.187  0.00  0.00    +0.000 A 
ENDBRANCH  11  12
ENDBRANCH  10  11
ENDBRANCH   4  10
TORSDOF 4
ENDMDL
MODEL 9
REMARK VINA RESULT:      -6.3      1.768      2.548
REMARK  Name = 
REMARK  4 active torsions:
REMARK  status: ('A' for Active; 'I' for Inactive)
REMARK    1  A    between atoms: C_4  and  C_5
REMARK    2  A    between atoms: C_5  and  S_6
REMARK    3  A    between atoms: S_6  and  C_7
REMARK    4  A    between atoms: C_15  and  O_16
REMARK                            x       y       z     vdW  Elec       q    Type
REMARK                         _______ _______ _______ _____ _____    ______ ____
ROOT
ATOM      1  O   UNL     1       8.123   5.659  13.943  0.00  0.00    +0.000 OA
ATOM      2  C   UNL     1       7.187   5.118  14.521  0.00  0.00    +0.000 A 
ATOM      3  C   UNL     1       6.863   5.478  15.916  0.00  0.00    +0.000 A 
ATOM      4  C   UNL     1       5.820   4.907  16.542  0.00  0.00    +0.000 A 
ATOM      5  O   UNL     1       5.038   3.936  15.920  0.00  0.00    +0.000 OA
ATOM      6  C   UNL     1       5.327   3.581  14.621  0.00  0.00    +0.000 A 
ATOM      7  C   UNL     1       6.319   4.091  13.882  0.00  0.00    +0.000 A 
ENDROOT
BRANCH   7   8
ATOM      8  O   UNL     1       6.570   3.711  12.581  0.00  0.00    +0.000 OA
ATOM      9  H   UNL     1       5.928   4.137  11.992  0.00  0.00    +0.000 HD
ENDBRANCH   7   8
BRANCH   4  10
ATOM     10  C   UNL     1       5.361   5.239  17.949  0.00  0.00    +0.000 C 
BRANCH  10  11
ATOM     11  S   UNL     1       3.717   6.042  17.962  0.00  0.00    +0.000 S 
BRANCH  11  12
ATOM     12  C   UNL     1       2.636   4.794  18.637  0.00  0.00    +0.000 A 
ATOM     13  C   UNL     1       2.075   5.050  19.898  0.00  0.00    +0.000 A 
ATOM     14  C   UNL     1       1.136   4.181  20.455  0.00  0.00    +0.000 A 
ATOM     15  C   UNL     1       0.743   3.044  19.755  0.00  0.00    +0.000 A 
ATOM     16  C   UNL     1       1.297   2.774  18.506  0.00  0.00    +0.000 A 
ATOM     17  C   UNL     1       2.240   3.646  17.947  0.00  0.00    +0.000 A 
ENDBRANCH  11  12
ENDBRANCH  10  11
ENDBRANCH   4  10
TORSDOF 4
ENDMDL
