MODEL 1
REMARK VINA RESULT:      -8.2      0.000      0.000
REMARK  Name = 
REMARK  7 active torsions:
REMARK  status: ('A' for Active; 'I' for Inactive)
REMARK    1  A    between atoms: C_1  and  O_2
REMARK    2  A    between atoms: O_2  and  C_3
REMARK    3  A    between atoms: C_6  and  C_7
REMARK    4  A    between atoms: C_7  and  C_8
REMARK    5  A    between atoms: N_9  and  N_10
REMARK    6  A    between atoms: C_19  and  O_20
REMARK    7  A    between atoms: O_20  and  C_21
REMARK                            x       y       z     vdW  Elec       q    Type
REMARK                         _______ _______ _______ _____ _____    ______ ____
ROOT
ATOM      1  N   UNL     1       2.208   5.920  20.210  0.00  0.00    +0.000 N 
ATOM      2  C   UNL     1       1.825   4.592  20.271  0.00  0.00    +0.000 C 
ATOM      3  O   UNL     1       0.920   4.148  20.979  0.00  0.00    +0.000 OA
ATOM      4  N   UNL     1       2.477   3.733  19.410  0.00  0.00    +0.000 N 
ATOM      5  C   UNL     1       3.536   4.093  18.624  0.00  0.00    +0.000 A 
ATOM      6  N   UNL     1       4.190   5.222  18.711  0.00  0.00    +0.000 NA
ATOM      7  C   UNL     1       5.165   5.262  17.743  0.00  0.00    +0.000 A 
ATOM      8  C   UNL     1       6.069   6.321  17.575  0.00  0.00    +0.000 A 
ATOM      9  C   UNL     1       6.965   6.286  16.511  0.00  0.00    +0.000 A 
ATOM     10  C   UNL     1       6.981   5.221  15.611  0.00  0.00    +0.000 A 
ATOM     11  C   UNL     1       6.112   4.134  15.781  0.00  0.00    +0.000 A 
ATOM     12  C   UNL     1       5.213   4.171  16.872  0.00  0.00    +0.000 A 
ATOM     13  S   UNL     1       4.035   3.008  17.412  0.00  0.00    +0.000 S 
ATOM     14  H   UNL     1       3.012   6.142  19.632  0.00  0.00    +0.000 HD
ATOM     15  H   UNL     1       2.112   2.796  19.359  0.00  0.00    +0.000 HD
ENDROOT
BRANCH   1  18
ATOM     16  C   UNL     1       1.425   8.070  20.345  0.00  0.00    +0.000 C 
ATOM     17  C   UNL     1       1.901   8.384  18.937  0.00  0.00    +0.000 C 
ATOM     18  N   UNL     1       1.580   6.905  20.916  0.00  0.00    +0.000 NA
BRANCH  16  22
ATOM     19  C   UNL     1      -0.494  11.271  22.515  0.00  0.00    +0.000 A 
ATOM     20  C   UNL     1      -0.466   9.982  23.054  0.00  0.00    +0.000 A 
ATOM     21  C   UNL     1       0.171   8.935  22.380  0.00  0.00    +0.000 A 
ATOM     22  C   UNL     1       0.761   9.160  21.129  0.00  0.00    +0.000 A 
ATOM     23  C   UNL     1       0.724  10.452  20.587  0.00  0.00    +0.000 A 
ATOM     24  C   UNL     1       0.099  11.500  21.273  0.00  0.00    +0.000 A 
BRANCH  19  26
ATOM     25  C   UNL     1      -2.575  12.139  23.228  0.00  0.00    +0.000 C 
ATOM     26  O   UNL     1      -1.153  12.206  23.265  0.00  0.00    +0.000 OA
ENDBRANCH  19  26
ENDBRANCH  16  22
ENDBRANCH   1  18
BRANCH  10  27
ATOM     27  O   UNL     1       7.910   5.386  14.622  0.00  0.00    +0.000 OA
ATOM     28  C   UNL     1       7.555   5.034  13.295  0.00  0.00    +0.000 C 
ENDBRANCH  10  27
TORSDOF 4
ENDMDL
MODEL 2
REMARK VINA RESULT:      -7.3      3.923      9.943
REMARK  Name = 
REMARK  7 active torsions:
REMARK  status: ('A' for Active; 'I' for Inactive)
REMARK    1  A    between atoms: C_1  and  O_2
REMARK    2  A    between atoms: O_2  and  C_3
REMARK    3  A    between atoms: C_6  and  C_7
REMARK    4  A    between atoms: C_7  and  C_8
REMARK    5  A    between atoms: N_9  and  N_10
REMARK    6  A    between atoms: C_19  and  O_20
REMARK    7  A    between atoms: O_20  and  C_21
REMARK                            x       y       z     vdW  Elec       q    Type
REMARK                         _______ _______ _______ _____ _____    ______ ____
ROOT
ATOM      1  N   UNL     1       1.378   9.480  19.143  0.00  0.00    +0.000 N 
ATOM      2  C   UNL     1       1.676  10.475  18.230  0.00  0.00    +0.000 C 
ATOM      3  O   UNL     1       2.435  10.351  17.269  0.00  0.00    +0.000 OA
ATOM      4  N   UNL     1       1.001  11.669  18.393  0.00  0.00    +0.000 N 
ATOM      5  C   UNL     1       0.184  11.948  19.452  0.00  0.00    +0.000 A 
ATOM      6  N   UNL     1       0.073  11.221  20.533  0.00  0.00    +0.000 NA
ATOM      7  C   UNL     1      -0.867  11.778  21.367  0.00  0.00    +0.000 A 
ATOM      8  C   UNL     1      -1.209  11.266  22.626  0.00  0.00    +0.000 A 
ATOM      9  C   UNL     1      -2.230  11.872  23.351  0.00  0.00    +0.000 A 
ATOM     10  C   UNL     1      -2.918  12.977  22.850  0.00  0.00    +0.000 A 
ATOM     11  C   UNL     1      -2.568  13.530  21.609  0.00  0.00    +0.000 A 
ATOM     12  C   UNL     1      -1.520  12.915  20.885  0.00  0.00    +0.000 A 
ATOM     13  S   UNL     1      -0.798  13.336  19.358  0.00  0.00    +0.000 S 
ATOM     14  H   UNL     1       0.784   9.735  19.926  0.00  0.00    +0.000 HD
ATOM     15  H   UNL     1       1.117  12.347  17.657  0.00  0.00    +0.000 HD
ENDROOT
BRANCH   1  18
ATOM     16  C   UNL     1       1.791   7.435  20.092  0.00  0.00    +0.000 C 
ATOM     17  C   UNL     1       1.160   7.862  21.407  0.00  0.00    +0.000 C 
ATOM     18  N   UNL     1       1.877   8.214  19.046  0.00  0.00    +0.000 NA
BRANCH  16  22
ATOM     19  C   UNL     1       3.345   3.415  19.842  0.00  0.00    +0.000 A 
ATOM     20  C   UNL     1       4.036   4.468  19.237  0.00  0.00    +0.000 A 
ATOM     21  C   UNL     1       3.564   5.782  19.326  0.00  0.00    +0.000 A 
ATOM     22  C   UNL     1       2.363   6.054  19.996  0.00  0.00    +0.000 A 
ATOM     23  C   UNL     1       1.668   4.994  20.593  0.00  0.00    +0.000 A 
ATOM     24  C   UNL     1       2.154   3.684  20.515  0.00  0.00    +0.000 A 
BRANCH  19  26
ATOM     25  C   UNL     1       3.594   1.515  18.455  0.00  0.00    +0.000 C 
ATOM     26  O   UNL     1       3.904   2.178  19.678  0.00  0.00    +0.000 OA
ENDBRANCH  19  26
ENDBRANCH  16  22
ENDBRANCH   1  18
BRANCH  10  27
ATOM     27  O   UNL     1      -3.902  13.408  23.695  0.00  0.00    +0.000 OA
ATOM     28  C   UNL     1      -4.435  12.490  24.636  0.00  0.00    +0.000 C 
ENDBRANCH  10  27
TORSDOF 4
ENDMDL
MODEL 3
REMARK VINA RESULT:      -7.3      0.870      1.332
REMARK  Name = 
REMARK  7 active torsions:
REMARK  status: ('A' for Active; 'I' for Inactive)
REMARK    1  A    between atoms: C_1  and  O_2
REMARK    2  A    between atoms: O_2  and  C_3
REMARK    3  A    between atoms: C_6  and  C_7
REMARK    4  A    between atoms: C_7  and  C_8
REMARK    5  A    between atoms: N_9  and  N_10
REMARK    6  A    between atoms: C_19  and  O_20
REMARK    7  A    between atoms: O_20  and  C_21
REMARK                            x       y       z     vdW  Elec       q    Type
REMARK                         _______ _______ _______ _____ _____    ______ ____
ROOT
ATOM      1  N   UNL     1       2.212   6.536  20.012  0.00  0.00    +0.000 N 
ATOM      2  C   UNL     1       1.807   5.232  20.232  0.00  0.00    +0.000 C 
ATOM      3  O   UNL     1       0.891   4.892  20.981  0.00  0.00    +0.000 OA
ATOM      4  N   UNL     1       2.450   4.264  19.487  0.00  0.00    +0.000 N 
ATOM      5  C   UNL     1       3.519   4.509  18.671  0.00  0.00    +0.000 A 
ATOM      6  N   UNL     1       4.191   5.629  18.624  0.00  0.00    +0.000 NA
ATOM      7  C   UNL     1       5.173   5.536  17.666  0.00  0.00    +0.000 A 
ATOM      8  C   UNL     1       6.095   6.551  17.378  0.00  0.00    +0.000 A 
ATOM      9  C   UNL     1       6.996   6.373  16.333  0.00  0.00    +0.000 A 
ATOM     10  C   UNL     1       7.000   5.206  15.570  0.00  0.00    +0.000 A 
ATOM     11  C   UNL     1       6.112   4.161  15.864  0.00  0.00    +0.000 A 
ATOM     12  C   UNL     1       5.207   4.346  16.935  0.00  0.00    +0.000 A 
ATOM     13  S   UNL     1       4.007   3.276  17.604  0.00  0.00    +0.000 S 
ATOM     14  H   UNL     1       3.024   6.673  19.417  0.00  0.00    +0.000 HD
ATOM     15  H   UNL     1       2.069   3.333  19.547  0.00  0.00    +0.000 HD
ENDROOT
BRANCH   1  18
ATOM     16  C   UNL     1       1.354   8.654  19.841  0.00  0.00    +0.000 C 
ATOM     17  C   UNL     1       1.715   8.735  18.367  0.00  0.00    +0.000 C 
ATOM     18  N   UNL     1       1.597   7.609  20.587  0.00  0.00    +0.000 NA
BRANCH  16  22
ATOM     19  C   UNL     1      -0.505  12.038  21.773  0.00  0.00    +0.000 A 
ATOM     20  C   UNL     1      -0.039  12.154  20.461  0.00  0.00    +0.000 A 
ATOM     21  C   UNL     1       0.545  11.064  19.807  0.00  0.00    +0.000 A 
ATOM     22  C   UNL     1       0.703   9.844  20.479  0.00  0.00    +0.000 A 
ATOM     23  C   UNL     1       0.242   9.734  21.797  0.00  0.00    +0.000 A 
ATOM     24  C   UNL     1      -0.356  10.823  22.441  0.00  0.00    +0.000 A 
BRANCH  19  26
ATOM     25  C   UNL     1      -0.150  14.265  22.486  0.00  0.00    +0.000 C 
ATOM     26  O   UNL     1      -1.049  13.175  22.304  0.00  0.00    +0.000 OA
ENDBRANCH  19  26
ENDBRANCH  16  22
ENDBRANCH   1  18
BRANCH  10  27
ATOM     27  O   UNL     1       7.938   5.234  14.575  0.00  0.00    +0.000 OA
ATOM     28  C   UNL     1       7.508   5.052  13.236  0.00  0.00    +0.000 C 
ENDBRANCH  10  27
TORSDOF 4
ENDMDL
MODEL 4
REMARK VINA RESULT:      -7.3      1.131      1.197
REMARK  Name = 
REMARK  7 active torsions:
REMARK  status: ('A' for Active; 'I' for Inactive)
REMARK    1  A    between atoms: C_1  and  O_2
REMARK    2  A    between atoms: O_2  and  C_3
REMARK    3  A    between atoms: C_6  and  C_7
REMARK    4  A    between atoms: C_7  and  C_8
REMARK    5  A    between atoms: N_9  and  N_10
REMARK    6  A    between atoms: C_19  and  O_20
REMARK    7  A    between atoms: O_20  and  C_21
REMARK                            x       y       z     vdW  Elec       q    Type
REMARK                         _______ _______ _______ _____ _____    ______ ____
ROOT
ATOM      1  N   UNL     1       2.451   6.119  19.996  0.00  0.00    +0.000 N 
ATOM      2  C   UNL     1       2.512   4.877  20.601  0.00  0.00    +0.000 C 
ATOM      3  O   UNL     1       1.958   4.575  21.659  0.00  0.00    +0.000 OA
ATOM      4  N   UNL     1       3.195   3.898  19.908  0.00  0.00    +0.000 N 
ATOM      5  C   UNL     1       3.902   4.123  18.760  0.00  0.00    +0.000 A 
ATOM      6  N   UNL     1       4.185   5.301  18.267  0.00  0.00    +0.000 NA
ATOM      7  C   UNL     1       4.872   5.151  17.086  0.00  0.00    +0.000 A 
ATOM      8  C   UNL     1       5.354   6.215  16.311  0.00  0.00    +0.000 A 
ATOM      9  C   UNL     1       5.971   5.945  15.094  0.00  0.00    +0.000 A 
ATOM     10  C   UNL     1       6.117   4.638  14.630  0.00  0.00    +0.000 A 
ATOM     11  C   UNL     1       5.677   3.555  15.405  0.00  0.00    +0.000 A 
ATOM     12  C   UNL     1       5.063   3.838  16.647  0.00  0.00    +0.000 A 
ATOM     13  S   UNL     1       4.437   2.773  17.874  0.00  0.00    +0.000 S 
ATOM     14  H   UNL     1       3.008   6.251  19.157  0.00  0.00    +0.000 HD
ATOM     15  H   UNL     1       3.131   2.964  20.280  0.00  0.00    +0.000 HD
ENDROOT
BRANCH   1  18
ATOM     16  C   UNL     1       1.551   8.213  19.756  0.00  0.00    +0.000 C 
ATOM     17  C   UNL     1       2.122   8.352  18.355  0.00  0.00    +0.000 C 
ATOM     18  N   UNL     1       1.719   7.153  20.502  0.00  0.00    +0.000 NA
BRANCH  16  22
ATOM     19  C   UNL     1      -0.737  11.538  21.286  0.00  0.00    +0.000 A 
ATOM     20  C   UNL     1      -0.217  10.586  22.167  0.00  0.00    +0.000 A 
ATOM     21  C   UNL     1       0.548   9.514  21.696  0.00  0.00    +0.000 A 
ATOM     22  C   UNL     1       0.771   9.361  20.321  0.00  0.00    +0.000 A 
ATOM     23  C   UNL     1       0.241  10.312  19.440  0.00  0.00    +0.000 A 
ATOM     24  C   UNL     1      -0.510  11.392  19.918  0.00  0.00    +0.000 A 
BRANCH  19  26
ATOM     25  C   UNL     1      -0.756  13.411  22.730  0.00  0.00    +0.000 C 
ATOM     26  O   UNL     1      -1.473  12.533  21.868  0.00  0.00    +0.000 OA
ENDBRANCH  19  26
ENDBRANCH  16  22
ENDBRANCH   1  18
BRANCH  10  27
ATOM     27  O   UNL     1       6.720   4.582  13.405  0.00  0.00    +0.000 OA
ATOM     28  C   UNL     1       6.349   3.540  12.516  0.00  0.00    +0.000 C 
ENDBRANCH  10  27
TORSDOF 4
ENDMDL
MODEL 5
REMARK VINA RESULT:      -7.2      4.230      8.827
REMARK  Name = 
REMARK  7 active torsions:
REMARK  status: ('A' for Active; 'I' for Inactive)
REMARK    1  A    between atoms: C_1  and  O_2
REMARK    2  A    between atoms: O_2  and  C_3
REMARK    3  A    between atoms: C_6  and  C_7
REMARK    4  A    between atoms: C_7  and  C_8
REMARK    5  A    between atoms: N_9  and  N_10
REMARK    6  A    between atoms: C_19  and  O_20
REMARK    7  A    between atoms: O_20  and  C_21
REMARK                            x       y       z     vdW  Elec       q    Type
REMARK                         _______ _______ _______ _____ _____    ______ ____
ROOT
ATOM      1  N   UNL     1       1.158   9.090  20.304  0.00  0.00    +0.000 N 
ATOM      2  C   UNL     1       0.159   9.307  21.236  0.00  0.00    +0.000 C 
ATOM      3  O   UNL     1      -0.433   8.424  21.857  0.00  0.00    +0.000 OA
ATOM      4  N   UNL     1      -0.127  10.626  21.523  0.00  0.00    +0.000 N 
ATOM      5  C   UNL     1       0.416  11.690  20.858  0.00  0.00    +0.000 A 
ATOM      6  N   UNL     1       1.120  11.614  19.759  0.00  0.00    +0.000 NA
ATOM      7  C   UNL     1       1.537  12.871  19.393  0.00  0.00    +0.000 A 
ATOM      8  C   UNL     1       2.289  13.152  18.244  0.00  0.00    +0.000 A 
ATOM      9  C   UNL     1       2.720  14.454  18.015  0.00  0.00    +0.000 A 
ATOM     10  C   UNL     1       2.420  15.484  18.906  0.00  0.00    +0.000 A 
ATOM     11  C   UNL     1       1.638  15.235  20.043  0.00  0.00    +0.000 A 
ATOM     12  C   UNL     1       1.193  13.910  20.262  0.00  0.00    +0.000 A 
ATOM     13  S   UNL     1       0.193  13.242  21.520  0.00  0.00    +0.000 S 
ATOM     14  H   UNL     1       1.520   9.905  19.817  0.00  0.00    +0.000 HD
ATOM     15  H   UNL     1      -0.758  10.786  22.292  0.00  0.00    +0.000 HD
ENDROOT
BRANCH   1  18
ATOM     16  C   UNL     1       2.163   7.661  18.821  0.00  0.00    +0.000 C 
ATOM     17  C   UNL     1       2.291   8.756  17.775  0.00  0.00    +0.000 C 
ATOM     18  N   UNL     1       1.630   7.847  19.999  0.00  0.00    +0.000 NA
BRANCH  16  22
ATOM     19  C   UNL     1       3.677   3.751  17.794  0.00  0.00    +0.000 A 
ATOM     20  C   UNL     1       2.561   3.869  18.626  0.00  0.00    +0.000 A 
ATOM     21  C   UNL     1       2.038   5.125  18.952  0.00  0.00    +0.000 A 
ATOM     22  C   UNL     1       2.656   6.289  18.475  0.00  0.00    +0.000 A 
ATOM     23  C   UNL     1       3.781   6.167  17.649  0.00  0.00    +0.000 A 
ATOM     24  C   UNL     1       4.290   4.907  17.312  0.00  0.00    +0.000 A 
BRANCH  19  26
ATOM     25  C   UNL     1       3.572   1.474  18.428  0.00  0.00    +0.000 C 
ATOM     26  O   UNL     1       4.096   2.471  17.555  0.00  0.00    +0.000 OA
ENDBRANCH  19  26
ENDBRANCH  16  22
ENDBRANCH   1  18
BRANCH  10  27
ATOM     27  O   UNL     1       2.956  16.682  18.521  0.00  0.00    +0.000 OA
ATOM     28  C   UNL     1       2.997  16.990  17.137  0.00  0.00    +0.000 C 
ENDBRANCH  10  27
TORSDOF 4
ENDMDL
MODEL 6
REMARK VINA RESULT:      -7.2      4.192      8.783
REMARK  Name = 
REMARK  7 active torsions:
REMARK  status: ('A' for Active; 'I' for Inactive)
REMARK    1  A    between atoms: C_1  and  O_2
REMARK    2  A    between atoms: O_2  and  C_3
REMARK    3  A    between atoms: C_6  and  C_7
REMARK    4  A    between atoms: C_7  and  C_8
REMARK    5  A    between atoms: N_9  and  N_10
REMARK    6  A    between atoms: C_19  and  O_20
REMARK    7  A    between atoms: O_20  and  C_21
REMARK                            x       y       z     vdW  Elec       q    Type
REMARK                         _______ _______ _______ _____ _____    ______ ____
ROOT
ATOM      1  N   UNL     1       1.104   9.193  20.844  0.00  0.00    +0.000 N 
ATOM      2  C   UNL     1      -0.026   9.508  21.577  0.00  0.00    +0.000 C 
ATOM      3  O   UNL     1      -0.694   8.706  22.229  0.00  0.00    +0.000 OA
ATOM      4  N   UNL     1      -0.366  10.845  21.621  0.00  0.00    +0.000 N 
ATOM      5  C   UNL     1       0.258  11.819  20.893  0.00  0.00    +0.000 A 
ATOM      6  N   UNL     1       1.120  11.608  19.932  0.00  0.00    +0.000 NA
ATOM      7  C   UNL     1       1.573  12.813  19.449  0.00  0.00    +0.000 A 
ATOM      8  C   UNL     1       2.485  12.948  18.393  0.00  0.00    +0.000 A 
ATOM      9  C   UNL     1       2.931  14.218  18.040  0.00  0.00    +0.000 A 
ATOM     10  C   UNL     1       2.490  15.355  18.715  0.00  0.00    +0.000 A 
ATOM     11  C   UNL     1       1.549  15.248  19.750  0.00  0.00    +0.000 A 
ATOM     12  C   UNL     1       1.091  13.954  20.094  0.00  0.00    +0.000 A 
ATOM     13  S   UNL     1      -0.079  13.443  21.277  0.00  0.00    +0.000 S 
ATOM     14  H   UNL     1       1.525   9.940  20.300  0.00  0.00    +0.000 HD
ATOM     15  H   UNL     1      -1.107  11.093  22.256  0.00  0.00    +0.000 HD
ENDROOT
BRANCH   1  18
ATOM     16  C   UNL     1       2.111   7.507  19.663  0.00  0.00    +0.000 C 
ATOM     17  C   UNL     1       2.121   8.338  18.390  0.00  0.00    +0.000 C 
ATOM     18  N   UNL     1       1.630   7.935  20.799  0.00  0.00    +0.000 NA
BRANCH  16  22
ATOM     19  C   UNL     1       3.616   3.463  19.549  0.00  0.00    +0.000 A 
ATOM     20  C   UNL     1       4.145   4.427  18.688  0.00  0.00    +0.000 A 
ATOM     21  C   UNL     1       3.690   5.749  18.724  0.00  0.00    +0.000 A 
ATOM     22  C   UNL     1       2.664   6.115  19.605  0.00  0.00    +0.000 A 
ATOM     23  C   UNL     1       2.129   5.143  20.461  0.00  0.00    +0.000 A 
ATOM     24  C   UNL     1       2.600   3.826  20.432  0.00  0.00    +0.000 A 
BRANCH  19  26
ATOM     25  C   UNL     1       3.573   1.410  18.375  0.00  0.00    +0.000 C 
ATOM     26  O   UNL     1       4.138   2.206  19.412  0.00  0.00    +0.000 OA
ENDBRANCH  19  26
ENDBRANCH  16  22
ENDBRANCH   1  18
BRANCH  10  27
ATOM     27  O   UNL     1       3.064  16.501  18.240  0.00  0.00    +0.000 OA
ATOM     28  C   UNL     1       2.349  17.270  17.286  0.00  0.00    +0.000 C 
ENDBRANCH  10  27
TORSDOF 4
ENDMDL
MODEL 7
REMARK VINA RESULT:      -7.1      1.407      1.864
REMARK  Name = 
REMARK  7 active torsions:
REMARK  status: ('A' for Active; 'I' for Inactive)
REMARK    1  A    between atoms: C_1  and  O_2
REMARK    2  A    between atoms: O_2  and  C_3
REMARK    3  A    between atoms: C_6  and  C_7
REMARK    4  A    between atoms: C_7  and  C_8
REMARK    5  A    between atoms: N_9  and  N_10
REMARK    6  A    between atoms: C_19  and  O_20
REMARK    7  A    between atoms: O_20  and  C_21
REMARK                            x       y       z     vdW  Elec       q    Type
REMARK                         _______ _______ _______ _____ _____    ______ ____
ROOT
ATOM      1  N   UNL     1       2.402   6.632  19.619  0.00  0.00    +0.000 N 
ATOM      2  C   UNL     1       2.252   5.415  20.259  0.00  0.00    +0.000 C 
ATOM      3  O   UNL     1       1.592   5.229  21.282  0.00  0.00    +0.000 OA
ATOM      4  N   UNL     1       2.841   4.330  19.642  0.00  0.00    +0.000 N 
ATOM      5  C   UNL     1       3.648   4.418  18.542  0.00  0.00    +0.000 A 
ATOM      6  N   UNL     1       4.121   5.528  18.040  0.00  0.00    +0.000 NA
ATOM      7  C   UNL     1       4.860   5.246  16.916  0.00  0.00    +0.000 A 
ATOM      8  C   UNL     1       5.533   6.208  16.150  0.00  0.00    +0.000 A 
ATOM      9  C   UNL     1       6.187   5.814  14.987  0.00  0.00    +0.000 A 
ATOM     10  C   UNL     1       6.185   4.483  14.570  0.00  0.00    +0.000 A 
ATOM     11  C   UNL     1       5.550   3.498  15.339  0.00  0.00    +0.000 A 
ATOM     12  C   UNL     1       4.898   3.905  16.526  0.00  0.00    +0.000 A 
ATOM     13  S   UNL     1       4.052   2.977  17.732  0.00  0.00    +0.000 S 
ATOM     14  H   UNL     1       3.027   6.659  18.819  0.00  0.00    +0.000 HD
ATOM     15  H   UNL     1       2.625   3.427  20.033  0.00  0.00    +0.000 HD
ENDROOT
BRANCH   1  18
ATOM     16  C   UNL     1       1.622   8.743  19.185  0.00  0.00    +0.000 C 
ATOM     17  C   UNL     1       2.077   8.667  17.737  0.00  0.00    +0.000 C 
ATOM     18  N   UNL     1       1.786   7.773  20.044  0.00  0.00    +0.000 NA
BRANCH  16  22
ATOM     19  C   UNL     1      -0.236  12.355  20.647  0.00  0.00    +0.000 A 
ATOM     20  C   UNL     1       0.162  12.268  19.310  0.00  0.00    +0.000 A 
ATOM     21  C   UNL     1       0.744  11.099  18.809  0.00  0.00    +0.000 A 
ATOM     22  C   UNL     1       0.970  10.006  19.657  0.00  0.00    +0.000 A 
ATOM     23  C   UNL     1       0.578  10.100  20.999  0.00  0.00    +0.000 A 
ATOM     24  C   UNL     1      -0.018  11.267  21.492  0.00  0.00    +0.000 A 
BRANCH  19  26
ATOM     25  C   UNL     1      -2.132  13.768  20.609  0.00  0.00    +0.000 C 
ATOM     26  O   UNL     1      -0.785  13.551  21.018  0.00  0.00    +0.000 OA
ENDBRANCH  19  26
ENDBRANCH  16  22
ENDBRANCH   1  18
BRANCH  10  27
ATOM     27  O   UNL     1       6.856   4.304  13.392  0.00  0.00    +0.000 OA
ATOM     28  C   UNL     1       6.276   3.465  12.406  0.00  0.00    +0.000 C 
ENDBRANCH  10  27
TORSDOF 4
ENDMDL
MODEL 8
REMARK VINA RESULT:      -7.0      2.839      3.613
REMARK  Name = 
REMARK  7 active torsions:
REMARK  status: ('A' for Active; 'I' for Inactive)
REMARK    1  A    between atoms: C_1  and  O_2
REMARK    2  A    between atoms: O_2  and  C_3
REMARK    3  A    between atoms: C_6  and  C_7
REMARK    4  A    between atoms: C_7  and  C_8
REMARK    5  A    between atoms: N_9  and  N_10
REMARK    6  A    between atoms: C_19  and  O_20
REMARK    7  A    between atoms: O_20  and  C_21
REMARK                            x       y       z     vdW  Elec       q    Type
REMARK                         _______ _______ _______ _____ _____    ______ ____
ROOT
ATOM      1  N   UNL     1       1.474   8.689  20.010  0.00  0.00    +0.000 N 
ATOM      2  C   UNL     1       1.194   7.781  21.015  0.00  0.00    +0.000 C 
ATOM      3  O   UNL     1       0.518   8.019  22.016  0.00  0.00    +0.000 OA
ATOM      4  N   UNL     1       1.663   6.498  20.820  0.00  0.00    +0.000 N 
ATOM      5  C   UNL     1       2.475   6.127  19.785  0.00  0.00    +0.000 A 
ATOM      6  N   UNL     1       3.064   6.949  18.957  0.00  0.00    +0.000 NA
ATOM      7  C   UNL     1       3.768   6.231  18.020  0.00  0.00    +0.000 A 
ATOM      8  C   UNL     1       4.541   6.804  17.001  0.00  0.00    +0.000 A 
ATOM      9  C   UNL     1       5.149   5.977  16.062  0.00  0.00    +0.000 A 
ATOM     10  C   UNL     1       5.005   4.591  16.116  0.00  0.00    +0.000 A 
ATOM     11  C   UNL     1       4.268   3.992  17.148  0.00  0.00    +0.000 A 
ATOM     12  C   UNL     1       3.663   4.840  18.105  0.00  0.00    +0.000 A 
ATOM     13  S   UNL     1       2.722   4.464  19.520  0.00  0.00    +0.000 S 
ATOM     14  H   UNL     1       2.098   8.381  19.270  0.00  0.00    +0.000 HD
ATOM     15  H   UNL     1       1.351   5.806  21.483  0.00  0.00    +0.000 HD
ENDROOT
BRANCH   1  18
ATOM     16  C   UNL     1       1.281  10.734  18.994  0.00  0.00    +0.000 C 
ATOM     17  C   UNL     1       2.141  10.289  17.822  0.00  0.00    +0.000 C 
ATOM     18  N   UNL     1       0.983   9.962  20.004  0.00  0.00    +0.000 NA
BRANCH  16  22
ATOM     19  C   UNL     1      -0.283  14.757  19.076  0.00  0.00    +0.000 A 
ATOM     20  C   UNL     1       1.037  14.531  18.679  0.00  0.00    +0.000 A 
ATOM     21  C   UNL     1       1.558  13.234  18.622  0.00  0.00    +0.000 A 
ATOM     22  C   UNL     1       0.766  12.141  19.000  0.00  0.00    +0.000 A 
ATOM     23  C   UNL     1      -0.555  12.372  19.406  0.00  0.00    +0.000 A 
ATOM     24  C   UNL     1      -1.076  13.670  19.446  0.00  0.00    +0.000 A 
BRANCH  19  26
ATOM     25  C   UNL     1       0.200  16.984  18.443  0.00  0.00    +0.000 C 
ATOM     26  O   UNL     1      -0.672  16.068  19.098  0.00  0.00    +0.000 OA
ENDBRANCH  19  26
ENDBRANCH  16  22
ENDBRANCH   1  18
BRANCH  10  27
ATOM     27  O   UNL     1       5.652   3.957  15.092  0.00  0.00    +0.000 OA
ATOM     28  C   UNL     1       6.712   4.637  14.439  0.00  0.00    +0.000 C 
ENDBRANCH  10  27
TORSDOF 4
ENDMDL
MODEL 9
REMARK VINA RESULT:      -7.0      3.987      9.349
REMARK  Name = 
REMARK  7 active torsions:
REMARK  status: ('A' for Active; 'I' for Inactive)
REMARK    1  A    between atoms: C_1  and  O_2
REMARK    2  A    between atoms: O_2  and  C_3
REMARK    3  A    between atoms: C_6  and  C_7
REMARK    4  A    between atoms: C_7  and  C_8
REMARK    5  A    between atoms: N_9  and  N_10
REMARK    6  A    between atoms: C_19  and  O_20
REMARK    7  A    between atoms: O_20  and  C_21
REMARK                            x       y       z     vdW  Elec       q    Type
REMARK                         _______ _______ _______ _____ _____    ______ ____
ROOT
ATOM      1  N   UNL     1       0.956   9.200  20.420  0.00  0.00    +0.000 N 
ATOM      2  C   UNL     1      -0.097   9.087  21.310  0.00  0.00    +0.000 C 
ATOM      3  O   UNL     1      -0.561   8.026  21.728  0.00  0.00    +0.000 OA
ATOM      4  N   UNL     1      -0.603  10.273  21.804  0.00  0.00    +0.000 N 
ATOM      5  C   UNL     1      -0.216  11.511  21.371  0.00  0.00    +0.000 A 
ATOM      6  N   UNL     1       0.529  11.744  20.323  0.00  0.00    +0.000 NA
ATOM      7  C   UNL     1       0.751  13.096  20.209  0.00  0.00    +0.000 A 
ATOM      8  C   UNL     1       1.488  13.693  19.177  0.00  0.00    +0.000 A 
ATOM      9  C   UNL     1       1.710  15.066  19.207  0.00  0.00    +0.000 A 
ATOM     10  C   UNL     1       1.216  15.858  20.243  0.00  0.00    +0.000 A 
ATOM     11  C   UNL     1       0.445  15.289  21.267  0.00  0.00    +0.000 A 
ATOM     12  C   UNL     1       0.213  13.895  21.222  0.00  0.00    +0.000 A 
ATOM     13  S   UNL     1      -0.711  12.863  22.277  0.00  0.00    +0.000 S 
ATOM     14  H   UNL     1       1.198  10.135  20.107  0.00  0.00    +0.000 HD
ATOM     15  H   UNL     1      -1.278  10.191  22.547  0.00  0.00    +0.000 HD
ENDROOT
BRANCH   1  18
ATOM     16  C   UNL     1       2.079   8.172  18.707  0.00  0.00    +0.000 C 
ATOM     17  C   UNL     1       1.889   9.373  17.796  0.00  0.00    +0.000 C 
ATOM     18  N   UNL     1       1.633   8.120  19.934  0.00  0.00    +0.000 NA
BRANCH  16  22
ATOM     19  C   UNL     1       4.238   4.785  17.127  0.00  0.00    +0.000 A 
ATOM     20  C   UNL     1       3.062   4.584  17.853  0.00  0.00    +0.000 A 
ATOM     21  C   UNL     1       2.333   5.667  18.354  0.00  0.00    +0.000 A 
ATOM     22  C   UNL     1       2.798   6.976  18.163  0.00  0.00    +0.000 A 
ATOM     23  C   UNL     1       3.983   7.173  17.441  0.00  0.00    +0.000 A 
ATOM     24  C   UNL     1       4.700   6.086  16.929  0.00  0.00    +0.000 A 
BRANCH  19  26
ATOM     25  C   UNL     1       5.884   3.831  15.721  0.00  0.00    +0.000 C 
ATOM     26  O   UNL     1       4.863   3.646  16.697  0.00  0.00    +0.000 OA
ENDBRANCH  19  26
ENDBRANCH  16  22
ENDBRANCH   1  18
BRANCH  10  27
ATOM     27  O   UNL     1       1.565  17.173  20.108  0.00  0.00    +0.000 OA
ATOM     28  C   UNL     1       1.348  17.805  18.857  0.00  0.00    +0.000 C 
ENDBRANCH  10  27
TORSDOF 4
ENDMDL
