MODEL 1
REMARK VINA RESULT:      -6.7      0.000      0.000
REMARK  Name = 
REMARK  4 active torsions:
REMARK  status: ('A' for Active; 'I' for Inactive)
REMARK    1  A    between atoms: C_1  and  C_2
REMARK    2  A    between atoms: C_2  and  C_3
REMARK    3  A    between atoms: C_3  and  N_4
REMARK    4  A    between atoms: C_5  and  C_7
REMARK                            x       y       z     vdW  Elec       q    Type
REMARK                         _______ _______ _______ _____ _____    ______ ____
ROOT
ATOM      1  C   UNL     1       4.407   5.205  17.627  0.00  0.00    +0.000 A 
ATOM      2  C   UNL     1       4.008   6.520  17.732  0.00  0.00    +0.000 A 
ATOM      3  S   UNL     1       2.688   6.740  18.768  0.00  0.00    +0.000 S 
ATOM      4  C   UNL     1       2.615   5.067  19.132  0.00  0.00    +0.000 A 
ATOM      5  C   UNL     1       3.582   4.332  18.456  0.00  0.00    +0.000 A 
ATOM      6  C   UNL     1       3.841   2.858  18.642  0.00  0.00    +0.000 C 
ATOM      7  C   UNL     1       2.642   1.912  18.712  0.00  0.00    +0.000 C 
ATOM      8  C   UNL     1       1.246   2.519  18.665  0.00  0.00    +0.000 C 
ATOM      9  C   UNL     1       0.891   3.305  19.919  0.00  0.00    +0.000 C 
ATOM     10  C   UNL     1       1.599   4.637  20.152  0.00  0.00    +0.000 C 
ENDROOT
BRANCH   1  12
ATOM     11  N   UNL     1       5.326   4.956  15.426  0.00  0.00    +0.000 N 
ATOM     12  C   UNL     1       5.545   4.812  16.782  0.00  0.00    +0.000 C 
ATOM     13  O   UNL     1       6.602   4.409  17.236  0.00  0.00    +0.000 OA
ATOM     14  H   UNL     1       4.475   5.384  15.089  0.00  0.00    +0.000 HD
BRANCH  11  15
ATOM     15  C   UNL     1       6.370   4.646  14.475  0.00  0.00    +0.000 C 
BRANCH  15  17
ATOM     16  C   UNL     1       6.800   3.766  12.157  0.00  0.00    +0.000 C 
ATOM     17  C   UNL     1       5.893   3.703  13.377  0.00  0.00    +0.000 C 
ENDBRANCH  15  17
ENDBRANCH  11  15
ENDBRANCH   1  12
TORSDOF 3
ENDMDL
MODEL 2
REMARK VINA RESULT:      -6.6      0.963      1.026
REMARK  Name = 
REMARK  4 active torsions:
REMARK  status: ('A' for Active; 'I' for Inactive)
REMARK    1  A    between atoms: C_1  and  C_2
REMARK    2  A    between atoms: C_2  and  C_3
REMARK    3  A    between atoms: C_3  and  N_4
REMARK    4  A    between atoms: C_5  and  C_7
REMARK                            x       y       z     vdW  Elec       q    Type
REMARK                         _______ _______ _______ _____ _____    ______ ____
ROOT
ATOM      1  C   UNL     1       4.760   5.104  16.800  0.00  0.00    +0.000 A 
ATOM      2  C   UNL     1       4.571   6.468  16.857  0.00  0.00    +0.000 A 
ATOM      3  S   UNL     1       3.406   6.937  17.991  0.00  0.00    +0.000 S 
ATOM      4  C   UNL     1       3.124   5.315  18.465  0.00  0.00    +0.000 A 
ATOM      5  C   UNL     1       3.901   4.409  17.753  0.00  0.00    +0.000 A 
ATOM      6  C   UNL     1       3.958   2.924  18.008  0.00  0.00    +0.000 C 
ATOM      7  C   UNL     1       2.645   2.176  18.246  0.00  0.00    +0.000 C 
ATOM      8  C   UNL     1       1.356   2.985  18.286  0.00  0.00    +0.000 C 
ATOM      9  C   UNL     1       1.246   3.877  19.514  0.00  0.00    +0.000 C 
ATOM     10  C   UNL     1       2.162   5.096  19.598  0.00  0.00    +0.000 C 
ENDROOT
BRANCH   1  12
ATOM     11  N   UNL     1       5.286   4.342  14.588  0.00  0.00    +0.000 N 
ATOM     12  C   UNL     1       5.739   4.502  15.882  0.00  0.00    +0.000 C 
ATOM     13  O   UNL     1       6.865   4.184  16.227  0.00  0.00    +0.000 OA
ATOM     14  H   UNL     1       4.383   4.705  14.315  0.00  0.00    +0.000 HD
BRANCH  11  15
ATOM     15  C   UNL     1       6.153   3.799  13.566  0.00  0.00    +0.000 C 
BRANCH  15  17
ATOM     16  C   UNL     1       5.841   2.195  11.653  0.00  0.00    +0.000 C 
ATOM     17  C   UNL     1       5.411   3.520  12.264  0.00  0.00    +0.000 C 
ENDBRANCH  15  17
ENDBRANCH  11  15
ENDBRANCH   1  12
TORSDOF 3
ENDMDL
MODEL 3
REMARK VINA RESULT:      -6.6      2.431      3.670
REMARK  Name = 
REMARK  4 active torsions:
REMARK  status: ('A' for Active; 'I' for Inactive)
REMARK    1  A    between atoms: C_1  and  C_2
REMARK    2  A    between atoms: C_2  and  C_3
REMARK    3  A    between atoms: C_3  and  N_4
REMARK    4  A    between atoms: C_5  and  C_7
REMARK                            x       y       z     vdW  Elec       q    Type
REMARK                         _______ _______ _______ _____ _____    ______ ____
ROOT
ATOM      1  C   UNL     1       4.237   4.380  17.270  0.00  0.00    +0.000 A 
ATOM      2  C   UNL     1       4.341   3.025  17.042  0.00  0.00    +0.000 A 
ATOM      3  S   UNL     1       3.136   2.120  17.813  0.00  0.00    +0.000 S 
ATOM      4  C   UNL     1       2.413   3.527  18.470  0.00  0.00    +0.000 A 
ATOM      5  C   UNL     1       3.092   4.689  18.121  0.00  0.00    +0.000 A 
ATOM      6  C   UNL     1       2.648   6.090  18.456  0.00  0.00    +0.000 C 
ATOM      7  C   UNL     1       2.138   6.373  19.870  0.00  0.00    +0.000 C 
ATOM      8  C   UNL     1       2.037   5.205  20.843  0.00  0.00    +0.000 C 
ATOM      9  C   UNL     1       0.938   4.217  20.481  0.00  0.00    +0.000 C 
ATOM     10  C   UNL     1       1.143   3.338  19.250  0.00  0.00    +0.000 C 
ENDROOT
BRANCH   1  12
ATOM     11  N   UNL     1       6.195   5.740  17.527  0.00  0.00    +0.000 N 
ATOM     12  C   UNL     1       5.186   5.334  16.676  0.00  0.00    +0.000 C 
ATOM     13  O   UNL     1       5.104   5.724  15.525  0.00  0.00    +0.000 OA
ATOM     14  H   UNL     1       6.289   5.323  18.443  0.00  0.00    +0.000 HD
BRANCH  11  15
ATOM     15  C   UNL     1       7.224   6.646  17.069  0.00  0.00    +0.000 C 
BRANCH  15  17
ATOM     16  C   UNL     1       8.165   8.804  17.957  0.00  0.00    +0.000 C 
ATOM     17  C   UNL     1       7.959   7.320  18.222  0.00  0.00    +0.000 C 
ENDBRANCH  15  17
ENDBRANCH  11  15
ENDBRANCH   1  12
TORSDOF 3
ENDMDL
MODEL 4
REMARK VINA RESULT:      -6.5      2.663      3.641
REMARK  Name = 
REMARK  4 active torsions:
REMARK  status: ('A' for Active; 'I' for Inactive)
REMARK    1  A    between atoms: C_1  and  C_2
REMARK    2  A    between atoms: C_2  and  C_3
REMARK    3  A    between atoms: C_3  and  N_4
REMARK    4  A    between atoms: C_5  and  C_7
REMARK                            x       y       z     vdW  Elec       q    Type
REMARK                         _______ _______ _______ _____ _____    ______ ____
ROOT
ATOM      1  C   UNL     1       3.743   4.815  17.655  0.00  0.00    +0.000 A 
ATOM      2  C   UNL     1       3.896   3.694  16.868  0.00  0.00    +0.000 A 
ATOM      3  S   UNL     1       2.896   2.410  17.329  0.00  0.00    +0.000 S 
ATOM      4  C   UNL     1       2.202   3.324  18.601  0.00  0.00    +0.000 A 
ATOM      5  C   UNL     1       2.738   4.603  18.691  0.00  0.00    +0.000 A 
ATOM      6  C   UNL     1       2.266   5.679  19.637  0.00  0.00    +0.000 C 
ATOM      7  C   UNL     1       1.981   5.296  21.090  0.00  0.00    +0.000 C 
ATOM      8  C   UNL     1       2.117   3.832  21.486  0.00  0.00    +0.000 C 
ATOM      9  C   UNL     1       1.039   2.944  20.881  0.00  0.00    +0.000 C 
ATOM     10  C   UNL     1       1.094   2.674  19.380  0.00  0.00    +0.000 C 
ENDROOT
BRANCH   1  12
ATOM     11  N   UNL     1       5.880   5.901  17.585  0.00  0.00    +0.000 N 
ATOM     12  C   UNL     1       4.519   6.040  17.406  0.00  0.00    +0.000 C 
ATOM     13  O   UNL     1       4.008   7.089  17.053  0.00  0.00    +0.000 OA
ATOM     14  H   UNL     1       6.279   4.994  17.783  0.00  0.00    +0.000 HD
BRANCH  11  15
ATOM     15  C   UNL     1       6.773   7.012  17.337  0.00  0.00    +0.000 C 
BRANCH  15  17
ATOM     16  C   UNL     1       7.896   5.866  19.276  0.00  0.00    +0.000 C 
ATOM     17  C   UNL     1       7.965   7.021  18.288  0.00  0.00    +0.000 C 
ENDBRANCH  15  17
ENDBRANCH  11  15
ENDBRANCH   1  12
TORSDOF 3
ENDMDL
MODEL 5
REMARK VINA RESULT:      -6.4      1.027      1.152
REMARK  Name = 
REMARK  4 active torsions:
REMARK  status: ('A' for Active; 'I' for Inactive)
REMARK    1  A    between atoms: C_1  and  C_2
REMARK    2  A    between atoms: C_2  and  C_3
REMARK    3  A    between atoms: C_3  and  N_4
REMARK    4  A    between atoms: C_5  and  C_7
REMARK                            x       y       z     vdW  Elec       q    Type
REMARK                         _______ _______ _______ _____ _____    ______ ____
ROOT
ATOM      1  C   UNL     1       4.526   5.100  18.597  0.00  0.00    +0.000 A 
ATOM      2  C   UNL     1       4.075   6.397  18.714  0.00  0.00    +0.000 A 
ATOM      3  S   UNL     1       2.551   6.513  19.442  0.00  0.00    +0.000 S 
ATOM      4  C   UNL     1       2.449   4.815  19.644  0.00  0.00    +0.000 A 
ATOM      5  C   UNL     1       3.564   4.151  19.146  0.00  0.00    +0.000 A 
ATOM      6  C   UNL     1       3.819   2.669  19.267  0.00  0.00    +0.000 C 
ATOM      7  C   UNL     1       2.663   1.707  18.990  0.00  0.00    +0.000 C 
ATOM      8  C   UNL     1       1.295   2.301  18.680  0.00  0.00    +0.000 C 
ATOM      9  C   UNL     1       0.646   2.973  19.881  0.00  0.00    +0.000 C 
ATOM     10  C   UNL     1       1.245   4.289  20.373  0.00  0.00    +0.000 C 
ENDROOT
BRANCH   1  12
ATOM     11  N   UNL     1       5.897   4.981  16.633  0.00  0.00    +0.000 N 
ATOM     12  C   UNL     1       5.835   4.794  17.999  0.00  0.00    +0.000 C 
ATOM     13  O   UNL     1       6.793   4.421  18.654  0.00  0.00    +0.000 OA
ATOM     14  H   UNL     1       5.114   5.383  16.137  0.00  0.00    +0.000 HD
BRANCH  11  15
ATOM     15  C   UNL     1       7.132   4.757  15.915  0.00  0.00    +0.000 C 
BRANCH  15  17
ATOM     16  C   UNL     1       5.432   4.234  14.135  0.00  0.00    +0.000 C 
ATOM     17  C   UNL     1       6.901   4.498  14.430  0.00  0.00    +0.000 C 
ENDBRANCH  15  17
ENDBRANCH  11  15
ENDBRANCH   1  12
TORSDOF 3
ENDMDL
MODEL 6
REMARK VINA RESULT:      -6.4      2.598      3.719
REMARK  Name = 
REMARK  4 active torsions:
REMARK  status: ('A' for Active; 'I' for Inactive)
REMARK    1  A    between atoms: C_1  and  C_2
REMARK    2  A    between atoms: C_2  and  C_3
REMARK    3  A    between atoms: C_3  and  N_4
REMARK    4  A    between atoms: C_5  and  C_7
REMARK                            x       y       z     vdW  Elec       q    Type
REMARK                         _______ _______ _______ _____ _____    ______ ____
ROOT
ATOM      1  C   UNL     1       4.904   4.493  18.334  0.00  0.00    +0.000 A 
ATOM      2  C   UNL     1       4.950   3.721  17.194  0.00  0.00    +0.000 A 
ATOM      3  S   UNL     1       3.468   3.000  16.810  0.00  0.00    +0.000 S 
ATOM      4  C   UNL     1       2.698   3.718  18.162  0.00  0.00    +0.000 A 
ATOM      5  C   UNL     1       3.567   4.496  18.919  0.00  0.00    +0.000 A 
ATOM      6  C   UNL     1       3.171   5.338  20.106  0.00  0.00    +0.000 C 
ATOM      7  C   UNL     1       2.221   4.733  21.141  0.00  0.00    +0.000 C 
ATOM      8  C   UNL     1       1.666   3.339  20.878  0.00  0.00    +0.000 C 
ATOM      9  C   UNL     1       0.678   3.295  19.722  0.00  0.00    +0.000 C 
ATOM     10  C   UNL     1       1.222   3.483  18.308  0.00  0.00    +0.000 C 
ENDROOT
BRANCH   1  12
ATOM     11  N   UNL     1       6.587   6.158  17.952  0.00  0.00    +0.000 N 
ATOM     12  C   UNL     1       6.091   5.210  18.825  0.00  0.00    +0.000 C 
ATOM     13  O   UNL     1       6.589   5.000  19.917  0.00  0.00    +0.000 OA
ATOM     14  H   UNL     1       6.092   6.373  17.097  0.00  0.00    +0.000 HD
BRANCH  11  15
ATOM     15  C   UNL     1       7.727   6.969  18.317  0.00  0.00    +0.000 C 
BRANCH  15  17
ATOM     16  C   UNL     1       8.469   9.372  18.258  0.00  0.00    +0.000 C 
ATOM     17  C   UNL     1       7.831   8.236  17.474  0.00  0.00    +0.000 C 
ENDBRANCH  15  17
ENDBRANCH  11  15
ENDBRANCH   1  12
TORSDOF 3
ENDMDL
MODEL 7
REMARK VINA RESULT:      -6.3      1.180      1.199
REMARK  Name = 
REMARK  4 active torsions:
REMARK  status: ('A' for Active; 'I' for Inactive)
REMARK    1  A    between atoms: C_1  and  C_2
REMARK    2  A    between atoms: C_2  and  C_3
REMARK    3  A    between atoms: C_3  and  N_4
REMARK    4  A    between atoms: C_5  and  C_7
REMARK                            x       y       z     vdW  Elec       q    Type
REMARK                         _______ _______ _______ _____ _____    ______ ____
ROOT
ATOM      1  C   UNL     1       4.019   6.130  17.354  0.00  0.00    +0.000 A 
ATOM      2  C   UNL     1       3.590   7.362  17.796  0.00  0.00    +0.000 A 
ATOM      3  S   UNL     1       2.480   7.268  19.071  0.00  0.00    +0.000 S 
ATOM      4  C   UNL     1       2.550   5.556  19.088  0.00  0.00    +0.000 A 
ATOM      5  C   UNL     1       3.404   5.048  18.116  0.00  0.00    +0.000 A 
ATOM      6  C   UNL     1       3.759   3.592  17.945  0.00  0.00    +0.000 C 
ATOM      7  C   UNL     1       2.637   2.556  18.027  0.00  0.00    +0.000 C 
ATOM      8  C   UNL     1       1.231   3.045  18.352  0.00  0.00    +0.000 C 
ATOM      9  C   UNL     1       1.085   3.540  19.783  0.00  0.00    +0.000 C 
ATOM     10  C   UNL     1       1.765   4.854  20.159  0.00  0.00    +0.000 C 
ENDROOT
BRANCH   1  12
ATOM     11  N   UNL     1       5.825   4.906  16.357  0.00  0.00    +0.000 N 
ATOM     12  C   UNL     1       4.994   6.004  16.259  0.00  0.00    +0.000 C 
ATOM     13  O   UNL     1       5.057   6.792  15.332  0.00  0.00    +0.000 OA
ATOM     14  H   UNL     1       5.681   4.221  17.087  0.00  0.00    +0.000 HD
BRANCH  11  15
ATOM     15  C   UNL     1       6.807   4.632  15.332  0.00  0.00    +0.000 C 
BRANCH  15  17
ATOM     16  C   UNL     1       6.792   4.232  12.848  0.00  0.00    +0.000 C 
ATOM     17  C   UNL     1       6.238   3.791  14.194  0.00  0.00    +0.000 C 
ENDBRANCH  15  17
ENDBRANCH  11  15
ENDBRANCH   1  12
TORSDOF 3
ENDMDL
MODEL 8
REMARK VINA RESULT:      -6.2      2.618      3.098
REMARK  Name = 
REMARK  4 active torsions:
REMARK  status: ('A' for Active; 'I' for Inactive)
REMARK    1  A    between atoms: C_1  and  C_2
REMARK    2  A    between atoms: C_2  and  C_3
REMARK    3  A    between atoms: C_3  and  N_4
REMARK    4  A    between atoms: C_5  and  C_7
REMARK                            x       y       z     vdW  Elec       q    Type
REMARK                         _______ _______ _______ _____ _____    ______ ____
ROOT
ATOM      1  C   UNL     1       4.317   5.330  19.363  0.00  0.00    +0.000 A 
ATOM      2  C   UNL     1       3.499   6.396  19.670  0.00  0.00    +0.000 A 
ATOM      3  S   UNL     1       1.900   5.943  19.992  0.00  0.00    +0.000 S 
ATOM      4  C   UNL     1       2.254   4.285  19.746  0.00  0.00    +0.000 A 
ATOM      5  C   UNL     1       3.584   4.069  19.404  0.00  0.00    +0.000 A 
ATOM      6  C   UNL     1       4.228   2.717  19.225  0.00  0.00    +0.000 C 
ATOM      7  C   UNL     1       3.467   1.648  18.440  0.00  0.00    +0.000 C 
ATOM      8  C   UNL     1       2.066   1.983  17.943  0.00  0.00    +0.000 C 
ATOM      9  C   UNL     1       1.045   2.101  19.064  0.00  0.00    +0.000 C 
ATOM     10  C   UNL     1       1.140   3.308  19.995  0.00  0.00    +0.000 C 
ENDROOT
BRANCH   1  12
ATOM     11  N   UNL     1       5.998   6.139  17.857  0.00  0.00    +0.000 N 
ATOM     12  C   UNL     1       5.745   5.520  19.064  0.00  0.00    +0.000 C 
ATOM     13  O   UNL     1       6.634   5.175  19.823  0.00  0.00    +0.000 OA
ATOM     14  H   UNL     1       5.236   6.498  17.298  0.00  0.00    +0.000 HD
BRANCH  11  15
ATOM     15  C   UNL     1       7.354   6.427  17.447  0.00  0.00    +0.000 C 
BRANCH  15  17
ATOM     16  C   UNL     1       8.460   8.439  18.478  0.00  0.00    +0.000 C 
ATOM     17  C   UNL     1       7.617   7.923  17.321  0.00  0.00    +0.000 C 
ENDBRANCH  15  17
ENDBRANCH  11  15
ENDBRANCH   1  12
TORSDOF 3
ENDMDL
MODEL 9
REMARK VINA RESULT:      -6.1      1.865      2.206
REMARK  Name = 
REMARK  4 active torsions:
REMARK  status: ('A' for Active; 'I' for Inactive)
REMARK    1  A    between atoms: C_1  and  C_2
REMARK    2  A    between atoms: C_2  and  C_3
REMARK    3  A    between atoms: C_3  and  N_4
REMARK    4  A    between atoms: C_5  and  C_7
REMARK                            x       y       z     vdW  Elec       q    Type
REMARK                         _______ _______ _______ _____ _____    ______ ____
ROOT
ATOM      1  C   UNL     1       5.635   4.955  16.794  0.00  0.00    +0.000 A 
ATOM      2  C   UNL     1       6.597   5.428  17.660  0.00  0.00    +0.000 A 
ATOM      3  S   UNL     1       6.230   5.149  19.288  0.00  0.00    +0.000 S 
ATOM      4  C   UNL     1       4.763   4.361  18.887  0.00  0.00    +0.000 A 
ATOM      5  C   UNL     1       4.537   4.320  17.516  0.00  0.00    +0.000 A 
ATOM      6  C   UNL     1       3.390   3.607  16.844  0.00  0.00    +0.000 C 
ATOM      7  C   UNL     1       1.991   3.756  17.444  0.00  0.00    +0.000 C 
ATOM      8  C   UNL     1       1.843   4.556  18.731  0.00  0.00    +0.000 C 
ATOM      9  C   UNL     1       2.452   3.863  19.941  0.00  0.00    +0.000 C 
ATOM     10  C   UNL     1       3.974   3.773  20.023  0.00  0.00    +0.000 C 
ENDROOT
BRANCH   1  12
ATOM     11  N   UNL     1       6.279   3.973  14.703  0.00  0.00    +0.000 N 
ATOM     12  C   UNL     1       5.778   5.093  15.337  0.00  0.00    +0.000 C 
ATOM     13  O   UNL     1       5.466   6.104  14.731  0.00  0.00    +0.000 OA
ATOM     14  H   UNL     1       6.435   3.120  15.222  0.00  0.00    +0.000 HD
BRANCH  11  15
ATOM     15  C   UNL     1       6.437   3.949  13.266  0.00  0.00    +0.000 C 
BRANCH  15  17
ATOM     16  C   UNL     1       5.564   2.298  11.581  0.00  0.00    +0.000 C 
ATOM     17  C   UNL     1       5.201   3.408  12.556  0.00  0.00    +0.000 C 
ENDBRANCH  15  17
ENDBRANCH  11  15
ENDBRANCH   1  12
TORSDOF 3
ENDMDL
