MODEL 1
REMARK VINA RESULT:      -8.3      0.000      0.000
REMARK  Name = 
REMARK  5 active torsions:
REMARK  status: ('A' for Active; 'I' for Inactive)
REMARK    1  A    between atoms: C_1  and  N_2
REMARK    2  A    between atoms: N_2  and  C_3
REMARK    3  A    between atoms: C_8  and  C_9
REMARK    4  A    between atoms: N_20  and  C_21
REMARK    5  A    between atoms: C_21  and  C_22
REMARK                            x       y       z     vdW  Elec       q    Type
REMARK                         _______ _______ _______ _____ _____    ______ ____
ROOT
ATOM      1  C   UNL     1       2.714   6.542  18.997  0.00  0.00    +0.000 A 
ATOM      2  C   UNL     1       3.080   5.410  19.746  0.00  0.00    +0.000 A 
ATOM      3  C   UNL     1       3.818   4.387  19.204  0.00  0.00    +0.000 A 
ATOM      4  C   UNL     1       4.779   4.879  18.363  0.00  0.00    +0.000 A 
ATOM      5  C   UNL     1       6.129   5.077  18.856  0.00  0.00    +0.000 A 
ATOM      6  N   UNL     1       6.563   5.124  20.148  0.00  0.00    +0.000 N 
ATOM      7  N   UNL     1       7.895   5.333  20.223  0.00  0.00    +0.000 NA
ATOM      8  C   UNL     1       8.240   5.631  18.961  0.00  0.00    +0.000 A 
ATOM      9  C   UNL     1       7.132   5.657  18.112  0.00  0.00    +0.000 A 
ATOM     10  C   UNL     1       6.868   6.061  16.756  0.00  0.00    +0.000 A 
ATOM     11  O   UNL     1       7.773   6.308  15.962  0.00  0.00    +0.000 OA
ATOM     12  N   UNL     1       5.475   6.148  16.397  0.00  0.00    +0.000 N 
ATOM     13  C   UNL     1       4.427   5.774  17.352  0.00  0.00    +0.000 A 
ATOM     14  C   UNL     1       3.311   6.608  17.674  0.00  0.00    +0.000 A 
ATOM     15  H   UNL     1       6.013   5.084  21.005  0.00  0.00    +0.000 HD
ENDROOT
BRANCH   1  21
ATOM     16  C   UNL     1       1.576   8.924  19.114  0.00  0.00    +0.000 A 
ATOM     17  N   UNL     1       0.684   9.782  19.671  0.00  0.00    +0.000 NA
ATOM     18  C   UNL     1       0.141   9.469  20.852  0.00  0.00    +0.000 A 
ATOM     19  C   UNL     1       0.487   8.337  21.550  0.00  0.00    +0.000 A 
ATOM     20  C   UNL     1       1.391   7.427  20.983  0.00  0.00    +0.000 A 
ATOM     21  C   UNL     1       1.939   7.657  19.707  0.00  0.00    +0.000 A 
BRANCH  16  23
ATOM     22  C   UNL     1       2.329  10.819  17.785  0.00  0.00    +0.000 C 
ATOM     23  N   UNL     1       2.139   9.380  17.910  0.00  0.00    +0.000 N 
ATOM     24  H   UNL     1       2.992   8.857  17.730  0.00  0.00    +0.000 HD
ENDBRANCH  16  23
ENDBRANCH   1  21
BRANCH  12  25
ATOM     25  C   UNL     1       5.261   5.905  14.956  0.00  0.00    +0.000 C 
BRANCH  25  26
ATOM     26  C   UNL     1       5.634   4.481  14.457  0.00  0.00    +0.000 C 
ATOM     27  F   UNL     1       5.598   3.555  15.443  0.00  0.00    +0.000 F 
ATOM     28  F   UNL     1       4.762   4.066  13.504  0.00  0.00    +0.000 F 
ATOM     29  F   UNL     1       6.865   4.438  13.898  0.00  0.00    +0.000 F 
ENDBRANCH  25  26
ENDBRANCH  12  25
TORSDOF 4
ENDMDL
MODEL 2
REMARK VINA RESULT:      -8.1      1.708      2.258
REMARK  Name = 
REMARK  5 active torsions:
REMARK  status: ('A' for Active; 'I' for Inactive)
REMARK    1  A    between atoms: C_1  and  N_2
REMARK    2  A    between atoms: N_2  and  C_3
REMARK    3  A    between atoms: C_8  and  C_9
REMARK    4  A    between atoms: N_20  and  C_21
REMARK    5  A    between atoms: C_21  and  C_22
REMARK                            x       y       z     vdW  Elec       q    Type
REMARK                         _______ _______ _______ _____ _____    ______ ____
ROOT
ATOM      1  C   UNL     1       2.203   7.377  18.603  0.00  0.00    +0.000 A 
ATOM      2  C   UNL     1       1.417   6.228  18.409  0.00  0.00    +0.000 A 
ATOM      3  C   UNL     1       1.847   5.174  17.641  0.00  0.00    +0.000 A 
ATOM      4  C   UNL     1       3.184   4.954  17.830  0.00  0.00    +0.000 A 
ATOM      5  C   UNL     1       3.618   3.943  18.775  0.00  0.00    +0.000 A 
ATOM      6  N   UNL     1       2.896   3.337  19.761  0.00  0.00    +0.000 N 
ATOM      7  N   UNL     1       3.640   2.445  20.451  0.00  0.00    +0.000 NA
ATOM      8  C   UNL     1       4.889   2.671  20.016  0.00  0.00    +0.000 A 
ATOM      9  C   UNL     1       4.938   3.722  19.099  0.00  0.00    +0.000 A 
ATOM     10  C   UNL     1       5.967   4.493  18.452  0.00  0.00    +0.000 A 
ATOM     11  O   UNL     1       7.148   4.153  18.477  0.00  0.00    +0.000 OA
ATOM     12  N   UNL     1       5.515   5.680  17.771  0.00  0.00    +0.000 N 
ATOM     13  C   UNL     1       4.087   6.011  17.702  0.00  0.00    +0.000 A 
ATOM     14  C   UNL     1       3.549   7.285  18.062  0.00  0.00    +0.000 A 
ATOM     15  H   UNL     1       1.938   3.522  20.051  0.00  0.00    +0.000 HD
ENDROOT
BRANCH   1  21
ATOM     16  C   UNL     1       1.316   9.815  19.104  0.00  0.00    +0.000 A 
ATOM     17  N   UNL     1       0.611  10.682  19.875  0.00  0.00    +0.000 NA
ATOM     18  C   UNL     1       0.251  10.302  21.105  0.00  0.00    +0.000 A 
ATOM     19  C   UNL     1       0.609   9.088  21.641  0.00  0.00    +0.000 A 
ATOM     20  C   UNL     1       1.320   8.170  20.854  0.00  0.00    +0.000 A 
ATOM     21  C   UNL     1       1.661   8.475  19.523  0.00  0.00    +0.000 A 
BRANCH  16  23
ATOM     22  C   UNL     1       2.398  11.618  17.878  0.00  0.00    +0.000 C 
ATOM     23  N   UNL     1       1.704  10.338  17.858  0.00  0.00    +0.000 N 
ATOM     24  H   UNL     1       2.219   9.623  17.351  0.00  0.00    +0.000 HD
ENDBRANCH  16  23
ENDBRANCH   1  21
BRANCH  12  25
ATOM     25  C   UNL     1       6.395   6.036  16.639  0.00  0.00    +0.000 C 
BRANCH  25  26
ATOM     26  C   UNL     1       6.002   5.417  15.268  0.00  0.00    +0.000 C 
ATOM     27  F   UNL     1       5.413   4.205  15.391  0.00  0.00    +0.000 F 
ATOM     28  F   UNL     1       5.117   6.215  14.622  0.00  0.00    +0.000 F 
ATOM     29  F   UNL     1       7.067   5.275  14.445  0.00  0.00    +0.000 F 
ENDBRANCH  25  26
ENDBRANCH  12  25
TORSDOF 4
ENDMDL
MODEL 3
REMARK VINA RESULT:      -8.1      4.779      8.017
REMARK  Name = 
REMARK  5 active torsions:
REMARK  status: ('A' for Active; 'I' for Inactive)
REMARK    1  A    between atoms: C_1  and  N_2
REMARK    2  A    between atoms: N_2  and  C_3
REMARK    3  A    between atoms: C_8  and  C_9
REMARK    4  A    between atoms: N_20  and  C_21
REMARK    5  A    between atoms: C_21  and  C_22
REMARK                            x       y       z     vdW  Elec       q    Type
REMARK                         _______ _______ _______ _____ _____    ______ ____
ROOT
ATOM      1  C   UNL     1       2.069   7.979  18.834  0.00  0.00    +0.000 A 
ATOM      2  C   UNL     1       1.750   8.581  17.604  0.00  0.00    +0.000 A 
ATOM      3  C   UNL     1       0.810   9.576  17.504  0.00  0.00    +0.000 A 
ATOM      4  C   UNL     1       0.887  10.422  18.577  0.00  0.00    +0.000 A 
ATOM      5  C   UNL     1       1.644  11.655  18.465  0.00  0.00    +0.000 A 
ATOM      6  N   UNL     1       2.567  12.001  17.523  0.00  0.00    +0.000 N 
ATOM      7  N   UNL     1       3.072  13.234  17.746  0.00  0.00    +0.000 NA
ATOM      8  C   UNL     1       2.605  13.552  18.964  0.00  0.00    +0.000 A 
ATOM      9  C   UNL     1       1.855  12.515  19.520  0.00  0.00    +0.000 A 
ATOM     10  C   UNL     1       1.274  12.222  20.803  0.00  0.00    +0.000 A 
ATOM     11  O   UNL     1       1.181  13.073  21.685  0.00  0.00    +0.000 OA
ATOM     12  N   UNL     1       0.805  10.869  20.976  0.00  0.00    +0.000 N 
ATOM     13  C   UNL     1       0.868   9.904  19.873  0.00  0.00    +0.000 A 
ATOM     14  C   UNL     1       1.445   8.602  19.990  0.00  0.00    +0.000 A 
ATOM     15  H   UNL     1       2.936  11.439  16.758  0.00  0.00    +0.000 HD
ENDROOT
BRANCH   1  21
ATOM     16  C   UNL     1       3.172   5.733  19.682  0.00  0.00    +0.000 A 
ATOM     17  N   UNL     1       4.026   4.693  19.502  0.00  0.00    +0.000 NA
ATOM     18  C   UNL     1       4.949   4.778  18.539  0.00  0.00    +0.000 A 
ATOM     19  C   UNL     1       5.102   5.897  17.755  0.00  0.00    +0.000 A 
ATOM     20  C   UNL     1       4.217   6.974  17.911  0.00  0.00    +0.000 A 
ATOM     21  C   UNL     1       3.172   6.917  18.853  0.00  0.00    +0.000 A 
BRANCH  16  23
ATOM     22  C   UNL     1       1.408   4.414  20.717  0.00  0.00    +0.000 C 
ATOM     23  N   UNL     1       2.290   5.572  20.764  0.00  0.00    +0.000 N 
ATOM     24  H   UNL     1       2.822   5.622  21.629  0.00  0.00    +0.000 HD
ENDBRANCH  16  23
ENDBRANCH   1  21
BRANCH  12  25
ATOM     25  C   UNL     1      -0.309  10.791  21.943  0.00  0.00    +0.000 C 
BRANCH  25  26
ATOM     26  C   UNL     1      -0.254   9.589  22.928  0.00  0.00    +0.000 C 
ATOM     27  F   UNL     1       1.011   9.242  23.259  0.00  0.00    +0.000 F 
ATOM     28  F   UNL     1      -0.889   9.894  24.087  0.00  0.00    +0.000 F 
ATOM     29  F   UNL     1      -0.866   8.490  22.431  0.00  0.00    +0.000 F 
ENDBRANCH  25  26
ENDBRANCH  12  25
TORSDOF 4
ENDMDL
MODEL 4
REMARK VINA RESULT:      -8.0      3.410      6.726
REMARK  Name = 
REMARK  5 active torsions:
REMARK  status: ('A' for Active; 'I' for Inactive)
REMARK    1  A    between atoms: C_1  and  N_2
REMARK    2  A    between atoms: N_2  and  C_3
REMARK    3  A    between atoms: C_8  and  C_9
REMARK    4  A    between atoms: N_20  and  C_21
REMARK    5  A    between atoms: C_21  and  C_22
REMARK                            x       y       z     vdW  Elec       q    Type
REMARK                         _______ _______ _______ _____ _____    ______ ____
ROOT
ATOM      1  C   UNL     1       5.981   5.184  15.918  0.00  0.00    +0.000 A 
ATOM      2  C   UNL     1       6.863   4.587  16.836  0.00  0.00    +0.000 A 
ATOM      3  C   UNL     1       6.871   4.929  18.165  0.00  0.00    +0.000 A 
ATOM      4  C   UNL     1       5.597   5.138  18.617  0.00  0.00    +0.000 A 
ATOM      5  C   UNL     1       4.890   4.066  19.293  0.00  0.00    +0.000 A 
ATOM      6  N   UNL     1       5.185   2.734  19.311  0.00  0.00    +0.000 N 
ATOM      7  N   UNL     1       4.294   2.034  20.045  0.00  0.00    +0.000 NA
ATOM      8  C   UNL     1       3.323   2.924  20.298  0.00  0.00    +0.000 A 
ATOM      9  C   UNL     1       3.576   4.156  19.692  0.00  0.00    +0.000 A 
ATOM     10  C   UNL     1       2.850   5.379  19.477  0.00  0.00    +0.000 A 
ATOM     11  O   UNL     1       1.794   5.621  20.057  0.00  0.00    +0.000 OA
ATOM     12  N   UNL     1       3.450   6.299  18.543  0.00  0.00    +0.000 N 
ATOM     13  C   UNL     1       4.748   6.005  17.927  0.00  0.00    +0.000 A 
ATOM     14  C   UNL     1       4.990   6.061  16.519  0.00  0.00    +0.000 A 
ATOM     15  H   UNL     1       5.921   2.240  18.810  0.00  0.00    +0.000 HD
ENDROOT
BRANCH   1  21
ATOM     16  C   UNL     1       7.143   4.798  13.577  0.00  0.00    +0.000 A 
ATOM     17  N   UNL     1       7.226   4.141  12.392  0.00  0.00    +0.000 NA
ATOM     18  C   UNL     1       6.191   3.392  11.997  0.00  0.00    +0.000 A 
ATOM     19  C   UNL     1       5.025   3.300  12.719  0.00  0.00    +0.000 A 
ATOM     20  C   UNL     1       4.926   3.955  13.956  0.00  0.00    +0.000 A 
ATOM     21  C   UNL     1       6.009   4.695  14.467  0.00  0.00    +0.000 A 
BRANCH  16  23
ATOM     22  C   UNL     1       8.991   6.130  12.720  0.00  0.00    +0.000 C 
ATOM     23  N   UNL     1       8.253   5.611  13.863  0.00  0.00    +0.000 N 
ATOM     24  H   UNL     1       7.964   6.343  14.506  0.00  0.00    +0.000 HD
ENDBRANCH  16  23
ENDBRANCH   1  21
BRANCH  12  25
ATOM     25  C   UNL     1       3.091   7.701  18.841  0.00  0.00    +0.000 C 
BRANCH  25  26
ATOM     26  C   UNL     1       1.925   8.285  17.993  0.00  0.00    +0.000 C 
ATOM     27  F   UNL     1       1.262   7.336  17.292  0.00  0.00    +0.000 F 
ATOM     28  F   UNL     1       1.011   8.887  18.793  0.00  0.00    +0.000 F 
ATOM     29  F   UNL     1       2.349   9.224  17.117  0.00  0.00    +0.000 F 
ENDBRANCH  25  26
ENDBRANCH  12  25
TORSDOF 4
ENDMDL
MODEL 5
REMARK VINA RESULT:      -7.8      1.870      2.480
REMARK  Name = 
REMARK  5 active torsions:
REMARK  status: ('A' for Active; 'I' for Inactive)
REMARK    1  A    between atoms: C_1  and  N_2
REMARK    2  A    between atoms: N_2  and  C_3
REMARK    3  A    between atoms: C_8  and  C_9
REMARK    4  A    between atoms: N_20  and  C_21
REMARK    5  A    between atoms: C_21  and  C_22
REMARK                            x       y       z     vdW  Elec       q    Type
REMARK                         _______ _______ _______ _____ _____    ______ ____
ROOT
ATOM      1  C   UNL     1       2.087   7.347  18.771  0.00  0.00    +0.000 A 
ATOM      2  C   UNL     1       1.316   6.192  18.547  0.00  0.00    +0.000 A 
ATOM      3  C   UNL     1       1.758   5.166  17.749  0.00  0.00    +0.000 A 
ATOM      4  C   UNL     1       3.098   4.960  17.927  0.00  0.00    +0.000 A 
ATOM      5  C   UNL     1       3.550   3.928  18.843  0.00  0.00    +0.000 A 
ATOM      6  N   UNL     1       2.839   3.285  19.813  0.00  0.00    +0.000 N 
ATOM      7  N   UNL     1       3.597   2.385  20.475  0.00  0.00    +0.000 NA
ATOM      8  C   UNL     1       4.842   2.640  20.044  0.00  0.00    +0.000 A 
ATOM      9  C   UNL     1       4.873   3.717  19.157  0.00  0.00    +0.000 A 
ATOM     10  C   UNL     1       5.889   4.520  18.529  0.00  0.00    +0.000 A 
ATOM     11  O   UNL     1       7.075   4.196  18.541  0.00  0.00    +0.000 OA
ATOM     12  N   UNL     1       5.419   5.719  17.882  0.00  0.00    +0.000 N 
ATOM     13  C   UNL     1       3.987   6.032  17.827  0.00  0.00    +0.000 A 
ATOM     14  C   UNL     1       3.432   7.288  18.224  0.00  0.00    +0.000 A 
ATOM     15  H   UNL     1       1.879   3.448  20.111  0.00  0.00    +0.000 HD
ENDROOT
BRANCH   1  21
ATOM     16  C   UNL     1       0.682   9.512  19.333  0.00  0.00    +0.000 A 
ATOM     17  N   UNL     1       0.007  10.287  20.220  0.00  0.00    +0.000 NA
ATOM     18  C   UNL     1       0.167  10.057  21.527  0.00  0.00    +0.000 A 
ATOM     19  C   UNL     1       1.025   9.099  22.011  0.00  0.00    +0.000 A 
ATOM     20  C   UNL     1       1.716   8.274  21.111  0.00  0.00    +0.000 A 
ATOM     21  C   UNL     1       1.532   8.411  19.723  0.00  0.00    +0.000 A 
BRANCH  16  23
ATOM     22  C   UNL     1      -0.877  10.060  17.546  0.00  0.00    +0.000 C 
ATOM     23  N   UNL     1       0.499   9.884  17.990  0.00  0.00    +0.000 N 
ATOM     24  H   UNL     1       1.079  10.695  17.794  0.00  0.00    +0.000 HD
ENDBRANCH  16  23
ENDBRANCH   1  21
BRANCH  12  25
ATOM     25  C   UNL     1       6.290   6.119  16.759  0.00  0.00    +0.000 C 
BRANCH  25  26
ATOM     26  C   UNL     1       5.889   5.552  15.368  0.00  0.00    +0.000 C 
ATOM     27  F   UNL     1       6.955   5.348  14.559  0.00  0.00    +0.000 F 
ATOM     28  F   UNL     1       5.270   4.353  15.504  0.00  0.00    +0.000 F 
ATOM     29  F   UNL     1       5.025   6.361  14.714  0.00  0.00    +0.000 F 
ENDBRANCH  25  26
ENDBRANCH  12  25
TORSDOF 4
ENDMDL
MODEL 6
REMARK VINA RESULT:      -7.7      5.540      9.219
REMARK  Name = 
REMARK  5 active torsions:
REMARK  status: ('A' for Active; 'I' for Inactive)
REMARK    1  A    between atoms: C_1  and  N_2
REMARK    2  A    between atoms: N_2  and  C_3
REMARK    3  A    between atoms: C_8  and  C_9
REMARK    4  A    between atoms: N_20  and  C_21
REMARK    5  A    between atoms: C_21  and  C_22
REMARK                            x       y       z     vdW  Elec       q    Type
REMARK                         _______ _______ _______ _____ _____    ______ ____
ROOT
ATOM      1  C   UNL     1       0.531  10.433  18.506  0.00  0.00    +0.000 A 
ATOM      2  C   UNL     1       0.927  11.684  19.011  0.00  0.00    +0.000 A 
ATOM      3  C   UNL     1       0.217  12.830  18.753  0.00  0.00    +0.000 A 
ATOM      4  C   UNL     1      -1.128  12.579  18.774  0.00  0.00    +0.000 A 
ATOM      5  C   UNL     1      -1.887  12.841  19.982  0.00  0.00    +0.000 A 
ATOM      6  N   UNL     1      -1.424  13.040  21.249  0.00  0.00    +0.000 N 
ATOM      7  N   UNL     1      -2.431  13.251  22.124  0.00  0.00    +0.000 NA
ATOM      8  C   UNL     1      -3.532  12.961  21.414  0.00  0.00    +0.000 A 
ATOM      9  C   UNL     1      -3.221  12.529  20.124  0.00  0.00    +0.000 A 
ATOM     10  C   UNL     1      -3.935  11.947  19.020  0.00  0.00    +0.000 A 
ATOM     11  O   UNL     1      -5.164  11.916  18.983  0.00  0.00    +0.000 OA
ATOM     12  N   UNL     1      -3.113  11.412  17.963  0.00  0.00    +0.000 N 
ATOM     13  C   UNL     1      -1.653  11.534  18.011  0.00  0.00    +0.000 A 
ATOM     14  C   UNL     1      -0.757  10.435  17.833  0.00  0.00    +0.000 A 
ATOM     15  H   UNL     1      -0.466  12.987  21.591  0.00  0.00    +0.000 HD
ENDROOT
BRANCH   1  21
ATOM     16  C   UNL     1       1.373   8.596  20.208  0.00  0.00    +0.000 A 
ATOM     17  N   UNL     1       1.910   7.375  20.461  0.00  0.00    +0.000 NA
ATOM     18  C   UNL     1       2.497   6.710  19.460  0.00  0.00    +0.000 A 
ATOM     19  C   UNL     1       2.623   7.235  18.196  0.00  0.00    +0.000 A 
ATOM     20  C   UNL     1       2.057   8.486  17.909  0.00  0.00    +0.000 A 
ATOM     21  C   UNL     1       1.356   9.203  18.897  0.00  0.00    +0.000 A 
BRANCH  16  23
ATOM     22  C   UNL     1      -0.468   8.791  21.790  0.00  0.00    +0.000 C 
ATOM     23  N   UNL     1       0.844   9.237  21.342  0.00  0.00    +0.000 N 
ATOM     24  H   UNL     1       1.539   9.212  22.084  0.00  0.00    +0.000 HD
ENDBRANCH  16  23
ENDBRANCH   1  21
BRANCH  12  25
ATOM     25  C   UNL     1      -3.800  11.453  16.656  0.00  0.00    +0.000 C 
BRANCH  25  26
ATOM     26  C   UNL     1      -3.441  10.299  15.677  0.00  0.00    +0.000 C 
ATOM     27  F   UNL     1      -4.419  10.057  14.773  0.00  0.00    +0.000 F 
ATOM     28  F   UNL     1      -2.325  10.604  14.970  0.00  0.00    +0.000 F 
ATOM     29  F   UNL     1      -3.183   9.139  16.324  0.00  0.00    +0.000 F 
ENDBRANCH  25  26
ENDBRANCH  12  25
TORSDOF 4
ENDMDL
MODEL 7
REMARK VINA RESULT:      -7.7      6.910     10.554
REMARK  Name = 
REMARK  5 active torsions:
REMARK  status: ('A' for Active; 'I' for Inactive)
REMARK    1  A    between atoms: C_1  and  N_2
REMARK    2  A    between atoms: N_2  and  C_3
REMARK    3  A    between atoms: C_8  and  C_9
REMARK    4  A    between atoms: N_20  and  C_21
REMARK    5  A    between atoms: C_21  and  C_22
REMARK                            x       y       z     vdW  Elec       q    Type
REMARK                         _______ _______ _______ _____ _____    ______ ____
ROOT
ATOM      1  C   UNL     1      -1.634  11.668  20.673  0.00  0.00    +0.000 A 
ATOM      2  C   UNL     1      -2.131  12.756  21.412  0.00  0.00    +0.000 A 
ATOM      3  C   UNL     1      -3.070  13.616  20.899  0.00  0.00    +0.000 A 
ATOM      4  C   UNL     1      -3.993  12.932  20.155  0.00  0.00    +0.000 A 
ATOM      5  C   UNL     1      -5.250  12.534  20.761  0.00  0.00    +0.000 A 
ATOM      6  N   UNL     1      -5.572  12.474  22.085  0.00  0.00    +0.000 N 
ATOM      7  N   UNL     1      -6.840  12.049  22.273  0.00  0.00    +0.000 NA
ATOM      8  C   UNL     1      -7.221  11.641  21.053  0.00  0.00    +0.000 A 
ATOM      9  C   UNL     1      -6.192  11.762  20.119  0.00  0.00    +0.000 A 
ATOM     10  C   UNL     1      -5.964  11.347  18.760  0.00  0.00    +0.000 A 
ATOM     11  O   UNL     1      -6.870  10.917  18.050  0.00  0.00    +0.000 OA
ATOM     12  N   UNL     1      -4.606  11.478  18.292  0.00  0.00    +0.000 N 
ATOM     13  C   UNL     1      -3.569  12.064  19.148  0.00  0.00    +0.000 A 
ATOM     14  C   UNL     1      -2.307  11.444  19.405  0.00  0.00    +0.000 A 
ATOM     15  H   UNL     1      -4.975  12.643  22.892  0.00  0.00    +0.000 HD
ENDROOT
BRANCH   1  21
ATOM     16  C   UNL     1       0.703  10.451  20.870  0.00  0.00    +0.000 A 
ATOM     17  N   UNL     1       1.650   9.824  21.613  0.00  0.00    +0.000 NA
ATOM     18  C   UNL     1       1.330   9.399  22.839  0.00  0.00    +0.000 A 
ATOM     19  C   UNL     1       0.065   9.526  23.361  0.00  0.00    +0.000 A 
ATOM     20  C   UNL     1      -0.923  10.190  22.618  0.00  0.00    +0.000 A 
ATOM     21  C   UNL     1      -0.630  10.732  21.353  0.00  0.00    +0.000 A 
BRANCH  16  23
ATOM     22  C   UNL     1       0.982   9.765  18.552  0.00  0.00    +0.000 C 
ATOM     23  N   UNL     1       1.121  10.794  19.573  0.00  0.00    +0.000 N 
ATOM     24  H   UNL     1       0.678  11.669  19.308  0.00  0.00    +0.000 HD
ENDBRANCH  16  23
ENDBRANCH   1  21
BRANCH  12  25
ATOM     25  C   UNL     1      -4.544  11.688  16.832  0.00  0.00    +0.000 C 
BRANCH  25  26
ATOM     26  C   UNL     1      -3.627  10.703  16.054  0.00  0.00    +0.000 C 
ATOM     27  F   UNL     1      -3.327   9.593  16.769  0.00  0.00    +0.000 F 
ATOM     28  F   UNL     1      -4.237  10.280  14.919  0.00  0.00    +0.000 F 
ATOM     29  F   UNL     1      -2.462  11.276  15.676  0.00  0.00    +0.000 F 
ENDBRANCH  25  26
ENDBRANCH  12  25
TORSDOF 4
ENDMDL
MODEL 8
REMARK VINA RESULT:      -7.7      2.433      3.110
REMARK  Name = 
REMARK  5 active torsions:
REMARK  status: ('A' for Active; 'I' for Inactive)
REMARK    1  A    between atoms: C_1  and  N_2
REMARK    2  A    between atoms: N_2  and  C_3
REMARK    3  A    between atoms: C_8  and  C_9
REMARK    4  A    between atoms: N_20  and  C_21
REMARK    5  A    between atoms: C_21  and  C_22
REMARK                            x       y       z     vdW  Elec       q    Type
REMARK                         _______ _______ _______ _____ _____    ______ ____
ROOT
ATOM      1  C   UNL     1       2.221   7.523  18.676  0.00  0.00    +0.000 A 
ATOM      2  C   UNL     1       1.464   6.403  18.290  0.00  0.00    +0.000 A 
ATOM      3  C   UNL     1       1.976   5.427  17.471  0.00  0.00    +0.000 A 
ATOM      4  C   UNL     1       3.288   5.182  17.775  0.00  0.00    +0.000 A 
ATOM      5  C   UNL     1       3.626   4.080  18.656  0.00  0.00    +0.000 A 
ATOM      6  N   UNL     1       2.808   3.385  19.497  0.00  0.00    +0.000 N 
ATOM      7  N   UNL     1       3.480   2.426  20.170  0.00  0.00    +0.000 NA
ATOM      8  C   UNL     1       4.767   2.685  19.891  0.00  0.00    +0.000 A 
ATOM      9  C   UNL     1       4.906   3.821  19.092  0.00  0.00    +0.000 A 
ATOM     10  C   UNL     1       5.993   4.646  18.634  0.00  0.00    +0.000 A 
ATOM     11  O   UNL     1       7.166   4.299  18.748  0.00  0.00    +0.000 OA
ATOM     12  N   UNL     1       5.608   5.897  18.029  0.00  0.00    +0.000 N 
ATOM     13  C   UNL     1       4.194   6.241  17.846  0.00  0.00    +0.000 A 
ATOM     14  C   UNL     1       3.616   7.477  18.271  0.00  0.00    +0.000 A 
ATOM     15  H   UNL     1       1.824   3.546  19.703  0.00  0.00    +0.000 HD
ENDROOT
BRANCH   1  21
ATOM     16  C   UNL     1       1.120   9.849  19.274  0.00  0.00    +0.000 A 
ATOM     17  N   UNL     1       0.339  10.616  20.077  0.00  0.00    +0.000 NA
ATOM     18  C   UNL     1       0.012  10.155  21.288  0.00  0.00    +0.000 A 
ATOM     19  C   UNL     1       0.475   8.955  21.774  0.00  0.00    +0.000 A 
ATOM     20  C   UNL     1       1.266   8.138  20.953  0.00  0.00    +0.000 A 
ATOM     21  C   UNL     1       1.582   8.529  19.638  0.00  0.00    +0.000 A 
BRANCH  16  23
ATOM     22  C   UNL     1       2.224  11.696  18.136  0.00  0.00    +0.000 C 
ATOM     23  N   UNL     1       1.463  10.457  18.054  0.00  0.00    +0.000 N 
ATOM     24  H   UNL     1       1.909   9.764  17.459  0.00  0.00    +0.000 HD
ENDBRANCH  16  23
ENDBRANCH   1  21
BRANCH  12  25
ATOM     25  C   UNL     1       6.600   6.357  17.035  0.00  0.00    +0.000 C 
BRANCH  25  26
ATOM     26  C   UNL     1       7.521   7.520  17.501  0.00  0.00    +0.000 C 
ATOM     27  F   UNL     1       6.832   8.651  17.782  0.00  0.00    +0.000 F 
ATOM     28  F   UNL     1       8.184   7.178  18.632  0.00  0.00    +0.000 F 
ATOM     29  F   UNL     1       8.462   7.829  16.580  0.00  0.00    +0.000 F 
ENDBRANCH  25  26
ENDBRANCH  12  25
TORSDOF 4
ENDMDL
MODEL 9
REMARK VINA RESULT:      -7.6      6.055      9.775
REMARK  Name = 
REMARK  5 active torsions:
REMARK  status: ('A' for Active; 'I' for Inactive)
REMARK    1  A    between atoms: C_1  and  N_2
REMARK    2  A    between atoms: N_2  and  C_3
REMARK    3  A    between atoms: C_8  and  C_9
REMARK    4  A    between atoms: N_20  and  C_21
REMARK    5  A    between atoms: C_21  and  C_22
REMARK                            x       y       z     vdW  Elec       q    Type
REMARK                         _______ _______ _______ _____ _____    ______ ____
ROOT
ATOM      1  C   UNL     1      -0.388  10.807  19.170  0.00  0.00    +0.000 A 
ATOM      2  C   UNL     1      -0.370  12.029  19.865  0.00  0.00    +0.000 A 
ATOM      3  C   UNL     1      -1.189  13.075  19.520  0.00  0.00    +0.000 A 
ATOM      4  C   UNL     1      -2.426  12.619  19.155  0.00  0.00    +0.000 A 
ATOM      5  C   UNL     1      -3.501  12.603  20.129  0.00  0.00    +0.000 A 
ATOM      6  N   UNL     1      -3.417  12.707  21.487  0.00  0.00    +0.000 N 
ATOM      7  N   UNL     1      -4.633  12.645  22.070  0.00  0.00    +0.000 NA
ATOM      8  C   UNL     1      -5.447  12.281  21.067  0.00  0.00    +0.000 A 
ATOM      9  C   UNL     1      -4.746  12.072  19.878  0.00  0.00    +0.000 A 
ATOM     10  C   UNL     1      -5.039  11.533  18.577  0.00  0.00    +0.000 A 
ATOM     11  O   UNL     1      -6.191  11.317  18.206  0.00  0.00    +0.000 OA
ATOM     12  N   UNL     1      -3.893  11.272  17.742  0.00  0.00    +0.000 N 
ATOM     13  C   UNL     1      -2.540  11.612  18.195  0.00  0.00    +0.000 A 
ATOM     14  C   UNL     1      -1.443  10.696  18.176  0.00  0.00    +0.000 A 
ATOM     15  H   UNL     1      -2.583  12.760  22.069  0.00  0.00    +0.000 HD
ENDROOT
BRANCH   1  21
ATOM     16  C   UNL     1       0.379   8.991  20.929  0.00  0.00    +0.000 A 
ATOM     17  N   UNL     1       1.035   7.842  21.233  0.00  0.00    +0.000 NA
ATOM     18  C   UNL     1       1.895   7.338  20.343  0.00  0.00    +0.000 A 
ATOM     19  C   UNL     1       2.181   7.962  19.152  0.00  0.00    +0.000 A 
ATOM     20  C   UNL     1       1.499   9.139  18.810  0.00  0.00    +0.000 A 
ATOM     21  C   UNL     1       0.522   9.680  19.667  0.00  0.00    +0.000 A 
BRANCH  16  23
ATOM     22  C   UNL     1       0.127   9.490  23.298  0.00  0.00    +0.000 C 
ATOM     23  N   UNL     1      -0.447   9.472  21.960  0.00  0.00    +0.000 N 
ATOM     24  H   UNL     1      -0.820  10.377  21.683  0.00  0.00    +0.000 HD
ENDBRANCH  16  23
ENDBRANCH   1  21
BRANCH  12  25
ATOM     25  C   UNL     1      -4.223  11.373  16.306  0.00  0.00    +0.000 C 
BRANCH  25  26
ATOM     26  C   UNL     1      -3.563  10.302  15.393  0.00  0.00    +0.000 C 
ATOM     27  F   UNL     1      -3.331   9.135  16.039  0.00  0.00    +0.000 F 
ATOM     28  F   UNL     1      -4.369  10.010  14.342  0.00  0.00    +0.000 F 
ATOM     29  F   UNL     1      -2.388  10.724  14.872  0.00  0.00    +0.000 F 
ENDBRANCH  25  26
ENDBRANCH  12  25
TORSDOF 4
ENDMDL
