MODEL 1
REMARK VINA RESULT:      -8.1      0.000      0.000
REMARK  Name = 
REMARK  5 active torsions:
REMARK  status: ('A' for Active; 'I' for Inactive)
REMARK    1  A    between atoms: C_1  and  N_2
REMARK    2  A    between atoms: N_2  and  C_3
REMARK    3  A    between atoms: N_2  and  C_10
REMARK    4  A    between atoms: C_3  and  C_4
REMARK    5  A    between atoms: C_15  and  C_16
REMARK                            x       y       z     vdW  Elec       q    Type
REMARK                         _______ _______ _______ _____ _____    ______ ____
ROOT
ATOM      1  C   UNL     1       1.986   8.046  19.146  0.00  0.00    +0.000 A 
ATOM      2  C   UNL     1       2.467   8.449  17.885  0.00  0.00    +0.000 A 
ATOM      3  C   UNL     1       3.370   7.650  17.178  0.00  0.00    +0.000 A 
ATOM      4  C   UNL     1       3.780   6.456  17.744  0.00  0.00    +0.000 A 
ATOM      5  C   UNL     1       4.968   5.856  17.340  0.00  0.00    +0.000 A 
ATOM      6  C   UNL     1       5.513   4.884  18.211  0.00  0.00    +0.000 A 
ATOM      7  C   UNL     1       4.657   4.205  19.087  0.00  0.00    +0.000 A 
ATOM      8  O   UNL     1       5.005   3.226  19.726  0.00  0.00    +0.000 OA
ATOM      9  O   UNL     1       3.534   4.794  19.426  0.00  0.00    +0.000 OA
ATOM     10  C   UNL     1       3.153   5.943  18.892  0.00  0.00    +0.000 A 
ATOM     11  C   UNL     1       2.268   6.754  19.588  0.00  0.00    +0.000 A 
ENDROOT
BRANCH   6  12
ATOM     12  C   UNL     1       6.958   5.042  18.594  0.00  0.00    +0.000 C 
ATOM     13  N   UNL     1       7.227   5.398  19.811  0.00  0.00    +0.000 NA
ATOM     14  N   UNL     1       8.002   4.371  17.908  0.00  0.00    +0.000 N 
ATOM     15  H   UNL     1       6.526   5.676  20.517  0.00  0.00    +0.000 HD
ATOM     16  H   UNL     1       7.912   3.990  16.963  0.00  0.00    +0.000 HD
ATOM     17  H   UNL     1       8.843   4.100  18.442  0.00  0.00    +0.000 HD
ENDBRANCH   6  12
BRANCH   1  19
ATOM     18  C   UNL     1       0.881   8.550  21.347  0.00  0.00    +0.000 C 
ATOM     19  N   UNL     1       1.294   8.983  20.007  0.00  0.00    +0.000 N 
BRANCH  19  20
ATOM     20  C   UNL     1       1.164  10.385  19.660  0.00  0.00    +0.000 C 
BRANCH  20  21
ATOM     21  C   UNL     1      -0.225  10.692  19.176  0.00  0.00    +0.000 A 
ATOM     22  C   UNL     1      -0.750  10.031  18.050  0.00  0.00    +0.000 A 
ATOM     23  C   UNL     1      -2.037  10.325  17.603  0.00  0.00    +0.000 A 
ATOM     24  C   UNL     1      -2.819  11.261  18.285  0.00  0.00    +0.000 A 
ATOM     25  C   UNL     1      -2.310  11.916  19.407  0.00  0.00    +0.000 A 
ATOM     26  C   UNL     1      -1.014  11.638  19.849  0.00  0.00    +0.000 A 
ENDBRANCH  20  21
ENDBRANCH  19  20
ENDBRANCH   1  19
TORSDOF 4
ENDMDL
MODEL 2
REMARK VINA RESULT:      -8.0      2.423      3.726
REMARK  Name = 
REMARK  5 active torsions:
REMARK  status: ('A' for Active; 'I' for Inactive)
REMARK    1  A    between atoms: C_1  and  N_2
REMARK    2  A    between atoms: N_2  and  C_3
REMARK    3  A    between atoms: N_2  and  C_10
REMARK    4  A    between atoms: C_3  and  C_4
REMARK    5  A    between atoms: C_15  and  C_16
REMARK                            x       y       z     vdW  Elec       q    Type
REMARK                         _______ _______ _______ _____ _____    ______ ____
ROOT
ATOM      1  C   UNL     1       2.730   4.350  19.167  0.00  0.00    +0.000 A 
ATOM      2  C   UNL     1       2.284   3.890  17.913  0.00  0.00    +0.000 A 
ATOM      3  C   UNL     1       3.197   3.576  16.903  0.00  0.00    +0.000 A 
ATOM      4  C   UNL     1       4.548   3.726  17.163  0.00  0.00    +0.000 A 
ATOM      5  C   UNL     1       5.454   3.872  16.118  0.00  0.00    +0.000 A 
ATOM      6  C   UNL     1       6.720   4.408  16.449  0.00  0.00    +0.000 A 
ATOM      7  C   UNL     1       7.192   4.267  17.760  0.00  0.00    +0.000 A 
ATOM      8  O   UNL     1       8.341   4.523  18.081  0.00  0.00    +0.000 OA
ATOM      9  O   UNL     1       6.306   4.108  18.716  0.00  0.00    +0.000 OA
ATOM     10  C   UNL     1       5.014   3.978  18.464  0.00  0.00    +0.000 A 
ATOM     11  C   UNL     1       4.094   4.300  19.452  0.00  0.00    +0.000 A 
ENDROOT
BRANCH   6  12
ATOM     12  C   UNL     1       7.207   5.570  15.629  0.00  0.00    +0.000 C 
ATOM     13  N   UNL     1       7.592   6.636  16.258  0.00  0.00    +0.000 NA
ATOM     14  N   UNL     1       7.730   5.408  14.321  0.00  0.00    +0.000 N 
ATOM     15  H   UNL     1       7.502   6.791  17.275  0.00  0.00    +0.000 HD
ATOM     16  H   UNL     1       7.553   4.592  13.731  0.00  0.00    +0.000 HD
ATOM     17  H   UNL     1       8.464   6.062  14.003  0.00  0.00    +0.000 HD
ENDBRANCH   6  12
BRANCH   1  19
ATOM     18  C   UNL     1       0.590   4.218  20.480  0.00  0.00    +0.000 C 
ATOM     19  N   UNL     1       1.805   4.951  20.106  0.00  0.00    +0.000 N 
BRANCH  19  20
ATOM     20  C   UNL     1       2.133   6.165  20.828  0.00  0.00    +0.000 C 
BRANCH  20  21
ATOM     21  C   UNL     1       1.893   7.379  19.977  0.00  0.00    +0.000 A 
ATOM     22  C   UNL     1       2.378   7.430  18.656  0.00  0.00    +0.000 A 
ATOM     23  C   UNL     1       2.157   8.562  17.873  0.00  0.00    +0.000 A 
ATOM     24  C   UNL     1       1.435   9.641  18.388  0.00  0.00    +0.000 A 
ATOM     25  C   UNL     1       0.944   9.597  19.694  0.00  0.00    +0.000 A 
ATOM     26  C   UNL     1       1.177   8.472  20.490  0.00  0.00    +0.000 A 
ENDBRANCH  20  21
ENDBRANCH  19  20
ENDBRANCH   1  19
TORSDOF 4
ENDMDL
MODEL 3
REMARK VINA RESULT:      -7.8      2.601      7.628
REMARK  Name = 
REMARK  5 active torsions:
REMARK  status: ('A' for Active; 'I' for Inactive)
REMARK    1  A    between atoms: C_1  and  N_2
REMARK    2  A    between atoms: N_2  and  C_3
REMARK    3  A    between atoms: N_2  and  C_10
REMARK    4  A    between atoms: C_3  and  C_4
REMARK    5  A    between atoms: C_15  and  C_16
REMARK                            x       y       z     vdW  Elec       q    Type
REMARK                         _______ _______ _______ _____ _____    ______ ____
ROOT
ATOM      1  C   UNL     1       2.766   5.946  18.848  0.00  0.00    +0.000 A 
ATOM      2  C   UNL     1       3.223   6.701  17.750  0.00  0.00    +0.000 A 
ATOM      3  C   UNL     1       2.894   8.054  17.630  0.00  0.00    +0.000 A 
ATOM      4  C   UNL     1       2.113   8.634  18.613  0.00  0.00    +0.000 A 
ATOM      5  C   UNL     1       1.393   9.794  18.347  0.00  0.00    +0.000 A 
ATOM      6  C   UNL     1       0.334  10.098  19.235  0.00  0.00    +0.000 A 
ATOM      7  C   UNL     1       0.384   9.599  20.542  0.00  0.00    +0.000 A 
ATOM      8  O   UNL     1      -0.377   9.968  21.422  0.00  0.00    +0.000 OA
ATOM      9  O   UNL     1       1.094   8.516  20.758  0.00  0.00    +0.000 OA
ATOM     10  C   UNL     1       1.829   7.957  19.811  0.00  0.00    +0.000 A 
ATOM     11  C   UNL     1       2.152   6.610  19.908  0.00  0.00    +0.000 A 
ENDROOT
BRANCH   6  12
ATOM     12  C   UNL     1      -1.009  10.390  18.625  0.00  0.00    +0.000 C 
ATOM     13  N   UNL     1      -1.726  11.326  19.161  0.00  0.00    +0.000 NA
ATOM     14  N   UNL     1      -1.310  10.084  17.274  0.00  0.00    +0.000 N 
ATOM     15  H   UNL     1      -1.494  11.827  20.034  0.00  0.00    +0.000 HD
ATOM     16  H   UNL     1      -0.792   9.405  16.712  0.00  0.00    +0.000 HD
ATOM     17  H   UNL     1      -1.976  10.693  16.772  0.00  0.00    +0.000 HD
ENDBRANCH   6  12
BRANCH   1  19
ATOM     18  C   UNL     1       1.697   3.724  18.359  0.00  0.00    +0.000 C 
ATOM     19  N   UNL     1       2.848   4.500  18.835  0.00  0.00    +0.000 N 
BRANCH  19  20
ATOM     20  C   UNL     1       4.092   3.803  19.098  0.00  0.00    +0.000 C 
BRANCH  20  21
ATOM     21  C   UNL     1       5.103   4.082  18.022  0.00  0.00    +0.000 A 
ATOM     22  C   UNL     1       4.838   3.727  16.686  0.00  0.00    +0.000 A 
ATOM     23  C   UNL     1       5.783   3.983  15.694  0.00  0.00    +0.000 A 
ATOM     24  C   UNL     1       6.986   4.615  16.018  0.00  0.00    +0.000 A 
ATOM     25  C   UNL     1       7.254   4.977  17.338  0.00  0.00    +0.000 A 
ATOM     26  C   UNL     1       6.319   4.707  18.340  0.00  0.00    +0.000 A 
ENDBRANCH  20  21
ENDBRANCH  19  20
ENDBRANCH   1  19
TORSDOF 4
ENDMDL
MODEL 4
REMARK VINA RESULT:      -7.8      2.600      7.680
REMARK  Name = 
REMARK  5 active torsions:
REMARK  status: ('A' for Active; 'I' for Inactive)
REMARK    1  A    between atoms: C_1  and  N_2
REMARK    2  A    between atoms: N_2  and  C_3
REMARK    3  A    between atoms: N_2  and  C_10
REMARK    4  A    between atoms: C_3  and  C_4
REMARK    5  A    between atoms: C_15  and  C_16
REMARK                            x       y       z     vdW  Elec       q    Type
REMARK                         _______ _______ _______ _____ _____    ______ ____
ROOT
ATOM      1  C   UNL     1       2.763   5.952  18.855  0.00  0.00    +0.000 A 
ATOM      2  C   UNL     1       3.212   6.703  17.751  0.00  0.00    +0.000 A 
ATOM      3  C   UNL     1       2.880   8.055  17.627  0.00  0.00    +0.000 A 
ATOM      4  C   UNL     1       2.103   8.638  18.611  0.00  0.00    +0.000 A 
ATOM      5  C   UNL     1       1.379   9.795  18.343  0.00  0.00    +0.000 A 
ATOM      6  C   UNL     1       0.325  10.102  19.235  0.00  0.00    +0.000 A 
ATOM      7  C   UNL     1       0.383   9.609  20.545  0.00  0.00    +0.000 A 
ATOM      8  O   UNL     1      -0.373   9.982  21.426  0.00  0.00    +0.000 OA
ATOM      9  O   UNL     1       1.096   8.528  20.762  0.00  0.00    +0.000 OA
ATOM     10  C   UNL     1       1.827   7.966  19.813  0.00  0.00    +0.000 A 
ATOM     11  C   UNL     1       2.153   6.620  19.915  0.00  0.00    +0.000 A 
ENDROOT
BRANCH   6  12
ATOM     12  C   UNL     1      -1.021  10.388  18.632  0.00  0.00    +0.000 C 
ATOM     13  N   UNL     1      -1.747  11.309  19.181  0.00  0.00    +0.000 NA
ATOM     14  N   UNL     1      -1.321  10.099  17.276  0.00  0.00    +0.000 N 
ATOM     15  H   UNL     1      -1.519  11.801  20.061  0.00  0.00    +0.000 HD
ATOM     16  H   UNL     1      -0.797   9.433  16.704  0.00  0.00    +0.000 HD
ATOM     17  H   UNL     1      -1.994  10.708  16.783  0.00  0.00    +0.000 HD
ENDBRANCH   6  12
BRANCH   1  19
ATOM     18  C   UNL     1       1.697   3.726  18.374  0.00  0.00    +0.000 C 
ATOM     19  N   UNL     1       2.846   4.506  18.849  0.00  0.00    +0.000 N 
BRANCH  19  20
ATOM     20  C   UNL     1       4.091   3.813  19.118  0.00  0.00    +0.000 C 
BRANCH  20  21
ATOM     21  C   UNL     1       5.105   4.091  18.046  0.00  0.00    +0.000 A 
ATOM     22  C   UNL     1       6.327   4.716  18.363  0.00  0.00    +0.000 A 
ATOM     23  C   UNL     1       7.260   4.976  17.362  0.00  0.00    +0.000 A 
ATOM     24  C   UNL     1       6.998   4.598  16.043  0.00  0.00    +0.000 A 
ATOM     25  C   UNL     1       5.793   3.971  15.720  0.00  0.00    +0.000 A 
ATOM     26  C   UNL     1       4.846   3.723  16.716  0.00  0.00    +0.000 A 
ENDBRANCH  20  21
ENDBRANCH  19  20
ENDBRANCH   1  19
TORSDOF 4
ENDMDL
MODEL 5
REMARK VINA RESULT:      -7.8      2.595      4.012
REMARK  Name = 
REMARK  5 active torsions:
REMARK  status: ('A' for Active; 'I' for Inactive)
REMARK    1  A    between atoms: C_1  and  N_2
REMARK    2  A    between atoms: N_2  and  C_3
REMARK    3  A    between atoms: N_2  and  C_10
REMARK    4  A    between atoms: C_3  and  C_4
REMARK    5  A    between atoms: C_15  and  C_16
REMARK                            x       y       z     vdW  Elec       q    Type
REMARK                         _______ _______ _______ _____ _____    ______ ____
ROOT
ATOM      1  C   UNL     1       2.759   4.292  19.200  0.00  0.00    +0.000 A 
ATOM      2  C   UNL     1       2.197   3.600  18.110  0.00  0.00    +0.000 A 
ATOM      3  C   UNL     1       2.996   3.186  17.041  0.00  0.00    +0.000 A 
ATOM      4  C   UNL     1       4.349   3.469  17.079  0.00  0.00    +0.000 A 
ATOM      5  C   UNL     1       5.095   3.500  15.905  0.00  0.00    +0.000 A 
ATOM      6  C   UNL     1       6.340   4.169  15.965  0.00  0.00    +0.000 A 
ATOM      7  C   UNL     1       6.989   4.280  17.201  0.00  0.00    +0.000 A 
ATOM      8  O   UNL     1       8.142   4.663  17.311  0.00  0.00    +0.000 OA
ATOM      9  O   UNL     1       6.253   4.222  18.287  0.00  0.00    +0.000 OA
ATOM     10  C   UNL     1       4.956   3.965  18.245  0.00  0.00    +0.000 A 
ATOM     11  C   UNL     1       4.147   4.383  19.292  0.00  0.00    +0.000 A 
ENDROOT
BRANCH   6  12
ATOM     12  C   UNL     1       6.610   5.209  14.913  0.00  0.00    +0.000 C 
ATOM     13  N   UNL     1       5.810   6.226  14.849  0.00  0.00    +0.000 NA
ATOM     14  N   UNL     1       7.898   5.406  14.356  0.00  0.00    +0.000 N 
ATOM     15  H   UNL     1       4.943   6.336  15.399  0.00  0.00    +0.000 HD
ATOM     16  H   UNL     1       8.646   4.709  14.382  0.00  0.00    +0.000 HD
ATOM     17  H   UNL     1       8.160   6.359  14.055  0.00  0.00    +0.000 HD
ENDBRANCH   6  12
BRANCH   1  19
ATOM     18  C   UNL     1       0.694   4.314  20.635  0.00  0.00    +0.000 C 
ATOM     19  N   UNL     1       1.913   4.976  20.157  0.00  0.00    +0.000 N 
BRANCH  19  20
ATOM     20  C   UNL     1       2.328   6.210  20.797  0.00  0.00    +0.000 C 
BRANCH  20  21
ATOM     21  C   UNL     1       1.980   7.400  19.950  0.00  0.00    +0.000 A 
ATOM     22  C   UNL     1       1.230   8.463  20.487  0.00  0.00    +0.000 A 
ATOM     23  C   UNL     1       0.905   9.561  19.693  0.00  0.00    +0.000 A 
ATOM     24  C   UNL     1       1.342   9.622  18.367  0.00  0.00    +0.000 A 
ATOM     25  C   UNL     1       2.093   8.577  17.829  0.00  0.00    +0.000 A 
ATOM     26  C   UNL     1       2.407   7.465  18.614  0.00  0.00    +0.000 A 
ENDBRANCH  20  21
ENDBRANCH  19  20
ENDBRANCH   1  19
TORSDOF 4
ENDMDL
MODEL 6
REMARK VINA RESULT:      -7.6      0.556      1.265
REMARK  Name = 
REMARK  5 active torsions:
REMARK  status: ('A' for Active; 'I' for Inactive)
REMARK    1  A    between atoms: C_1  and  N_2
REMARK    2  A    between atoms: N_2  and  C_3
REMARK    3  A    between atoms: N_2  and  C_10
REMARK    4  A    between atoms: C_3  and  C_4
REMARK    5  A    between atoms: C_15  and  C_16
REMARK                            x       y       z     vdW  Elec       q    Type
REMARK                         _______ _______ _______ _____ _____    ______ ____
ROOT
ATOM      1  C   UNL     1       1.927   8.108  19.194  0.00  0.00    +0.000 A 
ATOM      2  C   UNL     1       2.320   8.543  17.913  0.00  0.00    +0.000 A 
ATOM      3  C   UNL     1       3.282   7.838  17.186  0.00  0.00    +0.000 A 
ATOM      4  C   UNL     1       3.839   6.705  17.751  0.00  0.00    +0.000 A 
ATOM      5  C   UNL     1       5.072   6.233  17.314  0.00  0.00    +0.000 A 
ATOM      6  C   UNL     1       5.749   5.340  18.178  0.00  0.00    +0.000 A 
ATOM      7  C   UNL     1       5.001   4.584  19.089  0.00  0.00    +0.000 A 
ATOM      8  O   UNL     1       5.476   3.658  19.727  0.00  0.00    +0.000 OA
ATOM      9  O   UNL     1       3.831   5.051  19.458  0.00  0.00    +0.000 OA
ATOM     10  C   UNL     1       3.310   6.143  18.925  0.00  0.00    +0.000 A 
ATOM     11  C   UNL     1       2.363   6.863  19.641  0.00  0.00    +0.000 A 
ENDROOT
BRANCH   6  12
ATOM     12  C   UNL     1       7.180   5.661  18.511  0.00  0.00    +0.000 C 
ATOM     13  N   UNL     1       7.812   6.481  17.732  0.00  0.00    +0.000 NA
ATOM     14  N   UNL     1       7.697   5.541  19.825  0.00  0.00    +0.000 N 
ATOM     15  H   UNL     1       7.446   6.861  16.845  0.00  0.00    +0.000 HD
ATOM     16  H   UNL     1       7.269   4.971  20.558  0.00  0.00    +0.000 HD
ATOM     17  H   UNL     1       8.447   6.189  20.117  0.00  0.00    +0.000 HD
ENDBRANCH   6  12
BRANCH   1  19
ATOM     18  C   UNL     1       0.648   8.442  21.333  0.00  0.00    +0.000 C 
ATOM     19  N   UNL     1       1.163   8.976  20.067  0.00  0.00    +0.000 N 
BRANCH  19  20
ATOM     20  C   UNL     1       1.052  10.401  19.820  0.00  0.00    +0.000 C 
BRANCH  20  21
ATOM     21  C   UNL     1      -0.326  10.758  19.342  0.00  0.00    +0.000 A 
ATOM     22  C   UNL     1      -1.085  11.734  20.018  0.00  0.00    +0.000 A 
ATOM     23  C   UNL     1      -2.365  12.056  19.573  0.00  0.00    +0.000 A 
ATOM     24  C   UNL     1      -2.893  11.429  18.440  0.00  0.00    +0.000 A 
ATOM     25  C   UNL     1      -2.145  10.467  17.760  0.00  0.00    +0.000 A 
ATOM     26  C   UNL     1      -0.868  10.127  18.212  0.00  0.00    +0.000 A 
ENDBRANCH  20  21
ENDBRANCH  19  20
ENDBRANCH   1  19
TORSDOF 4
ENDMDL
MODEL 7
REMARK VINA RESULT:      -7.5      2.205      2.920
REMARK  Name = 
REMARK  5 active torsions:
REMARK  status: ('A' for Active; 'I' for Inactive)
REMARK    1  A    between atoms: C_1  and  N_2
REMARK    2  A    between atoms: N_2  and  C_3
REMARK    3  A    between atoms: N_2  and  C_10
REMARK    4  A    between atoms: C_3  and  C_4
REMARK    5  A    between atoms: C_15  and  C_16
REMARK                            x       y       z     vdW  Elec       q    Type
REMARK                         _______ _______ _______ _____ _____    ______ ____
ROOT
ATOM      1  C   UNL     1       2.752   6.502  18.694  0.00  0.00    +0.000 A 
ATOM      2  C   UNL     1       1.968   5.488  18.109  0.00  0.00    +0.000 A 
ATOM      3  C   UNL     1       2.570   4.430  17.422  0.00  0.00    +0.000 A 
ATOM      4  C   UNL     1       3.950   4.402  17.330  0.00  0.00    +0.000 A 
ATOM      5  C   UNL     1       4.573   3.674  16.322  0.00  0.00    +0.000 A 
ATOM      6  C   UNL     1       5.922   4.002  16.047  0.00  0.00    +0.000 A 
ATOM      7  C   UNL     1       6.695   4.587  17.058  0.00  0.00    +0.000 A 
ATOM      8  O   UNL     1       7.904   4.721  16.973  0.00  0.00    +0.000 OA
ATOM      9  O   UNL     1       6.067   5.246  18.005  0.00  0.00    +0.000 OA
ATOM     10  C   UNL     1       4.747   5.281  18.081  0.00  0.00    +0.000 A 
ATOM     11  C   UNL     1       4.134   6.334  18.748  0.00  0.00    +0.000 A 
ENDROOT
BRANCH   6  12
ATOM     12  C   UNL     1       6.281   4.279  14.614  0.00  0.00    +0.000 C 
ATOM     13  N   UNL     1       7.042   5.298  14.367  0.00  0.00    +0.000 NA
ATOM     14  N   UNL     1       6.270   3.267  13.621  0.00  0.00    +0.000 N 
ATOM     15  H   UNL     1       7.347   5.996  15.064  0.00  0.00    +0.000 HD
ATOM     16  H   UNL     1       5.757   2.387  13.707  0.00  0.00    +0.000 HD
ATOM     17  H   UNL     1       6.945   3.338  12.843  0.00  0.00    +0.000 HD
ENDBRANCH   6  12
BRANCH   1  19
ATOM     18  C   UNL     1       1.651   7.829  20.524  0.00  0.00    +0.000 C 
ATOM     19  N   UNL     1       2.144   7.737  19.145  0.00  0.00    +0.000 N 
BRANCH  19  20
ATOM     20  C   UNL     1       2.178   8.943  18.339  0.00  0.00    +0.000 C 
BRANCH  20  21
ATOM     21  C   UNL     1       0.934   9.761  18.542  0.00  0.00    +0.000 A 
ATOM     22  C   UNL     1       0.910  10.797  19.495  0.00  0.00    +0.000 A 
ATOM     23  C   UNL     1      -0.249  11.548  19.682  0.00  0.00    +0.000 A 
ATOM     24  C   UNL     1      -1.384  11.290  18.908  0.00  0.00    +0.000 A 
ATOM     25  C   UNL     1      -1.367  10.270  17.956  0.00  0.00    +0.000 A 
ATOM     26  C   UNL     1      -0.213   9.503  17.776  0.00  0.00    +0.000 A 
ENDBRANCH  20  21
ENDBRANCH  19  20
ENDBRANCH   1  19
TORSDOF 4
ENDMDL
MODEL 8
REMARK VINA RESULT:      -7.5      2.123      2.686
REMARK  Name = 
REMARK  5 active torsions:
REMARK  status: ('A' for Active; 'I' for Inactive)
REMARK    1  A    between atoms: C_1  and  N_2
REMARK    2  A    between atoms: N_2  and  C_3
REMARK    3  A    between atoms: N_2  and  C_10
REMARK    4  A    between atoms: C_3  and  C_4
REMARK    5  A    between atoms: C_15  and  C_16
REMARK                            x       y       z     vdW  Elec       q    Type
REMARK                         _______ _______ _______ _____ _____    ______ ____
ROOT
ATOM      1  C   UNL     1       2.740   6.531  18.709  0.00  0.00    +0.000 A 
ATOM      2  C   UNL     1       1.969   5.546  18.060  0.00  0.00    +0.000 A 
ATOM      3  C   UNL     1       2.585   4.490  17.384  0.00  0.00    +0.000 A 
ATOM      4  C   UNL     1       3.967   4.432  17.368  0.00  0.00    +0.000 A 
ATOM      5  C   UNL     1       4.630   3.712  16.380  0.00  0.00    +0.000 A 
ATOM      6  C   UNL     1       5.999   4.015  16.188  0.00  0.00    +0.000 A 
ATOM      7  C   UNL     1       6.726   4.561  17.253  0.00  0.00    +0.000 A 
ATOM      8  O   UNL     1       7.941   4.670  17.238  0.00  0.00    +0.000 OA
ATOM      9  O   UNL     1       6.061   5.214  18.178  0.00  0.00    +0.000 OA
ATOM     10  C   UNL     1       4.740   5.278  18.181  0.00  0.00    +0.000 A 
ATOM     11  C   UNL     1       4.113   6.330  18.836  0.00  0.00    +0.000 A 
ENDROOT
BRANCH   6  12
ATOM     12  C   UNL     1       6.443   4.313  14.783  0.00  0.00    +0.000 C 
ATOM     13  N   UNL     1       7.335   5.237  14.614  0.00  0.00    +0.000 NA
ATOM     14  N   UNL     1       6.342   3.360  13.738  0.00  0.00    +0.000 N 
ATOM     15  H   UNL     1       7.700   5.855  15.357  0.00  0.00    +0.000 HD
ATOM     16  H   UNL     1       5.719   2.550  13.761  0.00  0.00    +0.000 HD
ATOM     17  H   UNL     1       7.050   3.382  12.986  0.00  0.00    +0.000 HD
ENDBRANCH   6  12
BRANCH   1  19
ATOM     18  C   UNL     1       1.637   7.869  20.530  0.00  0.00    +0.000 C 
ATOM     19  N   UNL     1       2.135   7.770  19.152  0.00  0.00    +0.000 N 
BRANCH  19  20
ATOM     20  C   UNL     1       2.175   8.972  18.341  0.00  0.00    +0.000 C 
BRANCH  20  21
ATOM     21  C   UNL     1       0.933   9.794  18.537  0.00  0.00    +0.000 A 
ATOM     22  C   UNL     1      -0.240   9.497  17.818  0.00  0.00    +0.000 A 
ATOM     23  C   UNL     1      -1.386  10.268  18.000  0.00  0.00    +0.000 A 
ATOM     24  C   UNL     1      -1.383  11.325  18.915  0.00  0.00    +0.000 A 
ATOM     25  C   UNL     1      -0.227  11.622  19.638  0.00  0.00    +0.000 A 
ATOM     26  C   UNL     1       0.931  10.863  19.447  0.00  0.00    +0.000 A 
ENDBRANCH  20  21
ENDBRANCH  19  20
ENDBRANCH   1  19
TORSDOF 4
ENDMDL
MODEL 9
REMARK VINA RESULT:      -7.5      4.142      7.234
REMARK  Name = 
REMARK  5 active torsions:
REMARK  status: ('A' for Active; 'I' for Inactive)
REMARK    1  A    between atoms: C_1  and  N_2
REMARK    2  A    between atoms: N_2  and  C_3
REMARK    3  A    between atoms: N_2  and  C_10
REMARK    4  A    between atoms: C_3  and  C_4
REMARK    5  A    between atoms: C_15  and  C_16
REMARK                            x       y       z     vdW  Elec       q    Type
REMARK                         _______ _______ _______ _____ _____    ______ ____
ROOT
ATOM      1  C   UNL     1       5.490   6.229  17.956  0.00  0.00    +0.000 A 
ATOM      2  C   UNL     1       4.384   6.789  17.287  0.00  0.00    +0.000 A 
ATOM      3  C   UNL     1       3.080   6.462  17.671  0.00  0.00    +0.000 A 
ATOM      4  C   UNL     1       2.901   5.579  18.720  0.00  0.00    +0.000 A 
ATOM      5  C   UNL     1       1.707   4.879  18.856  0.00  0.00    +0.000 A 
ATOM      6  C   UNL     1       1.736   3.733  19.685  0.00  0.00    +0.000 A 
ATOM      7  C   UNL     1       2.704   3.654  20.694  0.00  0.00    +0.000 A 
ATOM      8  O   UNL     1       2.679   2.804  21.569  0.00  0.00    +0.000 OA
ATOM      9  O   UNL     1       3.808   4.347  20.540  0.00  0.00    +0.000 OA
ATOM     10  C   UNL     1       3.980   5.180  19.528  0.00  0.00    +0.000 A 
ATOM     11  C   UNL     1       5.269   5.503  19.125  0.00  0.00    +0.000 A 
ENDROOT
BRANCH   6  12
ATOM     12  C   UNL     1       1.189   2.457  19.108  0.00  0.00    +0.000 C 
ATOM     13  N   UNL     1       0.061   2.514  18.475  0.00  0.00    +0.000 NA
ATOM     14  N   UNL     1       2.021   1.356  18.781  0.00  0.00    +0.000 N 
ATOM     15  H   UNL     1      -0.546   3.348  18.414  0.00  0.00    +0.000 HD
ATOM     16  H   UNL     1       2.958   1.213  19.165  0.00  0.00    +0.000 HD
ATOM     17  H   UNL     1       1.744   0.752  17.990  0.00  0.00    +0.000 HD
ENDBRANCH   6  12
BRANCH   1  19
ATOM     18  C   UNL     1       7.547   7.596  17.482  0.00  0.00    +0.000 C 
ATOM     19  N   UNL     1       6.820   6.324  17.391  0.00  0.00    +0.000 N 
BRANCH  19  20
ATOM     20  C   UNL     1       7.529   5.154  16.907  0.00  0.00    +0.000 C 
BRANCH  20  21
ATOM     21  C   UNL     1       6.999   4.720  15.569  0.00  0.00    +0.000 A 
ATOM     22  C   UNL     1       7.620   5.152  14.382  0.00  0.00    +0.000 A 
ATOM     23  C   UNL     1       7.120   4.750  13.145  0.00  0.00    +0.000 A 
ATOM     24  C   UNL     1       6.015   3.898  13.079  0.00  0.00    +0.000 A 
ATOM     25  C   UNL     1       5.398   3.458  14.251  0.00  0.00    +0.000 A 
ATOM     26  C   UNL     1       5.884   3.871  15.494  0.00  0.00    +0.000 A 
ENDBRANCH  20  21
ENDBRANCH  19  20
ENDBRANCH   1  19
TORSDOF 4
ENDMDL
