MODEL 1
REMARK VINA RESULT:      -7.7      0.000      0.000
REMARK  Name = 
REMARK  9 active torsions:
REMARK  status: ('A' for Active; 'I' for Inactive)
REMARK    1  A    between atoms: C_1  and  O_2
REMARK    2  A    between atoms: O_2  and  C_3
REMARK    3  A    between atoms: C_5  and  O_6
REMARK    4  A    between atoms: O_6  and  C_7
REMARK    5  A    between atoms: N_13  and  S_14
REMARK    6  A    between atoms: S_14  and  C_17
REMARK    7  A    between atoms: C_22  and  C_23
REMARK    8  A    between atoms: N_25  and  C_26
REMARK    9  A    between atoms: N_25  and  C_27
REMARK                            x       y       z     vdW  Elec       q    Type
REMARK                         _______ _______ _______ _____ _____    ______ ____
ROOT
ATOM      1  C   UNL     1       6.114   4.633  18.604  0.00  0.00    +0.000 A 
ATOM      2  C   UNL     1       5.671   4.725  17.305  0.00  0.00    +0.000 A 
ATOM      3  C   UNL     1       6.195   5.769  16.602  0.00  0.00    +0.000 A 
ATOM      4  N   UNL     1       7.050   6.635  17.137  0.00  0.00    +0.000 NA
ATOM      5  C   UNL     1       7.393   6.501  18.406  0.00  0.00    +0.000 A 
ATOM      6  N   UNL     1       8.221   7.468  18.973  0.00  0.00    +0.000 N 
ATOM      7  C   UNL     1       8.513   8.639  18.318  0.00  0.00    +0.000 C 
ATOM      8  O   UNL     1       8.122   8.965  17.205  0.00  0.00    +0.000 OA
ATOM      9  N   UNL     1       9.304   9.506  19.046  0.00  0.00    +0.000 N 
ATOM     10  N   UNL     1       6.978   5.497  19.190  0.00  0.00    +0.000 NA
ATOM     11  H   UNL     1       8.481   7.321  19.924  0.00  0.00    +0.000 HD
ATOM     12  H   UNL     1       9.727   9.272  19.935  0.00  0.00    +0.000 HD
ENDROOT
BRANCH   9  13
ATOM     13  S   UNL     1       9.506  11.135  18.639  0.00  0.00    +0.000 S 
ATOM     14  O   UNL     1      10.858  11.145  18.119  0.00  0.00    +0.000 OA
ATOM     15  O   UNL     1       8.361  11.510  17.836  0.00  0.00    +0.000 OA
BRANCH  13  16
ATOM     16  C   UNL     1       9.477  12.071  20.190  0.00  0.00    +0.000 A 
ATOM     17  N   UNL     1       8.976  11.333  21.238  0.00  0.00    +0.000 NA
ATOM     18  C   UNL     1       8.753  11.992  22.389  0.00  0.00    +0.000 A 
ATOM     19  C   UNL     1       9.081  13.322  22.577  0.00  0.00    +0.000 A 
ATOM     20  C   UNL     1       9.673  14.024  21.522  0.00  0.00    +0.000 A 
ATOM     21  C   UNL     1       9.834  13.425  20.265  0.00  0.00    +0.000 A 
BRANCH  21  22
ATOM     22  C   UNL     1      10.529  14.114  19.144  0.00  0.00    +0.000 C 
ATOM     23  O   UNL     1      11.757  14.024  19.174  0.00  0.00    +0.000 OA
ATOM     24  N   UNL     1       9.903  14.875  18.148  0.00  0.00    +0.000 N 
ATOM     25  C   UNL     1       8.488  15.153  17.934  0.00  0.00    +0.000 C 
ATOM     26  C   UNL     1      10.773  15.488  17.144  0.00  0.00    +0.000 C 
ENDBRANCH  21  22
ENDBRANCH  13  16
ENDBRANCH   9  13
BRANCH   1  28
ATOM     27  C   UNL     1       4.341   3.111  18.848  0.00  0.00    +0.000 C 
ATOM     28  O   UNL     1       5.599   3.572  19.329  0.00  0.00    +0.000 OA
ENDBRANCH   1  28
BRANCH   3  29
ATOM     29  O   UNL     1       5.811   5.956  15.292  0.00  0.00    +0.000 OA
ATOM     30  C   UNL     1       5.771   4.717  14.574  0.00  0.00    +0.000 C 
ENDBRANCH   3  29
TORSDOF 5
ENDMDL
MODEL 2
REMARK VINA RESULT:      -7.3      6.970     10.655
REMARK  Name = 
REMARK  9 active torsions:
REMARK  status: ('A' for Active; 'I' for Inactive)
REMARK    1  A    between atoms: C_1  and  O_2
REMARK    2  A    between atoms: O_2  and  C_3
REMARK    3  A    between atoms: C_5  and  O_6
REMARK    4  A    between atoms: O_6  and  C_7
REMARK    5  A    between atoms: N_13  and  S_14
REMARK    6  A    between atoms: S_14  and  C_17
REMARK    7  A    between atoms: C_22  and  C_23
REMARK    8  A    between atoms: N_25  and  C_26
REMARK    9  A    between atoms: N_25  and  C_27
REMARK                            x       y       z     vdW  Elec       q    Type
REMARK                         _______ _______ _______ _____ _____    ______ ____
ROOT
ATOM      1  C   UNL     1      -0.554  12.590  19.917  0.00  0.00    +0.000 A 
ATOM      2  C   UNL     1      -0.790  12.337  21.249  0.00  0.00    +0.000 A 
ATOM      3  C   UNL     1      -0.182  11.215  21.728  0.00  0.00    +0.000 A 
ATOM      4  N   UNL     1       0.563  10.424  20.964  0.00  0.00    +0.000 NA
ATOM      5  C   UNL     1       0.707  10.713  19.683  0.00  0.00    +0.000 A 
ATOM      6  N   UNL     1       1.419   9.825  18.879  0.00  0.00    +0.000 N 
ATOM      7  C   UNL     1       1.788   8.583  19.332  0.00  0.00    +0.000 C 
ATOM      8  O   UNL     1       1.570   8.121  20.444  0.00  0.00    +0.000 OA
ATOM      9  N   UNL     1       2.440   7.813  18.388  0.00  0.00    +0.000 N 
ATOM     10  N   UNL     1       0.193  11.806  19.103  0.00  0.00    +0.000 NA
ATOM     11  H   UNL     1       1.531  10.089  17.924  0.00  0.00    +0.000 HD
ATOM     12  H   UNL     1       2.724   8.155  17.480  0.00  0.00    +0.000 HD
ENDROOT
BRANCH   9  13
ATOM     13  S   UNL     1       2.673   6.147  18.557  0.00  0.00    +0.000 S 
ATOM     14  O   UNL     1       3.212   6.058  19.899  0.00  0.00    +0.000 OA
ATOM     15  O   UNL     1       1.431   5.509  18.174  0.00  0.00    +0.000 OA
BRANCH  13  16
ATOM     16  C   UNL     1       3.970   5.677  17.382  0.00  0.00    +0.000 A 
ATOM     17  N   UNL     1       4.746   6.748  17.003  0.00  0.00    +0.000 NA
ATOM     18  C   UNL     1       5.623   6.536  16.006  0.00  0.00    +0.000 A 
ATOM     19  C   UNL     1       5.827   5.297  15.425  0.00  0.00    +0.000 A 
ATOM     20  C   UNL     1       5.087   4.206  15.894  0.00  0.00    +0.000 A 
ATOM     21  C   UNL     1       4.084   4.382  16.856  0.00  0.00    +0.000 A 
BRANCH  21  22
ATOM     22  C   UNL     1       3.331   3.234  17.433  0.00  0.00    +0.000 C 
ATOM     23  O   UNL     1       2.371   2.863  16.757  0.00  0.00    +0.000 OA
ATOM     24  N   UNL     1       3.598   2.629  18.668  0.00  0.00    +0.000 N 
ATOM     25  C   UNL     1       4.641   2.919  19.645  0.00  0.00    +0.000 C 
ATOM     26  C   UNL     1       2.725   1.524  19.062  0.00  0.00    +0.000 C 
ENDBRANCH  21  22
ENDBRANCH  13  16
ENDBRANCH   9  13
BRANCH   1  28
ATOM     27  C   UNL     1      -0.236  14.773  19.111  0.00  0.00    +0.000 C 
ATOM     28  O   UNL     1      -1.156  13.732  19.418  0.00  0.00    +0.000 OA
ENDBRANCH   1  28
BRANCH   3  29
ATOM     29  O   UNL     1      -0.361  10.867  23.049  0.00  0.00    +0.000 OA
ATOM     30  C   UNL     1      -0.014   9.497  23.283  0.00  0.00    +0.000 C 
ENDBRANCH   3  29
TORSDOF 5
ENDMDL
MODEL 3
REMARK VINA RESULT:      -7.3      6.795      8.501
REMARK  Name = 
REMARK  9 active torsions:
REMARK  status: ('A' for Active; 'I' for Inactive)
REMARK    1  A    between atoms: C_1  and  O_2
REMARK    2  A    between atoms: O_2  and  C_3
REMARK    3  A    between atoms: C_5  and  O_6
REMARK    4  A    between atoms: O_6  and  C_7
REMARK    5  A    between atoms: N_13  and  S_14
REMARK    6  A    between atoms: S_14  and  C_17
REMARK    7  A    between atoms: C_22  and  C_23
REMARK    8  A    between atoms: N_25  and  C_26
REMARK    9  A    between atoms: N_25  and  C_27
REMARK                            x       y       z     vdW  Elec       q    Type
REMARK                         _______ _______ _______ _____ _____    ______ ____
ROOT
ATOM      1  C   UNL     1       4.937   4.332  18.287  0.00  0.00    +0.000 A 
ATOM      2  C   UNL     1       4.518   3.373  19.180  0.00  0.00    +0.000 A 
ATOM      3  C   UNL     1       3.452   3.741  19.946  0.00  0.00    +0.000 A 
ATOM      4  N   UNL     1       2.879   4.936  19.847  0.00  0.00    +0.000 NA
ATOM      5  C   UNL     1       3.369   5.817  18.993  0.00  0.00    +0.000 A 
ATOM      6  N   UNL     1       2.810   7.094  18.967  0.00  0.00    +0.000 N 
ATOM      7  C   UNL     1       1.923   7.511  19.928  0.00  0.00    +0.000 C 
ATOM      8  O   UNL     1       1.513   6.851  20.873  0.00  0.00    +0.000 OA
ATOM      9  N   UNL     1       1.509   8.821  19.778  0.00  0.00    +0.000 N 
ATOM     10  N   UNL     1       4.386   5.563  18.159  0.00  0.00    +0.000 NA
ATOM     11  H   UNL     1       3.186   7.724  18.291  0.00  0.00    +0.000 HD
ATOM     12  H   UNL     1       1.744   9.398  18.981  0.00  0.00    +0.000 HD
ENDROOT
BRANCH   9  13
ATOM     13  S   UNL     1       0.724   9.686  20.999  0.00  0.00    +0.000 S 
ATOM     14  O   UNL     1      -0.612   9.127  20.946  0.00  0.00    +0.000 OA
ATOM     15  O   UNL     1       1.559   9.596  22.179  0.00  0.00    +0.000 OA
BRANCH  13  16
ATOM     16  C   UNL     1       0.649  11.412  20.454  0.00  0.00    +0.000 A 
ATOM     17  N   UNL     1       1.413  12.244  21.240  0.00  0.00    +0.000 NA
ATOM     18  C   UNL     1       1.288  13.565  21.024  0.00  0.00    +0.000 A 
ATOM     19  C   UNL     1       0.507  14.097  20.014  0.00  0.00    +0.000 A 
ATOM     20  C   UNL     1      -0.189  13.224  19.172  0.00  0.00    +0.000 A 
ATOM     21  C   UNL     1      -0.184  11.843  19.411  0.00  0.00    +0.000 A 
BRANCH  21  22
ATOM     22  C   UNL     1      -0.849  10.878  18.493  0.00  0.00    +0.000 C 
ATOM     23  O   UNL     1      -0.076  10.138  17.885  0.00  0.00    +0.000 OA
ATOM     24  N   UNL     1      -2.227  10.815  18.243  0.00  0.00    +0.000 N 
ATOM     25  C   UNL     1      -3.316  11.605  18.805  0.00  0.00    +0.000 C 
ATOM     26  C   UNL     1      -2.676   9.804  17.287  0.00  0.00    +0.000 C 
ENDBRANCH  21  22
ENDBRANCH  13  16
ENDBRANCH   9  13
BRANCH   1  28
ATOM     27  C   UNL     1       6.994   4.991  17.364  0.00  0.00    +0.000 C 
ATOM     28  O   UNL     1       6.012   3.970  17.494  0.00  0.00    +0.000 OA
ENDBRANCH   1  28
BRANCH   3  29
ATOM     29  O   UNL     1       2.958   2.855  20.878  0.00  0.00    +0.000 OA
ATOM     30  C   UNL     1       1.864   3.420  21.611  0.00  0.00    +0.000 C 
ENDBRANCH   3  29
TORSDOF 5
ENDMDL
MODEL 4
REMARK VINA RESULT:      -7.2      0.844      1.080
REMARK  Name = 
REMARK  9 active torsions:
REMARK  status: ('A' for Active; 'I' for Inactive)
REMARK    1  A    between atoms: C_1  and  O_2
REMARK    2  A    between atoms: O_2  and  C_3
REMARK    3  A    between atoms: C_5  and  O_6
REMARK    4  A    between atoms: O_6  and  C_7
REMARK    5  A    between atoms: N_13  and  S_14
REMARK    6  A    between atoms: S_14  and  C_17
REMARK    7  A    between atoms: C_22  and  C_23
REMARK    8  A    between atoms: N_25  and  C_26
REMARK    9  A    between atoms: N_25  and  C_27
REMARK                            x       y       z     vdW  Elec       q    Type
REMARK                         _______ _______ _______ _____ _____    ______ ____
ROOT
ATOM      1  C   UNL     1       6.170   4.687  18.487  0.00  0.00    +0.000 A 
ATOM      2  C   UNL     1       5.869   4.655  17.144  0.00  0.00    +0.000 A 
ATOM      3  C   UNL     1       6.432   5.659  16.414  0.00  0.00    +0.000 A 
ATOM      4  N   UNL     1       7.193   6.601  16.962  0.00  0.00    +0.000 NA
ATOM      5  C   UNL     1       7.400   6.586  18.266  0.00  0.00    +0.000 A 
ATOM      6  N   UNL     1       8.128   7.630  18.834  0.00  0.00    +0.000 N 
ATOM      7  C   UNL     1       8.450   8.755  18.116  0.00  0.00    +0.000 C 
ATOM      8  O   UNL     1       8.173   8.973  16.944  0.00  0.00    +0.000 OA
ATOM      9  N   UNL     1       9.128   9.712  18.847  0.00  0.00    +0.000 N 
ATOM     10  N   UNL     1       6.936   5.632  19.085  0.00  0.00    +0.000 NA
ATOM     11  H   UNL     1       8.288   7.572  19.816  0.00  0.00    +0.000 HD
ATOM     12  H   UNL     1       9.459   9.569  19.792  0.00  0.00    +0.000 HD
ENDROOT
BRANCH   9  13
ATOM     13  S   UNL     1       9.318  11.309  18.326  0.00  0.00    +0.000 S 
ATOM     14  O   UNL     1      10.634  11.268  17.721  0.00  0.00    +0.000 OA
ATOM     15  O   UNL     1       8.127  11.649  17.577  0.00  0.00    +0.000 OA
BRANCH  13  16
ATOM     16  C   UNL     1       9.400  12.340  19.814  0.00  0.00    +0.000 A 
ATOM     17  N   UNL     1       9.206  11.613  20.966  0.00  0.00    +0.000 NA
ATOM     18  C   UNL     1       9.076  12.312  22.107  0.00  0.00    +0.000 A 
ATOM     19  C   UNL     1       9.214  13.687  22.175  0.00  0.00    +0.000 A 
ATOM     20  C   UNL     1       9.501  14.391  21.001  0.00  0.00    +0.000 A 
ATOM     21  C   UNL     1       9.542  13.734  19.764  0.00  0.00    +0.000 A 
BRANCH  21  22
ATOM     22  C   UNL     1       9.920  14.437  18.507  0.00  0.00    +0.000 C 
ATOM     23  O   UNL     1       9.058  14.409  17.628  0.00  0.00    +0.000 OA
ATOM     24  N   UNL     1      11.162  15.037  18.256  0.00  0.00    +0.000 N 
ATOM     25  C   UNL     1      12.332  15.158  19.116  0.00  0.00    +0.000 C 
ATOM     26  C   UNL     1      11.339  15.660  16.944  0.00  0.00    +0.000 C 
ENDBRANCH  21  22
ENDBRANCH  13  16
ENDBRANCH   9  13
BRANCH   1  28
ATOM     27  C   UNL     1       4.322   3.273  18.799  0.00  0.00    +0.000 C 
ATOM     28  O   UNL     1       5.615   3.668  19.240  0.00  0.00    +0.000 OA
ENDBRANCH   1  28
BRANCH   3  29
ATOM     29  O   UNL     1       6.186   5.723  15.061  0.00  0.00    +0.000 OA
ATOM     30  C   UNL     1       6.396   4.454  14.428  0.00  0.00    +0.000 C 
ENDBRANCH   3  29
TORSDOF 5
ENDMDL
MODEL 5
REMARK VINA RESULT:      -7.2      6.837      7.756
REMARK  Name = 
REMARK  9 active torsions:
REMARK  status: ('A' for Active; 'I' for Inactive)
REMARK    1  A    between atoms: C_1  and  O_2
REMARK    2  A    between atoms: O_2  and  C_3
REMARK    3  A    between atoms: C_5  and  O_6
REMARK    4  A    between atoms: O_6  and  C_7
REMARK    5  A    between atoms: N_13  and  S_14
REMARK    6  A    between atoms: S_14  and  C_17
REMARK    7  A    between atoms: C_22  and  C_23
REMARK    8  A    between atoms: N_25  and  C_26
REMARK    9  A    between atoms: N_25  and  C_27
REMARK                            x       y       z     vdW  Elec       q    Type
REMARK                         _______ _______ _______ _____ _____    ______ ____
ROOT
ATOM      1  C   UNL     1       3.807   3.708  17.825  0.00  0.00    +0.000 A 
ATOM      2  C   UNL     1       4.533   4.175  16.753  0.00  0.00    +0.000 A 
ATOM      3  C   UNL     1       4.537   5.532  16.622  0.00  0.00    +0.000 A 
ATOM      4  N   UNL     1       3.878   6.333  17.452  0.00  0.00    +0.000 NA
ATOM      5  C   UNL     1       3.170   5.803  18.433  0.00  0.00    +0.000 A 
ATOM      6  N   UNL     1       2.416   6.654  19.240  0.00  0.00    +0.000 N 
ATOM      7  C   UNL     1       2.233   7.975  18.918  0.00  0.00    +0.000 C 
ATOM      8  O   UNL     1       2.695   8.556  17.945  0.00  0.00    +0.000 OA
ATOM      9  N   UNL     1       1.416   8.659  19.798  0.00  0.00    +0.000 N 
ATOM     10  N   UNL     1       3.118   4.489  18.691  0.00  0.00    +0.000 NA
ATOM     11  H   UNL     1       1.915   6.222  19.987  0.00  0.00    +0.000 HD
ATOM     12  H   UNL     1       1.066   8.267  20.662  0.00  0.00    +0.000 HD
ENDROOT
BRANCH   9  13
ATOM     13  S   UNL     1       0.741  10.169  19.448  0.00  0.00    +0.000 S 
ATOM     14  O   UNL     1       1.923  10.986  19.262  0.00  0.00    +0.000 OA
ATOM     15  O   UNL     1      -0.233   9.958  18.397  0.00  0.00    +0.000 OA
BRANCH  13  16
ATOM     16  C   UNL     1      -0.113  10.722  20.947  0.00  0.00    +0.000 A 
ATOM     17  N   UNL     1      -0.052   9.791  21.959  0.00  0.00    +0.000 NA
ATOM     18  C   UNL     1      -0.799  10.034  23.050  0.00  0.00    +0.000 A 
ATOM     19  C   UNL     1      -1.536  11.191  23.222  0.00  0.00    +0.000 A 
ATOM     20  C   UNL     1      -1.508  12.162  22.215  0.00  0.00    +0.000 A 
ATOM     21  C   UNL     1      -0.835  11.923  21.010  0.00  0.00    +0.000 A 
BRANCH  21  22
ATOM     22  C   UNL     1      -0.718  12.962  19.949  0.00  0.00    +0.000 C 
ATOM     23  O   UNL     1      -1.560  12.873  19.055  0.00  0.00    +0.000 OA
ATOM     24  N   UNL     1       0.283  13.940  19.880  0.00  0.00    +0.000 N 
ATOM     25  C   UNL     1       1.391  14.209  20.787  0.00  0.00    +0.000 C 
ATOM     26  C   UNL     1       0.229  14.857  18.741  0.00  0.00    +0.000 C 
ENDBRANCH  21  22
ENDBRANCH  13  16
ENDBRANCH   9  13
BRANCH   1  28
ATOM     27  C   UNL     1       4.037   1.908  19.316  0.00  0.00    +0.000 C 
ATOM     28  O   UNL     1       3.802   2.333  17.979  0.00  0.00    +0.000 OA
ENDBRANCH   1  28
BRANCH   3  29
ATOM     29  O   UNL     1       5.228   6.102  15.575  0.00  0.00    +0.000 OA
ATOM     30  C   UNL     1       6.019   5.132  14.877  0.00  0.00    +0.000 C 
ENDBRANCH   3  29
TORSDOF 5
ENDMDL
MODEL 6
REMARK VINA RESULT:      -7.1      7.351      8.879
REMARK  Name = 
REMARK  9 active torsions:
REMARK  status: ('A' for Active; 'I' for Inactive)
REMARK    1  A    between atoms: C_1  and  O_2
REMARK    2  A    between atoms: O_2  and  C_3
REMARK    3  A    between atoms: C_5  and  O_6
REMARK    4  A    between atoms: O_6  and  C_7
REMARK    5  A    between atoms: N_13  and  S_14
REMARK    6  A    between atoms: S_14  and  C_17
REMARK    7  A    between atoms: C_22  and  C_23
REMARK    8  A    between atoms: N_25  and  C_26
REMARK    9  A    between atoms: N_25  and  C_27
REMARK                            x       y       z     vdW  Elec       q    Type
REMARK                         _______ _______ _______ _____ _____    ______ ____
ROOT
ATOM      1  C   UNL     1       4.529   4.915  18.083  0.00  0.00    +0.000 A 
ATOM      2  C   UNL     1       4.019   4.338  19.224  0.00  0.00    +0.000 A 
ATOM      3  C   UNL     1       3.012   5.044  19.813  0.00  0.00    +0.000 A 
ATOM      4  N   UNL     1       2.574   6.203  19.331  0.00  0.00    +0.000 NA
ATOM      5  C   UNL     1       3.146   6.710  18.254  0.00  0.00    +0.000 A 
ATOM      6  N   UNL     1       2.732   7.967  17.815  0.00  0.00    +0.000 N 
ATOM      7  C   UNL     1       1.911   8.761  18.577  0.00  0.00    +0.000 C 
ATOM      8  O   UNL     1       1.444   8.481  19.673  0.00  0.00    +0.000 OA
ATOM      9  N   UNL     1       1.643   9.994  18.014  0.00  0.00    +0.000 N 
ATOM     10  N   UNL     1       4.115   6.096  17.563  0.00  0.00    +0.000 NA
ATOM     11  H   UNL     1       3.166   8.307  16.983  0.00  0.00    +0.000 HD
ATOM     12  H   UNL     1       1.928  10.261  17.081  0.00  0.00    +0.000 HD
ENDROOT
BRANCH   9  13
ATOM     13  S   UNL     1       0.977  11.281  18.884  0.00  0.00    +0.000 S 
ATOM     14  O   UNL     1       1.314  10.922  20.247  0.00  0.00    +0.000 OA
ATOM     15  O   UNL     1       1.452  12.499  18.261  0.00  0.00    +0.000 OA
BRANCH  13  16
ATOM     16  C   UNL     1      -0.821  11.173  18.687  0.00  0.00    +0.000 A 
ATOM     17  N   UNL     1      -1.196  10.140  17.858  0.00  0.00    +0.000 NA
ATOM     18  C   UNL     1      -2.493  10.084  17.512  0.00  0.00    +0.000 A 
ATOM     19  C   UNL     1      -3.450  10.948  18.012  0.00  0.00    +0.000 A 
ATOM     20  C   UNL     1      -3.055  11.933  18.923  0.00  0.00    +0.000 A 
ATOM     21  C   UNL     1      -1.703  12.112  19.242  0.00  0.00    +0.000 A 
BRANCH  21  22
ATOM     22  C   UNL     1      -1.254  13.096  20.265  0.00  0.00    +0.000 C 
ATOM     23  O   UNL     1      -0.954  14.201  19.811  0.00  0.00    +0.000 OA
ATOM     24  N   UNL     1      -1.098  12.831  21.632  0.00  0.00    +0.000 N 
ATOM     25  C   UNL     1      -1.349  11.606  22.381  0.00  0.00    +0.000 C 
ATOM     26  C   UNL     1      -0.626  13.935  22.467  0.00  0.00    +0.000 C 
ENDBRANCH  21  22
ENDBRANCH  13  16
ENDBRANCH   9  13
BRANCH   1  28
ATOM     27  C   UNL     1       6.838   4.755  17.689  0.00  0.00    +0.000 C 
ATOM     28  O   UNL     1       5.545   4.206  17.468  0.00  0.00    +0.000 OA
ENDBRANCH   1  28
BRANCH   3  29
ATOM     29  O   UNL     1       2.437   4.558  20.966  0.00  0.00    +0.000 OA
ATOM     30  C   UNL     1       1.425   3.584  20.678  0.00  0.00    +0.000 C 
ENDBRANCH   3  29
TORSDOF 5
ENDMDL
MODEL 7
REMARK VINA RESULT:      -7.1      7.025     10.467
REMARK  Name = 
REMARK  9 active torsions:
REMARK  status: ('A' for Active; 'I' for Inactive)
REMARK    1  A    between atoms: C_1  and  O_2
REMARK    2  A    between atoms: O_2  and  C_3
REMARK    3  A    between atoms: C_5  and  O_6
REMARK    4  A    between atoms: O_6  and  C_7
REMARK    5  A    between atoms: N_13  and  S_14
REMARK    6  A    between atoms: S_14  and  C_17
REMARK    7  A    between atoms: C_22  and  C_23
REMARK    8  A    between atoms: N_25  and  C_26
REMARK    9  A    between atoms: N_25  and  C_27
REMARK                            x       y       z     vdW  Elec       q    Type
REMARK                         _______ _______ _______ _____ _____    ______ ____
ROOT
ATOM      1  C   UNL     1      -0.470  12.524  19.417  0.00  0.00    +0.000 A 
ATOM      2  C   UNL     1      -0.893  12.231  20.694  0.00  0.00    +0.000 A 
ATOM      3  C   UNL     1      -0.348  11.101  21.225  0.00  0.00    +0.000 A 
ATOM      4  N   UNL     1       0.509  10.337  20.555  0.00  0.00    +0.000 NA
ATOM      5  C   UNL     1       0.832  10.664  19.317  0.00  0.00    +0.000 A 
ATOM      6  N   UNL     1       1.663   9.804  18.600  0.00  0.00    +0.000 N 
ATOM      7  C   UNL     1       1.977   8.552  19.068  0.00  0.00    +0.000 C 
ATOM      8  O   UNL     1       1.606   8.058  20.124  0.00  0.00    +0.000 OA
ATOM      9  N   UNL     1       2.768   7.815  18.208  0.00  0.00    +0.000 N 
ATOM     10  N   UNL     1       0.396  11.769  18.698  0.00  0.00    +0.000 NA
ATOM     11  H   UNL     1       1.909  10.096  17.679  0.00  0.00    +0.000 HD
ATOM     12  H   UNL     1       3.175   8.185  17.360  0.00  0.00    +0.000 HD
ENDROOT
BRANCH   9  13
ATOM     13  S   UNL     1       2.993   6.146  18.363  0.00  0.00    +0.000 S 
ATOM     14  O   UNL     1       3.462   6.037  19.730  0.00  0.00    +0.000 OA
ATOM     15  O   UNL     1       1.773   5.515  17.906  0.00  0.00    +0.000 OA
BRANCH  13  16
ATOM     16  C   UNL     1       4.350   5.695  17.251  0.00  0.00    +0.000 A 
ATOM     17  N   UNL     1       4.542   6.624  16.254  0.00  0.00    +0.000 NA
ATOM     18  C   UNL     1       5.409   6.295  15.280  0.00  0.00    +0.000 A 
ATOM     19  C   UNL     1       6.155   5.131  15.290  0.00  0.00    +0.000 A 
ATOM     20  C   UNL     1       6.006   4.247  16.363  0.00  0.00    +0.000 A 
ATOM     21  C   UNL     1       5.043   4.479  17.354  0.00  0.00    +0.000 A 
BRANCH  21  22
ATOM     22  C   UNL     1       4.910   3.602  18.549  0.00  0.00    +0.000 C 
ATOM     23  O   UNL     1       5.757   3.797  19.421  0.00  0.00    +0.000 OA
ATOM     24  N   UNL     1       3.967   2.576  18.700  0.00  0.00    +0.000 N 
ATOM     25  C   UNL     1       2.908   2.140  17.799  0.00  0.00    +0.000 C 
ATOM     26  C   UNL     1       4.017   1.815  19.948  0.00  0.00    +0.000 C 
ENDBRANCH  21  22
ENDBRANCH  13  16
ENDBRANCH   9  13
BRANCH   1  28
ATOM     27  C   UNL     1      -0.704  14.853  19.604  0.00  0.00    +0.000 C 
ATOM     28  O   UNL     1      -1.007  13.675  18.867  0.00  0.00    +0.000 OA
ENDBRANCH   1  28
BRANCH   3  29
ATOM     29  O   UNL     1      -0.712  10.714  22.496  0.00  0.00    +0.000 OA
ATOM     30  C   UNL     1      -1.617  11.651  23.092  0.00  0.00    +0.000 C 
ENDBRANCH   3  29
TORSDOF 5
ENDMDL
MODEL 8
REMARK VINA RESULT:      -7.1      7.213      8.757
REMARK  Name = 
REMARK  9 active torsions:
REMARK  status: ('A' for Active; 'I' for Inactive)
REMARK    1  A    between atoms: C_1  and  O_2
REMARK    2  A    between atoms: O_2  and  C_3
REMARK    3  A    between atoms: C_5  and  O_6
REMARK    4  A    between atoms: O_6  and  C_7
REMARK    5  A    between atoms: N_13  and  S_14
REMARK    6  A    between atoms: S_14  and  C_17
REMARK    7  A    between atoms: C_22  and  C_23
REMARK    8  A    between atoms: N_25  and  C_26
REMARK    9  A    between atoms: N_25  and  C_27
REMARK                            x       y       z     vdW  Elec       q    Type
REMARK                         _______ _______ _______ _____ _____    ______ ____
ROOT
ATOM      1  C   UNL     1       5.062   4.939  17.630  0.00  0.00    +0.000 A 
ATOM      2  C   UNL     1       4.611   4.241  18.727  0.00  0.00    +0.000 A 
ATOM      3  C   UNL     1       3.553   4.815  19.367  0.00  0.00    +0.000 A 
ATOM      4  N   UNL     1       3.016   5.964  18.971  0.00  0.00    +0.000 NA
ATOM      5  C   UNL     1       3.534   6.594  17.932  0.00  0.00    +0.000 A 
ATOM      6  N   UNL     1       3.013   7.840  17.585  0.00  0.00    +0.000 N 
ATOM      7  C   UNL     1       2.135   8.505  18.404  0.00  0.00    +0.000 C 
ATOM      8  O   UNL     1       1.702   8.109  19.478  0.00  0.00    +0.000 OA
ATOM      9  N   UNL     1       1.760   9.748  17.932  0.00  0.00    +0.000 N 
ATOM     10  N   UNL     1       4.547   6.115  17.197  0.00  0.00    +0.000 NA
ATOM     11  H   UNL     1       3.410   8.274  16.780  0.00  0.00    +0.000 HD
ATOM     12  H   UNL     1       2.014  10.104  17.020  0.00  0.00    +0.000 HD
ENDROOT
BRANCH   9  13
ATOM     13  S   UNL     1       0.995  10.908  18.894  0.00  0.00    +0.000 S 
ATOM     14  O   UNL     1       1.164  10.351  20.221  0.00  0.00    +0.000 OA
ATOM     15  O   UNL     1       1.542  12.194  18.515  0.00  0.00    +0.000 OA
BRANCH  13  16
ATOM     16  C   UNL     1      -0.766  10.863  18.471  0.00  0.00    +0.000 A 
ATOM     17  N   UNL     1      -1.036   9.984  17.447  0.00  0.00    +0.000 NA
ATOM     18  C   UNL     1      -2.283  10.005  16.945  0.00  0.00    +0.000 A 
ATOM     19  C   UNL     1      -3.296  10.792  17.462  0.00  0.00    +0.000 A 
ATOM     20  C   UNL     1      -3.016  11.610  18.561  0.00  0.00    +0.000 A 
ATOM     21  C   UNL     1      -1.711  11.713  19.063  0.00  0.00    +0.000 A 
BRANCH  21  22
ATOM     22  C   UNL     1      -1.391  12.512  20.278  0.00  0.00    +0.000 C 
ATOM     23  O   UNL     1      -1.633  11.941  21.342  0.00  0.00    +0.000 OA
ATOM     24  N   UNL     1      -0.920  13.832  20.279  0.00  0.00    +0.000 N 
ATOM     25  C   UNL     1      -0.604  14.712  19.161  0.00  0.00    +0.000 C 
ATOM     26  C   UNL     1      -0.686  14.446  21.586  0.00  0.00    +0.000 C 
ENDBRANCH  21  22
ENDBRANCH  13  16
ENDBRANCH   9  13
BRANCH   1  28
ATOM     27  C   UNL     1       7.397   4.722  17.500  0.00  0.00    +0.000 C 
ATOM     28  O   UNL     1       6.129   4.363  16.963  0.00  0.00    +0.000 OA
ENDBRANCH   1  28
BRANCH   3  29
ATOM     29  O   UNL     1       3.031   4.200  20.483  0.00  0.00    +0.000 OA
ATOM     30  C   UNL     1       1.672   4.594  20.712  0.00  0.00    +0.000 C 
ENDBRANCH   3  29
TORSDOF 5
ENDMDL
MODEL 9
REMARK VINA RESULT:      -7.0      7.113      8.447
REMARK  Name = 
REMARK  9 active torsions:
REMARK  status: ('A' for Active; 'I' for Inactive)
REMARK    1  A    between atoms: C_1  and  O_2
REMARK    2  A    between atoms: O_2  and  C_3
REMARK    3  A    between atoms: C_5  and  O_6
REMARK    4  A    between atoms: O_6  and  C_7
REMARK    5  A    between atoms: N_13  and  S_14
REMARK    6  A    between atoms: S_14  and  C_17
REMARK    7  A    between atoms: C_22  and  C_23
REMARK    8  A    between atoms: N_25  and  C_26
REMARK    9  A    between atoms: N_25  and  C_27
REMARK                            x       y       z     vdW  Elec       q    Type
REMARK                         _______ _______ _______ _____ _____    ______ ____
ROOT
ATOM      1  C   UNL     1       4.710   4.688  18.211  0.00  0.00    +0.000 A 
ATOM      2  C   UNL     1       4.308   3.780  19.164  0.00  0.00    +0.000 A 
ATOM      3  C   UNL     1       3.273   4.200  19.945  0.00  0.00    +0.000 A 
ATOM      4  N   UNL     1       2.712   5.398  19.806  0.00  0.00    +0.000 NA
ATOM      5  C   UNL     1       3.185   6.228  18.894  0.00  0.00    +0.000 A 
ATOM      6  N   UNL     1       2.642   7.511  18.821  0.00  0.00    +0.000 N 
ATOM      7  C   UNL     1       1.793   7.987  19.789  0.00  0.00    +0.000 C 
ATOM      8  O   UNL     1       1.406   7.380  20.778  0.00  0.00    +0.000 OA
ATOM      9  N   UNL     1       1.391   9.294  19.587  0.00  0.00    +0.000 N 
ATOM     10  N   UNL     1       4.170   5.918  18.040  0.00  0.00    +0.000 NA
ATOM     11  H   UNL     1       3.004   8.101  18.104  0.00  0.00    +0.000 HD
ATOM     12  H   UNL     1       1.607   9.828  18.756  0.00  0.00    +0.000 HD
ENDROOT
BRANCH   9  13
ATOM     13  S   UNL     1       0.658  10.230  20.789  0.00  0.00    +0.000 S 
ATOM     14  O   UNL     1      -0.731   9.839  20.662  0.00  0.00    +0.000 OA
ATOM     15  O   UNL     1       1.418  10.021  22.004  0.00  0.00    +0.000 OA
BRANCH  13  16
ATOM     16  C   UNL     1       0.819  11.961  20.278  0.00  0.00    +0.000 A 
ATOM     17  N   UNL     1       1.682  12.115  19.217  0.00  0.00    +0.000 NA
ATOM     18  C   UNL     1       2.001  13.376  18.876  0.00  0.00    +0.000 A 
ATOM     19  C   UNL     1       1.444  14.489  19.478  0.00  0.00    +0.000 A 
ATOM     20  C   UNL     1       0.501  14.301  20.494  0.00  0.00    +0.000 A 
ATOM     21  C   UNL     1       0.205  13.016  20.968  0.00  0.00    +0.000 A 
BRANCH  21  22
ATOM     22  C   UNL     1      -0.848  12.773  21.992  0.00  0.00    +0.000 C 
ATOM     23  O   UNL     1      -0.421  12.639  23.139  0.00  0.00    +0.000 OA
ATOM     24  N   UNL     1      -2.216  12.627  21.729  0.00  0.00    +0.000 N 
ATOM     25  C   UNL     1      -2.938  12.704  20.464  0.00  0.00    +0.000 C 
ATOM     26  C   UNL     1      -3.085  12.373  22.878  0.00  0.00    +0.000 C 
ENDBRANCH  21  22
ENDBRANCH  13  16
ENDBRANCH   9  13
BRANCH   1  28
ATOM     27  C   UNL     1       6.466   5.342  16.796  0.00  0.00    +0.000 C 
ATOM     28  O   UNL     1       5.753   4.271  17.403  0.00  0.00    +0.000 OA
ENDBRANCH   1  28
BRANCH   3  29
ATOM     29  O   UNL     1       2.799   3.370  20.936  0.00  0.00    +0.000 OA
ATOM     30  C   UNL     1       1.366   3.361  20.974  0.00  0.00    +0.000 C 
ENDBRANCH   3  29
TORSDOF 5
ENDMDL
