MODEL 1
REMARK VINA RESULT:      -9.4      0.000      0.000
REMARK  Name = 
REMARK  5 active torsions:
REMARK  status: ('A' for Active; 'I' for Inactive)
REMARK    1  A    between atoms: C_1  and  C_2
REMARK    2  A    between atoms: C_6  and  C_7
REMARK    3  A    between atoms: C_12  and  C_13
REMARK    4  A    between atoms: C_28  and  C_29
REMARK    5  A    between atoms: C_33  and  C_34
REMARK                            x       y       z     vdW  Elec       q    Type
REMARK                         _______ _______ _______ _____ _____    ______ ____
ROOT
ATOM      1  C   UNL     1       3.395   7.287  17.890  0.00  0.00    +0.000 A 
ATOM      2  N   UNL     1       3.332   8.628  17.613  0.00  0.00    +0.000 NA
ATOM      3  C   UNL     1       2.382   9.368  18.224  0.00  0.00    +0.000 A 
ATOM      4  C   UNL     1       2.302  10.739  18.013  0.00  0.00    +0.000 A 
ATOM      5  C   UNL     1       1.293  11.509  18.601  0.00  0.00    +0.000 A 
ATOM      6  C   UNL     1       0.340  10.905  19.424  0.00  0.00    +0.000 A 
ATOM      7  C   UNL     1       0.481   9.551  19.719  0.00  0.00    +0.000 A 
ATOM      8  C   UNL     1       1.456   8.779  19.103  0.00  0.00    +0.000 A 
ATOM      9  N   UNL     1       1.499   7.471  19.377  0.00  0.00    +0.000 NA
ATOM     10  C   UNL     1       2.486   6.715  18.806  0.00  0.00    +0.000 A 
ENDROOT
BRANCH   6  11
ATOM     11  C   UNL     1      -0.740  11.762  20.007  0.00  0.00    +0.000 C 
ATOM     12  O   UNL     1      -0.459  12.349  21.047  0.00  0.00    +0.000 OA
ATOM     13  N   UNL     1      -1.983  11.900  19.381  0.00  0.00    +0.000 N 
ATOM     14  C   UNL     1      -2.964  12.813  19.972  0.00  0.00    +0.000 C 
ATOM     15  C   UNL     1      -4.352  12.177  20.042  0.00  0.00    +0.000 C 
ATOM     16  C   UNL     1      -4.774  11.587  18.695  0.00  0.00    +0.000 C 
ATOM     17  C   UNL     1      -3.680  10.676  18.131  0.00  0.00    +0.000 C 
ATOM     18  C   UNL     1      -2.362  11.435  18.043  0.00  0.00    +0.000 C 
ATOM     19  O   UNL     1      -5.034  12.655  17.764  0.00  0.00    +0.000 OA
ATOM     20  C   UNL     1      -6.234  12.271  17.097  0.00  0.00    +0.000 C 
ATOM     21  C   UNL     1      -6.990  11.521  18.158  0.00  0.00    +0.000 C 
ATOM     22  O   UNL     1      -5.972  10.808  18.861  0.00  0.00    +0.000 OA
ENDBRANCH   6  11
BRANCH   1  28
ATOM     23  C   UNL     1       7.770   4.777  18.112  0.00  0.00    +0.000 C 
ATOM     24  C   UNL     1       6.597   5.266  17.313  0.00  0.00    +0.000 A 
ATOM     25  C   UNL     1       6.515   5.003  15.945  0.00  0.00    +0.000 A 
ATOM     26  C   UNL     1       5.505   5.585  15.187  0.00  0.00    +0.000 A 
ATOM     27  C   UNL     1       4.554   6.409  15.796  0.00  0.00    +0.000 A 
ATOM     28  C   UNL     1       4.513   6.585  17.192  0.00  0.00    +0.000 A 
ATOM     29  C   UNL     1       5.588   6.032  17.925  0.00  0.00    +0.000 A 
ENDBRANCH   1  28
BRANCH  10  30
ATOM     30  C   UNL     1       2.498   5.339  19.358  0.00  0.00    +0.000 A 
ATOM     31  C   UNL     1       2.154   5.106  20.706  0.00  0.00    +0.000 A 
ATOM     32  C   UNL     1       2.241   3.831  21.272  0.00  0.00    +0.000 A 
ATOM     33  C   UNL     1       2.637   2.748  20.493  0.00  0.00    +0.000 A 
ATOM     34  C   UNL     1       2.963   2.937  19.149  0.00  0.00    +0.000 A 
ATOM     35  C   UNL     1       3.321   1.785  18.261  0.00  0.00    +0.000 C 
ATOM     36  C   UNL     1       2.931   4.232  18.612  0.00  0.00    +0.000 A 
ENDBRANCH  10  30
TORSDOF 3
ENDMDL
MODEL 2
REMARK VINA RESULT:      -9.3      0.542      1.128
REMARK  Name = 
REMARK  5 active torsions:
REMARK  status: ('A' for Active; 'I' for Inactive)
REMARK    1  A    between atoms: C_1  and  C_2
REMARK    2  A    between atoms: C_6  and  C_7
REMARK    3  A    between atoms: C_12  and  C_13
REMARK    4  A    between atoms: C_28  and  C_29
REMARK    5  A    between atoms: C_33  and  C_34
REMARK                            x       y       z     vdW  Elec       q    Type
REMARK                         _______ _______ _______ _____ _____    ______ ____
ROOT
ATOM      1  C   UNL     1       3.365   7.421  17.670  0.00  0.00    +0.000 A 
ATOM      2  N   UNL     1       3.401   8.786  17.558  0.00  0.00    +0.000 NA
ATOM      3  C   UNL     1       2.434   9.509  18.165  0.00  0.00    +0.000 A 
ATOM      4  C   UNL     1       2.449  10.897  18.120  0.00  0.00    +0.000 A 
ATOM      5  C   UNL     1       1.427  11.655  18.703  0.00  0.00    +0.000 A 
ATOM      6  C   UNL     1       0.364  11.020  19.350  0.00  0.00    +0.000 A 
ATOM      7  C   UNL     1       0.403   9.634  19.485  0.00  0.00    +0.000 A 
ATOM      8  C   UNL     1       1.393   8.880  18.872  0.00  0.00    +0.000 A 
ATOM      9  N   UNL     1       1.340   7.548  18.983  0.00  0.00    +0.000 NA
ATOM     10  C   UNL     1       2.338   6.804  18.416  0.00  0.00    +0.000 A 
ENDROOT
BRANCH   6  11
ATOM     11  C   UNL     1      -0.722  11.870  19.931  0.00  0.00    +0.000 C 
ATOM     12  O   UNL     1      -0.438  12.479  20.958  0.00  0.00    +0.000 OA
ATOM     13  N   UNL     1      -1.974  11.978  19.318  0.00  0.00    +0.000 N 
ATOM     14  C   UNL     1      -2.963  12.884  19.905  0.00  0.00    +0.000 C 
ATOM     15  C   UNL     1      -4.340  12.227  20.002  0.00  0.00    +0.000 C 
ATOM     16  C   UNL     1      -4.767  11.608  18.671  0.00  0.00    +0.000 C 
ATOM     17  C   UNL     1      -3.666  10.705  18.109  0.00  0.00    +0.000 C 
ATOM     18  C   UNL     1      -2.361  11.484  17.992  0.00  0.00    +0.000 C 
ATOM     19  O   UNL     1      -5.056  12.656  17.726  0.00  0.00    +0.000 OA
ATOM     20  C   UNL     1      -6.258  12.241  17.080  0.00  0.00    +0.000 C 
ATOM     21  C   UNL     1      -6.988  11.497  18.162  0.00  0.00    +0.000 C 
ATOM     22  O   UNL     1      -5.951  10.813  18.865  0.00  0.00    +0.000 OA
ENDBRANCH   6  11
BRANCH   1  28
ATOM     23  C   UNL     1       7.676   4.816  17.997  0.00  0.00    +0.000 C 
ATOM     24  C   UNL     1       6.560   5.371  17.162  0.00  0.00    +0.000 A 
ATOM     25  C   UNL     1       6.552   5.185  15.779  0.00  0.00    +0.000 A 
ATOM     26  C   UNL     1       5.597   5.829  14.999  0.00  0.00    +0.000 A 
ATOM     27  C   UNL     1       4.627   6.637  15.598  0.00  0.00    +0.000 A 
ATOM     28  C   UNL     1       4.509   6.736  16.998  0.00  0.00    +0.000 A 
ATOM     29  C   UNL     1       5.530   6.122  17.758  0.00  0.00    +0.000 A 
ENDBRANCH   1  28
BRANCH  10  30
ATOM     30  C   UNL     1       2.221   5.374  18.791  0.00  0.00    +0.000 A 
ATOM     31  C   UNL     1       2.020   4.389  17.801  0.00  0.00    +0.000 A 
ATOM     32  C   UNL     1       1.819   3.047  18.136  0.00  0.00    +0.000 A 
ATOM     33  C   UNL     1       1.854   2.648  19.470  0.00  0.00    +0.000 A 
ATOM     34  C   UNL     1       2.073   3.592  20.475  0.00  0.00    +0.000 A 
ATOM     35  C   UNL     1       2.191   3.191  21.913  0.00  0.00    +0.000 C 
ATOM     36  C   UNL     1       2.210   4.944  20.127  0.00  0.00    +0.000 A 
ENDBRANCH  10  30
TORSDOF 3
ENDMDL
MODEL 3
REMARK VINA RESULT:      -9.2      0.564      1.210
REMARK  Name = 
REMARK  5 active torsions:
REMARK  status: ('A' for Active; 'I' for Inactive)
REMARK    1  A    between atoms: C_1  and  C_2
REMARK    2  A    between atoms: C_6  and  C_7
REMARK    3  A    between atoms: C_12  and  C_13
REMARK    4  A    between atoms: C_28  and  C_29
REMARK    5  A    between atoms: C_33  and  C_34
REMARK                            x       y       z     vdW  Elec       q    Type
REMARK                         _______ _______ _______ _____ _____    ______ ____
ROOT
ATOM      1  C   UNL     1       3.605   6.847  18.040  0.00  0.00    +0.000 A 
ATOM      2  N   UNL     1       3.562   8.166  17.671  0.00  0.00    +0.000 NA
ATOM      3  C   UNL     1       2.625   8.962  18.232  0.00  0.00    +0.000 A 
ATOM      4  C   UNL     1       2.566  10.316  17.926  0.00  0.00    +0.000 A 
ATOM      5  C   UNL     1       1.571  11.141  18.463  0.00  0.00    +0.000 A 
ATOM      6  C   UNL     1       0.611  10.609  19.327  0.00  0.00    +0.000 A 
ATOM      7  C   UNL     1       0.731   9.277  19.714  0.00  0.00    +0.000 A 
ATOM      8  C   UNL     1       1.692   8.449  19.151  0.00  0.00    +0.000 A 
ATOM      9  N   UNL     1       1.716   7.162  19.514  0.00  0.00    +0.000 NA
ATOM     10  C   UNL     1       2.690   6.354  18.994  0.00  0.00    +0.000 A 
ENDROOT
BRANCH   6  11
ATOM     11  C   UNL     1      -0.453  11.521  19.851  0.00  0.00    +0.000 C 
ATOM     12  O   UNL     1      -0.166  12.162  20.858  0.00  0.00    +0.000 OA
ATOM     13  N   UNL     1      -1.689  11.650  19.210  0.00  0.00    +0.000 N 
ATOM     14  C   UNL     1      -2.654  12.615  19.740  0.00  0.00    +0.000 C 
ATOM     15  C   UNL     1      -4.056  12.014  19.837  0.00  0.00    +0.000 C 
ATOM     16  C   UNL     1      -4.482  11.356  18.523  0.00  0.00    +0.000 C 
ATOM     17  C   UNL     1      -3.405  10.391  18.021  0.00  0.00    +0.000 C 
ATOM     18  C   UNL     1      -2.071  11.116  17.898  0.00  0.00    +0.000 C 
ATOM     19  O   UNL     1      -4.714  12.374  17.531  0.00  0.00    +0.000 OA
ATOM     20  C   UNL     1      -5.919  11.976  16.878  0.00  0.00    +0.000 C 
ATOM     21  C   UNL     1      -6.696  11.305  17.976  0.00  0.00    +0.000 C 
ATOM     22  O   UNL     1      -5.698  10.613  18.726  0.00  0.00    +0.000 OA
ENDBRANCH   6  11
BRANCH   1  28
ATOM     23  C   UNL     1       5.371   4.291  14.061  0.00  0.00    +0.000 C 
ATOM     24  C   UNL     1       5.607   4.923  15.401  0.00  0.00    +0.000 A 
ATOM     25  C   UNL     1       6.865   4.860  16.001  0.00  0.00    +0.000 A 
ATOM     26  C   UNL     1       7.035   5.316  17.304  0.00  0.00    +0.000 A 
ATOM     27  C   UNL     1       5.957   5.865  18.005  0.00  0.00    +0.000 A 
ATOM     28  C   UNL     1       4.709   6.080  17.390  0.00  0.00    +0.000 A 
ATOM     29  C   UNL     1       4.551   5.550  16.090  0.00  0.00    +0.000 A 
ENDBRANCH   1  28
BRANCH  10  30
ATOM     30  C   UNL     1       2.681   5.019  19.640  0.00  0.00    +0.000 A 
ATOM     31  C   UNL     1       2.262   4.874  20.979  0.00  0.00    +0.000 A 
ATOM     32  C   UNL     1       2.327   3.642  21.636  0.00  0.00    +0.000 A 
ATOM     33  C   UNL     1       2.777   2.513  20.957  0.00  0.00    +0.000 A 
ATOM     34  C   UNL     1       3.178   2.614  19.624  0.00  0.00    +0.000 A 
ATOM     35  C   UNL     1       3.597   1.408  18.839  0.00  0.00    +0.000 C 
ATOM     36  C   UNL     1       3.166   3.869  18.998  0.00  0.00    +0.000 A 
ENDBRANCH  10  30
TORSDOF 3
ENDMDL
MODEL 4
REMARK VINA RESULT:      -9.0      2.056      3.641
REMARK  Name = 
REMARK  5 active torsions:
REMARK  status: ('A' for Active; 'I' for Inactive)
REMARK    1  A    between atoms: C_1  and  C_2
REMARK    2  A    between atoms: C_6  and  C_7
REMARK    3  A    between atoms: C_12  and  C_13
REMARK    4  A    between atoms: C_28  and  C_29
REMARK    5  A    between atoms: C_33  and  C_34
REMARK                            x       y       z     vdW  Elec       q    Type
REMARK                         _______ _______ _______ _____ _____    ______ ____
ROOT
ATOM      1  C   UNL     1       3.680   6.703  17.742  0.00  0.00    +0.000 A 
ATOM      2  N   UNL     1       3.773   8.061  17.576  0.00  0.00    +0.000 NA
ATOM      3  C   UNL     1       2.702   8.822  17.886  0.00  0.00    +0.000 A 
ATOM      4  C   UNL     1       2.758  10.206  17.779  0.00  0.00    +0.000 A 
ATOM      5  C   UNL     1       1.640  11.004  18.051  0.00  0.00    +0.000 A 
ATOM      6  C   UNL     1       0.436  10.413  18.443  0.00  0.00    +0.000 A 
ATOM      7  C   UNL     1       0.410   9.036  18.651  0.00  0.00    +0.000 A 
ATOM      8  C   UNL     1       1.505   8.241  18.342  0.00  0.00    +0.000 A 
ATOM      9  N   UNL     1       1.396   6.918  18.500  0.00  0.00    +0.000 NA
ATOM     10  C   UNL     1       2.488   6.136  18.238  0.00  0.00    +0.000 A 
ENDROOT
BRANCH   6  11
ATOM     11  C   UNL     1      -0.741  11.302  18.693  0.00  0.00    +0.000 C 
ATOM     12  O   UNL     1      -1.589  11.335  17.807  0.00  0.00    +0.000 OA
ATOM     13  N   UNL     1      -0.871  12.028  19.881  0.00  0.00    +0.000 N 
ATOM     14  C   UNL     1      -2.085  12.820  20.086  0.00  0.00    +0.000 C 
ATOM     15  C   UNL     1      -1.762  14.220  20.607  0.00  0.00    +0.000 C 
ATOM     16  C   UNL     1      -0.831  14.172  21.820  0.00  0.00    +0.000 C 
ATOM     17  C   UNL     1       0.392  13.296  21.535  0.00  0.00    +0.000 C 
ATOM     18  C   UNL     1      -0.051  11.908  21.091  0.00  0.00    +0.000 C 
ATOM     19  O   UNL     1      -1.546  13.642  22.952  0.00  0.00    +0.000 OA
ATOM     20  C   UNL     1      -1.171  14.480  24.043  0.00  0.00    +0.000 C 
ATOM     21  C   UNL     1      -0.970  15.820  23.391  0.00  0.00    +0.000 C 
ATOM     22  O   UNL     1      -0.375  15.500  22.134  0.00  0.00    +0.000 OA
ENDBRANCH   6  11
BRANCH   1  28
ATOM     23  C   UNL     1       6.618   4.424  14.327  0.00  0.00    +0.000 C 
ATOM     24  C   UNL     1       6.421   4.954  15.717  0.00  0.00    +0.000 A 
ATOM     25  C   UNL     1       7.434   4.833  16.670  0.00  0.00    +0.000 A 
ATOM     26  C   UNL     1       7.188   5.191  17.991  0.00  0.00    +0.000 A 
ATOM     27  C   UNL     1       5.940   5.699  18.363  0.00  0.00    +0.000 A 
ATOM     28  C   UNL     1       4.941   5.974  17.410  0.00  0.00    +0.000 A 
ATOM     29  C   UNL     1       5.198   5.541  16.090  0.00  0.00    +0.000 A 
ENDBRANCH   1  28
BRANCH  10  30
ATOM     30  C   UNL     1       2.250   4.729  18.640  0.00  0.00    +0.000 A 
ATOM     31  C   UNL     1       2.252   3.699  17.677  0.00  0.00    +0.000 A 
ATOM     32  C   UNL     1       1.944   2.378  18.018  0.00  0.00    +0.000 A 
ATOM     33  C   UNL     1       1.665   2.047  19.341  0.00  0.00    +0.000 A 
ATOM     34  C   UNL     1       1.676   3.037  20.326  0.00  0.00    +0.000 A 
ATOM     35  C   UNL     1       1.454   2.707  21.770  0.00  0.00    +0.000 C 
ATOM     36  C   UNL     1       1.925   4.367  19.957  0.00  0.00    +0.000 A 
ENDBRANCH  10  30
TORSDOF 3
ENDMDL
MODEL 5
REMARK VINA RESULT:      -9.0      0.820      1.597
REMARK  Name = 
REMARK  5 active torsions:
REMARK  status: ('A' for Active; 'I' for Inactive)
REMARK    1  A    between atoms: C_1  and  C_2
REMARK    2  A    between atoms: C_6  and  C_7
REMARK    3  A    between atoms: C_12  and  C_13
REMARK    4  A    between atoms: C_28  and  C_29
REMARK    5  A    between atoms: C_33  and  C_34
REMARK                            x       y       z     vdW  Elec       q    Type
REMARK                         _______ _______ _______ _____ _____    ______ ____
ROOT
ATOM      1  C   UNL     1       3.745   6.973  17.903  0.00  0.00    +0.000 A 
ATOM      2  N   UNL     1       3.551   8.281  17.546  0.00  0.00    +0.000 NA
ATOM      3  C   UNL     1       2.599   8.991  18.190  0.00  0.00    +0.000 A 
ATOM      4  C   UNL     1       2.392  10.333  17.897  0.00  0.00    +0.000 A 
ATOM      5  C   UNL     1       1.376  11.066  18.522  0.00  0.00    +0.000 A 
ATOM      6  C   UNL     1       0.547  10.453  19.464  0.00  0.00    +0.000 A 
ATOM      7  C   UNL     1       0.821   9.138  19.833  0.00  0.00    +0.000 A 
ATOM      8  C   UNL     1       1.800   8.399  19.185  0.00  0.00    +0.000 A 
ATOM      9  N   UNL     1       1.972   7.121  19.538  0.00  0.00    +0.000 NA
ATOM     10  C   UNL     1       2.966   6.402  18.931  0.00  0.00    +0.000 A 
ENDROOT
BRANCH   6  11
ATOM     11  C   UNL     1      -0.545  11.267  20.084  0.00  0.00    +0.000 C 
ATOM     12  O   UNL     1      -0.309  11.726  21.197  0.00  0.00    +0.000 OA
ATOM     13  N   UNL     1      -1.749  11.506  19.415  0.00  0.00    +0.000 N 
ATOM     14  C   UNL     1      -2.743  12.371  20.054  0.00  0.00    +0.000 C 
ATOM     15  C   UNL     1      -4.145  11.767  19.980  0.00  0.00    +0.000 C 
ATOM     16  C   UNL     1      -4.505  11.342  18.555  0.00  0.00    +0.000 C 
ATOM     17  C   UNL     1      -3.400  10.472  17.949  0.00  0.00    +0.000 C 
ATOM     18  C   UNL     1      -2.065  11.203  18.015  0.00  0.00    +0.000 C 
ATOM     19  O   UNL     1      -4.694  12.514  17.739  0.00  0.00    +0.000 OA
ATOM     20  C   UNL     1      -5.864  12.237  16.972  0.00  0.00    +0.000 C 
ATOM     21  C   UNL     1      -6.690  11.392  17.901  0.00  0.00    +0.000 C 
ATOM     22  O   UNL     1      -5.726  10.580  18.571  0.00  0.00    +0.000 OA
ENDBRANCH   6  11
BRANCH   1  28
ATOM     23  C   UNL     1       5.276   4.062  14.073  0.00  0.00    +0.000 C 
ATOM     24  C   UNL     1       5.607   4.971  15.220  0.00  0.00    +0.000 A 
ATOM     25  C   UNL     1       6.937   5.252  15.539  0.00  0.00    +0.000 A 
ATOM     26  C   UNL     1       7.236   5.972  16.691  0.00  0.00    +0.000 A 
ATOM     27  C   UNL     1       6.208   6.442  17.514  0.00  0.00    +0.000 A 
ATOM     28  C   UNL     1       4.854   6.307  17.155  0.00  0.00    +0.000 A 
ATOM     29  C   UNL     1       4.583   5.518  16.015  0.00  0.00    +0.000 A 
ENDBRANCH   1  28
BRANCH  10  30
ATOM     30  C   UNL     1       3.134   5.074  19.569  0.00  0.00    +0.000 A 
ATOM     31  C   UNL     1       4.288   4.302  19.322  0.00  0.00    +0.000 A 
ATOM     32  C   UNL     1       4.430   3.012  19.841  0.00  0.00    +0.000 A 
ATOM     33  C   UNL     1       3.437   2.475  20.655  0.00  0.00    +0.000 A 
ATOM     34  C   UNL     1       2.290   3.219  20.941  0.00  0.00    +0.000 A 
ATOM     35  C   UNL     1       1.235   2.706  21.872  0.00  0.00    +0.000 C 
ATOM     36  C   UNL     1       2.134   4.487  20.361  0.00  0.00    +0.000 A 
ENDBRANCH  10  30
TORSDOF 3
ENDMDL
MODEL 6
REMARK VINA RESULT:      -8.9      5.552     10.020
REMARK  Name = 
REMARK  5 active torsions:
REMARK  status: ('A' for Active; 'I' for Inactive)
REMARK    1  A    between atoms: C_1  and  C_2
REMARK    2  A    between atoms: C_6  and  C_7
REMARK    3  A    between atoms: C_12  and  C_13
REMARK    4  A    between atoms: C_28  and  C_29
REMARK    5  A    between atoms: C_33  and  C_34
REMARK                            x       y       z     vdW  Elec       q    Type
REMARK                         _______ _______ _______ _____ _____    ______ ____
ROOT
ATOM      1  C   UNL     1      -0.168  13.040  19.475  0.00  0.00    +0.000 A 
ATOM      2  N   UNL     1       0.329  14.129  18.807  0.00  0.00    +0.000 NA
ATOM      3  C   UNL     1       1.525  14.627  19.187  0.00  0.00    +0.000 A 
ATOM      4  C   UNL     1       2.095  15.701  18.515  0.00  0.00    +0.000 A 
ATOM      5  C   UNL     1       3.311  16.258  18.930  0.00  0.00    +0.000 A 
ATOM      6  C   UNL     1       3.980  15.733  20.037  0.00  0.00    +0.000 A 
ATOM      7  C   UNL     1       3.463  14.592  20.646  0.00  0.00    +0.000 A 
ATOM      8  C   UNL     1       2.238  14.066  20.262  0.00  0.00    +0.000 A 
ATOM      9  N   UNL     1       1.762  13.008  20.929  0.00  0.00    +0.000 NA
ATOM     10  C   UNL     1       0.575  12.460  20.525  0.00  0.00    +0.000 A 
ENDROOT
BRANCH   6  11
ATOM     11  C   UNL     1       5.261  16.379  20.463  0.00  0.00    +0.000 C 
ATOM     12  O   UNL     1       5.169  17.231  21.341  0.00  0.00    +0.000 OA
ATOM     13  N   UNL     1       6.489  16.008  19.906  0.00  0.00    +0.000 N 
ATOM     14  C   UNL     1       7.708  16.634  20.423  0.00  0.00    +0.000 C 
ATOM     15  C   UNL     1       8.630  17.088  19.293  0.00  0.00    +0.000 C 
ATOM     16  C   UNL     1       8.879  15.969  18.280  0.00  0.00    +0.000 C 
ATOM     17  C   UNL     1       7.559  15.347  17.818  0.00  0.00    +0.000 C 
ATOM     18  C   UNL     1       6.757  14.869  19.022  0.00  0.00    +0.000 C 
ATOM     19  O   UNL     1       9.703  14.953  18.882  0.00  0.00    +0.000 OA
ATOM     20  C   UNL     1      10.657  14.617  17.876  0.00  0.00    +0.000 C 
ATOM     21  C   UNL     1      10.860  15.917  17.150  0.00  0.00    +0.000 C 
ATOM     22  O   UNL     1       9.558  16.502  17.128  0.00  0.00    +0.000 OA
ENDBRANCH   6  11
BRANCH   1  28
ATOM     23  C   UNL     1      -2.786  10.795  15.788  0.00  0.00    +0.000 C 
ATOM     24  C   UNL     1      -2.731  11.359  17.177  0.00  0.00    +0.000 A 
ATOM     25  C   UNL     1      -3.869  11.362  17.986  0.00  0.00    +0.000 A 
ATOM     26  C   UNL     1      -3.848  12.020  19.210  0.00  0.00    +0.000 A 
ATOM     27  C   UNL     1      -2.682  12.653  19.649  0.00  0.00    +0.000 A 
ATOM     28  C   UNL     1      -1.472  12.552  18.935  0.00  0.00    +0.000 A 
ATOM     29  C   UNL     1      -1.543  11.933  17.668  0.00  0.00    +0.000 A 
ENDBRANCH   1  28
BRANCH  10  30
ATOM     30  C   UNL     1       0.293  11.197  21.248  0.00  0.00    +0.000 A 
ATOM     31  C   UNL     1      -0.529  11.196  22.394  0.00  0.00    +0.000 A 
ATOM     32  C   UNL     1      -0.739  10.035  23.143  0.00  0.00    +0.000 A 
ATOM     33  C   UNL     1      -0.163   8.833  22.741  0.00  0.00    +0.000 A 
ATOM     34  C   UNL     1       0.639   8.791  21.599  0.00  0.00    +0.000 A 
ATOM     35  C   UNL     1       1.215   7.503  21.094  0.00  0.00    +0.000 C 
ATOM     36  C   UNL     1       0.891   9.977  20.894  0.00  0.00    +0.000 A 
ENDBRANCH  10  30
TORSDOF 3
ENDMDL
MODEL 7
REMARK VINA RESULT:      -8.9      3.946     10.675
REMARK  Name = 
REMARK  5 active torsions:
REMARK  status: ('A' for Active; 'I' for Inactive)
REMARK    1  A    between atoms: C_1  and  C_2
REMARK    2  A    between atoms: C_6  and  C_7
REMARK    3  A    between atoms: C_12  and  C_13
REMARK    4  A    between atoms: C_28  and  C_29
REMARK    5  A    between atoms: C_33  and  C_34
REMARK                            x       y       z     vdW  Elec       q    Type
REMARK                         _______ _______ _______ _____ _____    ______ ____
ROOT
ATOM      1  C   UNL     1      -1.103  12.492  22.014  0.00  0.00    +0.000 A 
ATOM      2  N   UNL     1      -0.702  11.216  22.315  0.00  0.00    +0.000 NA
ATOM      3  C   UNL     1       0.015  10.532  21.397  0.00  0.00    +0.000 A 
ATOM      4  C   UNL     1       0.485   9.253  21.669  0.00  0.00    +0.000 A 
ATOM      5  C   UNL     1       1.187   8.516  20.709  0.00  0.00    +0.000 A 
ATOM      6  C   UNL     1       1.433   9.062  19.448  0.00  0.00    +0.000 A 
ATOM      7  C   UNL     1       1.055  10.381  19.211  0.00  0.00    +0.000 A 
ATOM      8  C   UNL     1       0.322  11.098  20.146  0.00  0.00    +0.000 A 
ATOM      9  N   UNL     1      -0.069  12.338  19.835  0.00  0.00    +0.000 NA
ATOM     10  C   UNL     1      -0.754  13.063  20.772  0.00  0.00    +0.000 A 
ENDROOT
BRANCH   6  11
ATOM     11  C   UNL     1       2.160   8.225  18.442  0.00  0.00    +0.000 C 
ATOM     12  O   UNL     1       2.366   8.750  17.352  0.00  0.00    +0.000 OA
ATOM     13  N   UNL     1       2.599   6.932  18.746  0.00  0.00    +0.000 N 
ATOM     14  C   UNL     1       3.367   6.201  17.736  0.00  0.00    +0.000 C 
ATOM     15  C   UNL     1       2.869   4.764  17.584  0.00  0.00    +0.000 C 
ATOM     16  C   UNL     1       2.769   4.053  18.935  0.00  0.00    +0.000 C 
ATOM     17  C   UNL     1       1.984   4.899  19.941  0.00  0.00    +0.000 C 
ATOM     18  C   UNL     1       2.610   6.283  20.061  0.00  0.00    +0.000 C 
ATOM     19  O   UNL     1       4.093   3.807  19.446  0.00  0.00    +0.000 OA
ATOM     20  C   UNL     1       4.046   2.473  19.948  0.00  0.00    +0.000 C 
ATOM     21  C   UNL     1       3.074   1.794  19.024  0.00  0.00    +0.000 C 
ATOM     22  O   UNL     1       2.089   2.795  18.770  0.00  0.00    +0.000 OA
ENDBRANCH   6  11
BRANCH   1  28
ATOM     23  C   UNL     1      -1.229  15.907  25.729  0.00  0.00    +0.000 C 
ATOM     24  C   UNL     1      -1.940  14.906  24.867  0.00  0.00    +0.000 A 
ATOM     25  C   UNL     1      -3.301  14.656  25.049  0.00  0.00    +0.000 A 
ATOM     26  C   UNL     1      -3.916  13.623  24.351  0.00  0.00    +0.000 A 
ATOM     27  C   UNL     1      -3.182  12.852  23.443  0.00  0.00    +0.000 A 
ATOM     28  C   UNL     1      -1.847  13.161  23.122  0.00  0.00    +0.000 A 
ATOM     29  C   UNL     1      -1.235  14.174  23.893  0.00  0.00    +0.000 A 
ENDBRANCH   1  28
BRANCH  10  30
ATOM     30  C   UNL     1      -0.945  14.466  20.331  0.00  0.00    +0.000 A 
ATOM     31  C   UNL     1      -2.098  15.184  20.708  0.00  0.00    +0.000 A 
ATOM     32  C   UNL     1      -2.343  16.476  20.234  0.00  0.00    +0.000 A 
ATOM     33  C   UNL     1      -1.418  17.099  19.401  0.00  0.00    +0.000 A 
ATOM     34  C   UNL     1      -0.253  16.428  19.025  0.00  0.00    +0.000 A 
ATOM     35  C   UNL     1       0.799  17.092  18.191  0.00  0.00    +0.000 C 
ATOM     36  C   UNL     1      -0.053  15.109  19.458  0.00  0.00    +0.000 A 
ENDBRANCH  10  30
TORSDOF 3
ENDMDL
MODEL 8
REMARK VINA RESULT:      -8.9      1.013      1.844
REMARK  Name = 
REMARK  5 active torsions:
REMARK  status: ('A' for Active; 'I' for Inactive)
REMARK    1  A    between atoms: C_1  and  C_2
REMARK    2  A    between atoms: C_6  and  C_7
REMARK    3  A    between atoms: C_12  and  C_13
REMARK    4  A    between atoms: C_28  and  C_29
REMARK    5  A    between atoms: C_33  and  C_34
REMARK                            x       y       z     vdW  Elec       q    Type
REMARK                         _______ _______ _______ _____ _____    ______ ____
ROOT
ATOM      1  C   UNL     1       3.731   6.480  17.543  0.00  0.00    +0.000 A 
ATOM      2  N   UNL     1       3.886   7.828  17.354  0.00  0.00    +0.000 NA
ATOM      3  C   UNL     1       2.974   8.664  17.898  0.00  0.00    +0.000 A 
ATOM      4  C   UNL     1       3.108  10.041  17.774  0.00  0.00    +0.000 A 
ATOM      5  C   UNL     1       2.144  10.916  18.290  0.00  0.00    +0.000 A 
ATOM      6  C   UNL     1       1.021  10.411  18.949  0.00  0.00    +0.000 A 
ATOM      7  C   UNL     1       0.939   9.037  19.164  0.00  0.00    +0.000 A 
ATOM      8  C   UNL     1       1.872   8.168  18.617  0.00  0.00    +0.000 A 
ATOM      9  N   UNL     1       1.703   6.854  18.803  0.00  0.00    +0.000 NA
ATOM     10  C   UNL     1       2.644   5.996  18.302  0.00  0.00    +0.000 A 
ENDROOT
BRANCH   6  11
ATOM     11  C   UNL     1       0.002  11.382  19.457  0.00  0.00    +0.000 C 
ATOM     12  O   UNL     1       0.352  12.089  20.396  0.00  0.00    +0.000 OA
ATOM     13  N   UNL     1      -1.264  11.487  18.872  0.00  0.00    +0.000 N 
ATOM     14  C   UNL     1      -2.183  12.509  19.377  0.00  0.00    +0.000 C 
ATOM     15  C   UNL     1      -3.588  11.946  19.591  0.00  0.00    +0.000 C 
ATOM     16  C   UNL     1      -4.094  11.201  18.355  0.00  0.00    +0.000 C 
ATOM     17  C   UNL     1      -3.061  10.179  17.872  0.00  0.00    +0.000 C 
ATOM     18  C   UNL     1      -1.723  10.865  17.626  0.00  0.00    +0.000 C 
ATOM     19  O   UNL     1      -4.361  12.146  17.301  0.00  0.00    +0.000 OA
ATOM     20  C   UNL     1      -5.605  11.726  16.744  0.00  0.00    +0.000 C 
ATOM     21  C   UNL     1      -6.334  11.155  17.927  0.00  0.00    +0.000 C 
ATOM     22  O   UNL     1      -5.310  10.501  18.676  0.00  0.00    +0.000 OA
ENDBRANCH   6  11
BRANCH   1  28
ATOM     23  C   UNL     1       5.610   3.989  13.575  0.00  0.00    +0.000 C 
ATOM     24  C   UNL     1       5.786   4.536  14.960  0.00  0.00    +0.000 A 
ATOM     25  C   UNL     1       6.987   4.348  15.648  0.00  0.00    +0.000 A 
ATOM     26  C   UNL     1       7.088   4.727  16.982  0.00  0.00    +0.000 A 
ATOM     27  C   UNL     1       6.001   5.322  17.629  0.00  0.00    +0.000 A 
ATOM     28  C   UNL     1       4.824   5.663  16.936  0.00  0.00    +0.000 A 
ATOM     29  C   UNL     1       4.730   5.209  15.602  0.00  0.00    +0.000 A 
ENDBRANCH   1  28
BRANCH  10  30
ATOM     30  C   UNL     1       2.399   4.606  18.755  0.00  0.00    +0.000 A 
ATOM     31  C   UNL     1       2.303   3.555  17.820  0.00  0.00    +0.000 A 
ATOM     32  C   UNL     1       1.986   2.252  18.214  0.00  0.00    +0.000 A 
ATOM     33  C   UNL     1       1.796   1.958  19.562  0.00  0.00    +0.000 A 
ATOM     34  C   UNL     1       1.906   2.969  20.518  0.00  0.00    +0.000 A 
ATOM     35  C   UNL     1       1.782   2.678  21.983  0.00  0.00    +0.000 C 
ATOM     36  C   UNL     1       2.162   4.283  20.100  0.00  0.00    +0.000 A 
ENDBRANCH  10  30
TORSDOF 3
ENDMDL
MODEL 9
REMARK VINA RESULT:      -8.9      3.878     10.740
REMARK  Name = 
REMARK  5 active torsions:
REMARK  status: ('A' for Active; 'I' for Inactive)
REMARK    1  A    between atoms: C_1  and  C_2
REMARK    2  A    between atoms: C_6  and  C_7
REMARK    3  A    between atoms: C_12  and  C_13
REMARK    4  A    between atoms: C_28  and  C_29
REMARK    5  A    between atoms: C_33  and  C_34
REMARK                            x       y       z     vdW  Elec       q    Type
REMARK                         _______ _______ _______ _____ _____    ______ ____
ROOT
ATOM      1  C   UNL     1      -1.100  12.441  21.872  0.00  0.00    +0.000 A 
ATOM      2  N   UNL     1      -0.668  11.182  22.198  0.00  0.00    +0.000 NA
ATOM      3  C   UNL     1       0.055  10.493  21.288  0.00  0.00    +0.000 A 
ATOM      4  C   UNL     1       0.555   9.231  21.583  0.00  0.00    +0.000 A 
ATOM      5  C   UNL     1       1.263   8.487  20.632  0.00  0.00    +0.000 A 
ATOM      6  C   UNL     1       1.484   9.010  19.356  0.00  0.00    +0.000 A 
ATOM      7  C   UNL     1       1.074  10.315  19.094  0.00  0.00    +0.000 A 
ATOM      8  C   UNL     1       0.336  11.037  20.021  0.00  0.00    +0.000 A 
ATOM      9  N   UNL     1      -0.086  12.261  19.686  0.00  0.00    +0.000 NA
ATOM     10  C   UNL     1      -0.777  12.992  20.614  0.00  0.00    +0.000 A 
ENDROOT
BRANCH   6  11
ATOM     11  C   UNL     1       2.219   8.167  18.362  0.00  0.00    +0.000 C 
ATOM     12  O   UNL     1       2.427   8.682  17.268  0.00  0.00    +0.000 OA
ATOM     13  N   UNL     1       2.662   6.879  18.680  0.00  0.00    +0.000 N 
ATOM     14  C   UNL     1       3.437   6.141  17.681  0.00  0.00    +0.000 C 
ATOM     15  C   UNL     1       2.946   4.700  17.541  0.00  0.00    +0.000 C 
ATOM     16  C   UNL     1       2.843   4.002  18.898  0.00  0.00    +0.000 C 
ATOM     17  C   UNL     1       2.050   4.854  19.892  0.00  0.00    +0.000 C 
ATOM     18  C   UNL     1       2.670   6.242  20.001  0.00  0.00    +0.000 C 
ATOM     19  O   UNL     1       4.166   3.767  19.417  0.00  0.00    +0.000 OA
ATOM     20  C   UNL     1       4.123   2.438  19.932  0.00  0.00    +0.000 C 
ATOM     21  C   UNL     1       3.158   1.745  19.010  0.00  0.00    +0.000 C 
ATOM     22  O   UNL     1       2.169   2.740  18.742  0.00  0.00    +0.000 OA
ENDBRANCH   6  11
BRANCH   1  28
ATOM     23  C   UNL     1      -1.192  15.786  25.652  0.00  0.00    +0.000 C 
ATOM     24  C   UNL     1      -1.918  14.832  24.751  0.00  0.00    +0.000 A 
ATOM     25  C   UNL     1      -3.293  14.635  24.890  0.00  0.00    +0.000 A 
ATOM     26  C   UNL     1      -3.929  13.642  24.154  0.00  0.00    +0.000 A 
ATOM     27  C   UNL     1      -3.203  12.859  23.252  0.00  0.00    +0.000 A 
ATOM     28  C   UNL     1      -1.847  13.119  22.973  0.00  0.00    +0.000 A 
ATOM     29  C   UNL     1      -1.217  14.091  23.782  0.00  0.00    +0.000 A 
ENDBRANCH   1  28
BRANCH  10  30
ATOM     30  C   UNL     1      -1.004  14.379  20.144  0.00  0.00    +0.000 A 
ATOM     31  C   UNL     1      -0.111  14.982  19.233  0.00  0.00    +0.000 A 
ATOM     32  C   UNL     1      -0.255  16.317  18.843  0.00  0.00    +0.000 A 
ATOM     33  C   UNL     1      -1.320  17.072  19.324  0.00  0.00    +0.000 A 
ATOM     34  C   UNL     1      -2.237  16.502  20.209  0.00  0.00    +0.000 A 
ATOM     35  C   UNL     1      -3.437  17.260  20.689  0.00  0.00    +0.000 C 
ATOM     36  C   UNL     1      -2.044  15.182  20.640  0.00  0.00    +0.000 A 
ENDBRANCH  10  30
TORSDOF 3
ENDMDL
