MODEL 1
REMARK VINA RESULT:      -7.4      0.000      0.000
REMARK  Name = 
REMARK  5 active torsions:
REMARK  status: ('A' for Active; 'I' for Inactive)
REMARK    1  A    between atoms: C_1  and  C_2
REMARK    2  A    between atoms: C_2  and  C_3
REMARK    3  A    between atoms: C_3  and  N_4
REMARK    4  A    between atoms: C_8  and  C_10
REMARK    5  A    between atoms: C_12  and  C_13
REMARK                            x       y       z     vdW  Elec       q    Type
REMARK                         _______ _______ _______ _____ _____    ______ ____
ROOT
ATOM      1  N   UNL     1       5.587   5.449  17.268  0.00  0.00    +0.000 NA
ATOM      2  C   UNL     1       4.597   6.498  16.975  0.00  0.00    +0.000 C 
ATOM      3  C   UNL     1       3.748   6.932  18.180  0.00  0.00    +0.000 C 
ATOM      4  N   UNL     1       3.214   5.864  19.043  0.00  0.00    +0.000 N 
ATOM      5  C   UNL     1       2.236   6.170  20.020  0.00  0.00    +0.000 C 
ATOM      6  O   UNL     1       1.796   5.309  20.776  0.00  0.00    +0.000 OA
ATOM      7  C   UNL     1       4.118   4.705  19.267  0.00  0.00    +0.000 C 
ATOM      8  C   UNL     1       3.515   3.353  19.690  0.00  0.00    +0.000 C 
ATOM      9  S   UNL     1       3.091   2.493  18.190  0.00  0.00    +0.000 S 
ATOM     10  O   UNL     1       3.752   1.204  18.201  0.00  0.00    +0.000 OA
ATOM     11  O   UNL     1       1.675   2.631  17.934  0.00  0.00    +0.000 OA
ATOM     12  C   UNL     1       3.974   3.563  17.080  0.00  0.00    +0.000 C 
ATOM     13  C   UNL     1       4.941   4.336  17.989  0.00  0.00    +0.000 C 
ENDROOT
BRANCH   5  14
ATOM     14  C   UNL     1       1.738   7.526  20.146  0.00  0.00    +0.000 A 
ATOM     15  C   UNL     1       1.476   8.530  19.234  0.00  0.00    +0.000 A 
ATOM     16  C   UNL     1       1.081   9.655  19.985  0.00  0.00    +0.000 A 
ATOM     17  C   UNL     1       0.706  10.988  19.459  0.00  0.00    +0.000 C 
ATOM     18  N   UNL     1       1.108   9.397  21.295  0.00  0.00    +0.000 NA
ATOM     19  N   UNL     1       1.556   8.129  21.367  0.00  0.00    +0.000 N 
ATOM     20  H   UNL     1       1.715   7.717  22.284  0.00  0.00    +0.000 HD
ENDBRANCH   5  14
BRANCH   1  21
ATOM     21  C   UNL     1       6.770   6.016  17.950  0.00  0.00    +0.000 C 
BRANCH  21  23
ATOM     22  C   UNL     1       8.209   8.121  18.205  0.00  0.00    +0.000 C 
ATOM     23  C   UNL     1       7.406   7.235  17.264  0.00  0.00    +0.000 C 
ENDBRANCH  21  23
ENDBRANCH   1  21
TORSDOF 3
ENDMDL
MODEL 2
REMARK VINA RESULT:      -7.2      2.765      4.209
REMARK  Name = 
REMARK  5 active torsions:
REMARK  status: ('A' for Active; 'I' for Inactive)
REMARK    1  A    between atoms: C_1  and  C_2
REMARK    2  A    between atoms: C_2  and  C_3
REMARK    3  A    between atoms: C_3  and  N_4
REMARK    4  A    between atoms: C_8  and  C_10
REMARK    5  A    between atoms: C_12  and  C_13
REMARK                            x       y       z     vdW  Elec       q    Type
REMARK                         _______ _______ _______ _____ _____    ______ ____
ROOT
ATOM      1  N   UNL     1       4.215   3.160  18.425  0.00  0.00    +0.000 NA
ATOM      2  C   UNL     1       3.888   3.914  19.646  0.00  0.00    +0.000 C 
ATOM      3  C   UNL     1       3.143   5.236  19.402  0.00  0.00    +0.000 C 
ATOM      4  N   UNL     1       3.642   6.095  18.314  0.00  0.00    +0.000 N 
ATOM      5  C   UNL     1       3.163   7.422  18.188  0.00  0.00    +0.000 C 
ATOM      6  O   UNL     1       3.535   8.151  17.273  0.00  0.00    +0.000 OA
ATOM      7  C   UNL     1       4.119   5.383  17.099  0.00  0.00    +0.000 C 
ATOM      8  C   UNL     1       5.104   6.093  16.151  0.00  0.00    +0.000 C 
ATOM      9  S   UNL     1       6.739   5.749  16.767  0.00  0.00    +0.000 S 
ATOM     10  O   UNL     1       7.512   5.150  15.698  0.00  0.00    +0.000 OA
ATOM     11  O   UNL     1       7.220   6.882  17.525  0.00  0.00    +0.000 OA
ATOM     12  C   UNL     1       6.269   4.467  17.902  0.00  0.00    +0.000 C 
ATOM     13  C   UNL     1       4.864   4.051  17.444  0.00  0.00    +0.000 C 
ENDROOT
BRANCH   5  14
ATOM     14  C   UNL     1       2.211   7.943  19.149  0.00  0.00    +0.000 A 
ATOM     15  C   UNL     1       1.325   9.003  19.129  0.00  0.00    +0.000 A 
ATOM     16  C   UNL     1       0.726   9.044  20.403  0.00  0.00    +0.000 A 
ATOM     17  C   UNL     1      -0.287  10.015  20.879  0.00  0.00    +0.000 C 
ATOM     18  N   UNL     1       1.211   8.086  21.198  0.00  0.00    +0.000 NA
ATOM     19  N   UNL     1       2.138   7.472  20.437  0.00  0.00    +0.000 N 
ATOM     20  H   UNL     1       2.693   6.726  20.851  0.00  0.00    +0.000 HD
ENDBRANCH   5  14
BRANCH   1  21
ATOM     21  C   UNL     1       3.028   2.445  17.911  0.00  0.00    +0.000 C 
BRANCH  21  23
ATOM     22  C   UNL     1       0.647   2.412  18.860  0.00  0.00    +0.000 C 
ATOM     23  C   UNL     1       2.074   1.897  18.984  0.00  0.00    +0.000 C 
ENDBRANCH  21  23
ENDBRANCH   1  21
TORSDOF 3
ENDMDL
MODEL 3
REMARK VINA RESULT:      -7.2      2.210      5.777
REMARK  Name = 
REMARK  5 active torsions:
REMARK  status: ('A' for Active; 'I' for Inactive)
REMARK    1  A    between atoms: C_1  and  C_2
REMARK    2  A    between atoms: C_2  and  C_3
REMARK    3  A    between atoms: C_3  and  N_4
REMARK    4  A    between atoms: C_8  and  C_10
REMARK    5  A    between atoms: C_12  and  C_13
REMARK                            x       y       z     vdW  Elec       q    Type
REMARK                         _______ _______ _______ _____ _____    ______ ____
ROOT
ATOM      1  N   UNL     1       2.283   6.905  19.221  0.00  0.00    +0.000 NA
ATOM      2  C   UNL     1       3.722   7.038  18.939  0.00  0.00    +0.000 C 
ATOM      3  C   UNL     1       4.244   6.116  17.827  0.00  0.00    +0.000 C 
ATOM      4  N   UNL     1       3.792   4.714  17.851  0.00  0.00    +0.000 N 
ATOM      5  C   UNL     1       4.412   3.759  17.010  0.00  0.00    +0.000 C 
ATOM      6  O   UNL     1       4.036   2.590  16.984  0.00  0.00    +0.000 OA
ATOM      7  C   UNL     1       2.379   4.501  18.264  0.00  0.00    +0.000 C 
ATOM      8  C   UNL     1       1.957   3.126  18.814  0.00  0.00    +0.000 C 
ATOM      9  S   UNL     1       2.268   3.163  20.567  0.00  0.00    +0.000 S 
ATOM     10  O   UNL     1       1.036   2.835  21.255  0.00  0.00    +0.000 OA
ATOM     11  O   UNL     1       3.514   2.488  20.853  0.00  0.00    +0.000 OA
ATOM     12  C   UNL     1       2.530   4.914  20.695  0.00  0.00    +0.000 C 
ATOM     13  C   UNL     1       1.936   5.482  19.398  0.00  0.00    +0.000 C 
ENDROOT
BRANCH   5  14
ATOM     14  C   UNL     1       5.513   4.153  16.154  0.00  0.00    +0.000 A 
ATOM     15  C   UNL     1       5.620   4.406  14.799  0.00  0.00    +0.000 A 
ATOM     16  C   UNL     1       6.980   4.672  14.551  0.00  0.00    +0.000 A 
ATOM     17  C   UNL     1       7.600   4.989  13.243  0.00  0.00    +0.000 C 
ATOM     18  N   UNL     1       7.705   4.577  15.669  0.00  0.00    +0.000 NA
ATOM     19  N   UNL     1       6.809   4.213  16.606  0.00  0.00    +0.000 N 
ATOM     20  H   UNL     1       7.138   4.022  17.550  0.00  0.00    +0.000 HD
ENDBRANCH   5  14
BRANCH   1  21
ATOM     21  C   UNL     1       1.478   7.610  18.201  0.00  0.00    +0.000 C 
BRANCH  21  23
ATOM     22  C   UNL     1       1.234  10.136  18.559  0.00  0.00    +0.000 C 
ATOM     23  C   UNL     1       1.968   9.019  17.832  0.00  0.00    +0.000 C 
ENDBRANCH  21  23
ENDBRANCH   1  21
TORSDOF 3
ENDMDL
MODEL 4
REMARK VINA RESULT:      -7.0      1.046      1.225
REMARK  Name = 
REMARK  5 active torsions:
REMARK  status: ('A' for Active; 'I' for Inactive)
REMARK    1  A    between atoms: C_1  and  C_2
REMARK    2  A    between atoms: C_2  and  C_3
REMARK    3  A    between atoms: C_3  and  N_4
REMARK    4  A    between atoms: C_8  and  C_10
REMARK    5  A    between atoms: C_12  and  C_13
REMARK                            x       y       z     vdW  Elec       q    Type
REMARK                         _______ _______ _______ _____ _____    ______ ____
ROOT
ATOM      1  N   UNL     1       5.437   5.667  16.990  0.00  0.00    +0.000 NA
ATOM      2  C   UNL     1       4.428   6.712  16.750  0.00  0.00    +0.000 C 
ATOM      3  C   UNL     1       3.656   7.155  18.002  0.00  0.00    +0.000 C 
ATOM      4  N   UNL     1       3.178   6.094  18.905  0.00  0.00    +0.000 N 
ATOM      5  C   UNL     1       2.263   6.407  19.939  0.00  0.00    +0.000 C 
ATOM      6  O   UNL     1       1.872   5.551  20.728  0.00  0.00    +0.000 OA
ATOM      7  C   UNL     1       4.097   4.937  19.083  0.00  0.00    +0.000 C 
ATOM      8  C   UNL     1       3.523   3.589  19.554  0.00  0.00    +0.000 C 
ATOM      9  S   UNL     1       3.008   2.716  18.090  0.00  0.00    +0.000 S 
ATOM     10  O   UNL     1       3.671   1.427  18.071  0.00  0.00    +0.000 OA
ATOM     11  O   UNL     1       1.579   2.850  17.923  0.00  0.00    +0.000 OA
ATOM     12  C   UNL     1       3.818   3.777  16.919  0.00  0.00    +0.000 C 
ATOM     13  C   UNL     1       4.839   4.559  17.759  0.00  0.00    +0.000 C 
ENDROOT
BRANCH   5  14
ATOM     14  C   UNL     1       1.771   7.763  20.085  0.00  0.00    +0.000 A 
ATOM     15  C   UNL     1       1.281   8.486  21.156  0.00  0.00    +0.000 A 
ATOM     16  C   UNL     1       0.888   9.737  20.645  0.00  0.00    +0.000 A 
ATOM     17  C   UNL     1       0.288  10.860  21.403  0.00  0.00    +0.000 C 
ATOM     18  N   UNL     1       1.091   9.808  19.326  0.00  0.00    +0.000 NA
ATOM     19  N   UNL     1       1.574   8.591  19.007  0.00  0.00    +0.000 N 
ATOM     20  H   UNL     1       1.759   8.379  18.029  0.00  0.00    +0.000 HD
ENDBRANCH   5  14
BRANCH   1  21
ATOM     21  C   UNL     1       6.659   6.241  17.593  0.00  0.00    +0.000 C 
BRANCH  21  23
ATOM     22  C   UNL     1       8.002   5.597  19.678  0.00  0.00    +0.000 C 
ATOM     23  C   UNL     1       7.605   5.227  18.257  0.00  0.00    +0.000 C 
ENDBRANCH  21  23
ENDBRANCH   1  21
TORSDOF 3
ENDMDL
MODEL 5
REMARK VINA RESULT:      -6.8      4.440      7.448
REMARK  Name = 
REMARK  5 active torsions:
REMARK  status: ('A' for Active; 'I' for Inactive)
REMARK    1  A    between atoms: C_1  and  C_2
REMARK    2  A    between atoms: C_2  and  C_3
REMARK    3  A    between atoms: C_3  and  N_4
REMARK    4  A    between atoms: C_8  and  C_10
REMARK    5  A    between atoms: C_12  and  C_13
REMARK                            x       y       z     vdW  Elec       q    Type
REMARK                         _______ _______ _______ _____ _____    ______ ____
ROOT
ATOM      1  N   UNL     1       4.229   4.019  18.304  0.00  0.00    +0.000 NA
ATOM      2  C   UNL     1       3.545   4.310  17.034  0.00  0.00    +0.000 C 
ATOM      3  C   UNL     1       4.339   3.923  15.777  0.00  0.00    +0.000 C 
ATOM      4  N   UNL     1       5.768   4.275  15.751  0.00  0.00    +0.000 N 
ATOM      5  C   UNL     1       6.500   4.168  14.544  0.00  0.00    +0.000 C 
ATOM      6  O   UNL     1       7.700   4.423  14.498  0.00  0.00    +0.000 OA
ATOM      7  C   UNL     1       6.489   4.134  17.045  0.00  0.00    +0.000 C 
ATOM      8  C   UNL     1       7.787   4.931  17.271  0.00  0.00    +0.000 C 
ATOM      9  S   UNL     1       7.303   6.514  17.927  0.00  0.00    +0.000 S 
ATOM     10  O   UNL     1       7.998   6.719  19.183  0.00  0.00    +0.000 OA
ATOM     11  O   UNL     1       7.314   7.501  16.871  0.00  0.00    +0.000 OA
ATOM     12  C   UNL     1       5.618   6.086  18.286  0.00  0.00    +0.000 C 
ATOM     13  C   UNL     1       5.605   4.550  18.266  0.00  0.00    +0.000 C 
ENDROOT
BRANCH   5  14
ATOM     14  C   UNL     1       5.833   3.745  13.328  0.00  0.00    +0.000 A 
ATOM     15  C   UNL     1       4.665   4.135  12.700  0.00  0.00    +0.000 A 
ATOM     16  C   UNL     1       4.512   3.289  11.585  0.00  0.00    +0.000 A 
ATOM     17  C   UNL     1       3.404   3.305  10.601  0.00  0.00    +0.000 C 
ATOM     18  N   UNL     1       5.506   2.399  11.511  0.00  0.00    +0.000 NA
ATOM     19  N   UNL     1       6.257   2.662  12.598  0.00  0.00    +0.000 N 
ATOM     20  H   UNL     1       7.059   2.067  12.794  0.00  0.00    +0.000 HD
ENDBRANCH   5  14
BRANCH   1  21
ATOM     21  C   UNL     1       4.136   2.582  18.637  0.00  0.00    +0.000 C 
BRANCH  21  23
ATOM     22  C   UNL     1       1.775   2.204  19.559  0.00  0.00    +0.000 C 
ATOM     23  C   UNL     1       2.754   1.944  18.424  0.00  0.00    +0.000 C 
ENDBRANCH  21  23
ENDBRANCH   1  21
TORSDOF 3
ENDMDL
MODEL 6
REMARK VINA RESULT:      -6.8      2.889      4.312
REMARK  Name = 
REMARK  5 active torsions:
REMARK  status: ('A' for Active; 'I' for Inactive)
REMARK    1  A    between atoms: C_1  and  C_2
REMARK    2  A    between atoms: C_2  and  C_3
REMARK    3  A    between atoms: C_3  and  N_4
REMARK    4  A    between atoms: C_8  and  C_10
REMARK    5  A    between atoms: C_12  and  C_13
REMARK                            x       y       z     vdW  Elec       q    Type
REMARK                         _______ _______ _______ _____ _____    ______ ____
ROOT
ATOM      1  N   UNL     1       3.339   3.880  19.630  0.00  0.00    +0.000 NA
ATOM      2  C   UNL     1       2.995   5.038  20.472  0.00  0.00    +0.000 C 
ATOM      3  C   UNL     1       2.431   6.243  19.704  0.00  0.00    +0.000 C 
ATOM      4  N   UNL     1       3.116   6.624  18.458  0.00  0.00    +0.000 N 
ATOM      5  C   UNL     1       2.805   7.855  17.830  0.00  0.00    +0.000 C 
ATOM      6  O   UNL     1       3.336   8.186  16.773  0.00  0.00    +0.000 OA
ATOM      7  C   UNL     1       3.613   5.496  17.625  0.00  0.00    +0.000 C 
ATOM      8  C   UNL     1       4.751   5.750  16.619  0.00  0.00    +0.000 C 
ATOM      9  S   UNL     1       6.276   5.520  17.508  0.00  0.00    +0.000 S 
ATOM     10  O   UNL     1       7.065   4.526  16.809  0.00  0.00    +0.000 OA
ATOM     11  O   UNL     1       6.817   6.806  17.887  0.00  0.00    +0.000 OA
ATOM     12  C   UNL     1       5.566   4.758  18.946  0.00  0.00    +0.000 C 
ATOM     13  C   UNL     1       4.168   4.317  18.490  0.00  0.00    +0.000 C 
ENDROOT
BRANCH   5  14
ATOM     14  C   UNL     1       1.839   8.752  18.433  0.00  0.00    +0.000 A 
ATOM     15  C   UNL     1       1.463   9.003  19.739  0.00  0.00    +0.000 A 
ATOM     16  C   UNL     1       0.408   9.934  19.675  0.00  0.00    +0.000 A 
ATOM     17  C   UNL     1      -0.342  10.508  20.817  0.00  0.00    +0.000 C 
ATOM     18  N   UNL     1       0.111  10.245  18.411  0.00  0.00    +0.000 NA
ATOM     19  N   UNL     1       0.950   9.482  17.684  0.00  0.00    +0.000 N 
ATOM     20  H   UNL     1       0.876   9.504  16.669  0.00  0.00    +0.000 HD
ENDBRANCH   5  14
BRANCH   1  21
ATOM     21  C   UNL     1       2.126   3.124  19.251  0.00  0.00    +0.000 C 
BRANCH  21  23
ATOM     22  C   UNL     1       1.460   2.469  21.637  0.00  0.00    +0.000 C 
ATOM     23  C   UNL     1       1.018   3.079  20.315  0.00  0.00    +0.000 C 
ENDBRANCH  21  23
ENDBRANCH   1  21
TORSDOF 3
ENDMDL
MODEL 7
REMARK VINA RESULT:      -6.6      3.556      6.527
REMARK  Name = 
REMARK  5 active torsions:
REMARK  status: ('A' for Active; 'I' for Inactive)
REMARK    1  A    between atoms: C_1  and  C_2
REMARK    2  A    between atoms: C_2  and  C_3
REMARK    3  A    between atoms: C_3  and  N_4
REMARK    4  A    between atoms: C_8  and  C_10
REMARK    5  A    between atoms: C_12  and  C_13
REMARK                            x       y       z     vdW  Elec       q    Type
REMARK                         _______ _______ _______ _____ _____    ______ ____
ROOT
ATOM      1  N   UNL     1       2.666   3.211  18.749  0.00  0.00    +0.000 NA
ATOM      2  C   UNL     1       2.768   3.116  17.283  0.00  0.00    +0.000 C 
ATOM      3  C   UNL     1       4.017   3.780  16.685  0.00  0.00    +0.000 C 
ATOM      4  N   UNL     1       4.380   5.112  17.199  0.00  0.00    +0.000 N 
ATOM      5  C   UNL     1       5.365   5.880  16.534  0.00  0.00    +0.000 C 
ATOM      6  O   UNL     1       5.713   6.979  16.957  0.00  0.00    +0.000 OA
ATOM      7  C   UNL     1       4.169   5.318  18.657  0.00  0.00    +0.000 C 
ATOM      8  C   UNL     1       4.015   6.751  19.198  0.00  0.00    +0.000 C 
ATOM      9  S   UNL     1       2.285   7.156  19.081  0.00  0.00    +0.000 S 
ATOM     10  O   UNL     1       1.820   7.551  20.395  0.00  0.00    +0.000 OA
ATOM     11  O   UNL     1       2.055   7.965  17.906  0.00  0.00    +0.000 OA
ATOM     12  C   UNL     1       1.707   5.508  18.756  0.00  0.00    +0.000 C 
ATOM     13  C   UNL     1       2.877   4.607  19.178  0.00  0.00    +0.000 C 
ENDROOT
BRANCH   5  14
ATOM     14  C   UNL     1       5.990   5.371  15.328  0.00  0.00    +0.000 A 
ATOM     15  C   UNL     1       5.568   4.512  14.331  0.00  0.00    +0.000 A 
ATOM     16  C   UNL     1       6.665   4.343  13.464  0.00  0.00    +0.000 A 
ATOM     17  C   UNL     1       6.714   3.501  12.245  0.00  0.00    +0.000 C 
ATOM     18  N   UNL     1       7.729   5.031  13.887  0.00  0.00    +0.000 NA
ATOM     19  N   UNL     1       7.312   5.598  15.036  0.00  0.00    +0.000 N 
ATOM     20  H   UNL     1       7.977   6.140  15.584  0.00  0.00    +0.000 HD
ENDBRANCH   5  14
BRANCH   1  21
ATOM     21  C   UNL     1       3.555   2.228  19.405  0.00  0.00    +0.000 C 
BRANCH  21  23
ATOM     22  C   UNL     1       2.280   2.483  21.613  0.00  0.00    +0.000 C 
ATOM     23  C   UNL     1       3.634   2.330  20.936  0.00  0.00    +0.000 C 
ENDBRANCH  21  23
ENDBRANCH   1  21
TORSDOF 3
ENDMDL
MODEL 8
REMARK VINA RESULT:      -6.5      2.974      4.185
REMARK  Name = 
REMARK  5 active torsions:
REMARK  status: ('A' for Active; 'I' for Inactive)
REMARK    1  A    between atoms: C_1  and  C_2
REMARK    2  A    between atoms: C_2  and  C_3
REMARK    3  A    between atoms: C_3  and  N_4
REMARK    4  A    between atoms: C_8  and  C_10
REMARK    5  A    between atoms: C_12  and  C_13
REMARK                            x       y       z     vdW  Elec       q    Type
REMARK                         _______ _______ _______ _____ _____    ______ ____
ROOT
ATOM      1  N   UNL     1       3.514   4.067  19.352  0.00  0.00    +0.000 NA
ATOM      2  C   UNL     1       3.083   5.136  20.269  0.00  0.00    +0.000 C 
ATOM      3  C   UNL     1       2.455   6.356  19.578  0.00  0.00    +0.000 C 
ATOM      4  N   UNL     1       3.134   6.871  18.377  0.00  0.00    +0.000 N 
ATOM      5  C   UNL     1       2.754   8.122  17.834  0.00  0.00    +0.000 C 
ATOM      6  O   UNL     1       3.279   8.562  16.815  0.00  0.00    +0.000 OA
ATOM      7  C   UNL     1       3.715   5.841  17.475  0.00  0.00    +0.000 C 
ATOM      8  C   UNL     1       4.850   6.239  16.513  0.00  0.00    +0.000 C 
ATOM      9  S   UNL     1       6.372   6.040  17.414  0.00  0.00    +0.000 S 
ATOM     10  O   UNL     1       7.235   5.152  16.661  0.00  0.00    +0.000 OA
ATOM     11  O   UNL     1       6.823   7.326  17.896  0.00  0.00    +0.000 OA
ATOM     12  C   UNL     1       5.691   5.131  18.779  0.00  0.00    +0.000 C 
ATOM     13  C   UNL     1       4.330   4.638  18.264  0.00  0.00    +0.000 C 
ENDROOT
BRANCH   5  14
ATOM     14  C   UNL     1       1.723   8.909  18.481  0.00  0.00    +0.000 A 
ATOM     15  C   UNL     1       1.374   9.115  19.802  0.00  0.00    +0.000 A 
ATOM     16  C   UNL     1       0.225   9.929  19.786  0.00  0.00    +0.000 A 
ATOM     17  C   UNL     1      -0.537  10.417  20.960  0.00  0.00    +0.000 C 
ATOM     18  N   UNL     1      -0.153  10.212  18.536  0.00  0.00    +0.000 NA
ATOM     19  N   UNL     1       0.734   9.545  17.772  0.00  0.00    +0.000 N 
ATOM     20  H   UNL     1       0.618   9.562  16.761  0.00  0.00    +0.000 HD
ENDBRANCH   5  14
BRANCH   1  21
ATOM     21  C   UNL     1       2.358   3.266  18.895  0.00  0.00    +0.000 C 
BRANCH  21  23
ATOM     22  C   UNL     1       3.737   1.167  18.386  0.00  0.00    +0.000 C 
ATOM     23  C   UNL     1       2.686   2.149  17.891  0.00  0.00    +0.000 C 
ENDBRANCH  21  23
ENDBRANCH   1  21
TORSDOF 3
ENDMDL
MODEL 9
REMARK VINA RESULT:      -6.5      3.260      7.057
REMARK  Name = 
REMARK  5 active torsions:
REMARK  status: ('A' for Active; 'I' for Inactive)
REMARK    1  A    between atoms: C_1  and  C_2
REMARK    2  A    between atoms: C_2  and  C_3
REMARK    3  A    between atoms: C_3  and  N_4
REMARK    4  A    between atoms: C_8  and  C_10
REMARK    5  A    between atoms: C_12  and  C_13
REMARK                            x       y       z     vdW  Elec       q    Type
REMARK                         _______ _______ _______ _____ _____    ______ ____
ROOT
ATOM      1  N   UNL     1       0.198  10.633  18.778  0.00  0.00    +0.000 NA
ATOM      2  C   UNL     1       1.571  10.239  18.418  0.00  0.00    +0.000 C 
ATOM      3  C   UNL     1       1.876   8.745  18.601  0.00  0.00    +0.000 C 
ATOM      4  N   UNL     1       1.404   8.110  19.843  0.00  0.00    +0.000 N 
ATOM      5  C   UNL     1       1.852   6.812  20.186  0.00  0.00    +0.000 C 
ATOM      6  O   UNL     1       1.451   6.244  21.199  0.00  0.00    +0.000 OA
ATOM      7  C   UNL     1       0.078   8.569  20.337  0.00  0.00    +0.000 C 
ATOM      8  C   UNL     1      -0.273   8.386  21.825  0.00  0.00    +0.000 C 
ATOM      9  S   UNL     1       0.332   9.831  22.671  0.00  0.00    +0.000 S 
ATOM     10  O   UNL     1      -0.772  10.434  23.390  0.00  0.00    +0.000 OA
ATOM     11  O   UNL     1       1.594   9.528  23.308  0.00  0.00    +0.000 OA
ATOM     12  C   UNL     1       0.649  10.805  21.220  0.00  0.00    +0.000 C 
ATOM     13  C   UNL     1      -0.145  10.100  20.110  0.00  0.00    +0.000 C 
ENDROOT
BRANCH   5  14
ATOM     14  C   UNL     1       2.799   6.123  19.332  0.00  0.00    +0.000 A 
ATOM     15  C   UNL     1       2.695   5.511  18.098  0.00  0.00    +0.000 A 
ATOM     16  C   UNL     1       3.956   4.948  17.826  0.00  0.00    +0.000 A 
ATOM     17  C   UNL     1       4.345   4.175  16.623  0.00  0.00    +0.000 C 
ATOM     18  N   UNL     1       4.811   5.165  18.829  0.00  0.00    +0.000 NA
ATOM     19  N   UNL     1       4.076   5.828  19.743  0.00  0.00    +0.000 N 
ATOM     20  H   UNL     1       4.502   6.061  20.638  0.00  0.00    +0.000 HD
ENDBRANCH   5  14
BRANCH   1  21
ATOM     21  C   UNL     1      -0.754  10.265  17.708  0.00  0.00    +0.000 C 
BRANCH  21  23
ATOM     22  C   UNL     1      -3.185   9.916  16.979  0.00  0.00    +0.000 C 
ATOM     23  C   UNL     1      -2.240  10.342  18.092  0.00  0.00    +0.000 C 
ENDBRANCH  21  23
ENDBRANCH   1  21
TORSDOF 3
ENDMDL
