MODEL 1
REMARK VINA RESULT:      -7.3      0.000      0.000
REMARK  Name = 
REMARK  9 active torsions:
REMARK  status: ('A' for Active; 'I' for Inactive)
REMARK    1  A    between atoms: C_1  and  C_2
REMARK    2  A    between atoms: C_2  and  N_3
REMARK    3  A    between atoms: C_2  and  C_14
REMARK    4  A    between atoms: N_3  and  C_4
REMARK    5  A    between atoms: C_4  and  C_5
REMARK    6  A    between atoms: C_5  and  C_6
REMARK    7  A    between atoms: C_6  and  C_8
REMARK    8  A    between atoms: C_14  and  O_15
REMARK    9  A    between atoms: C_14  and  C_16
REMARK                            x       y       z     vdW  Elec       q    Type
REMARK                         _______ _______ _______ _____ _____    ______ ____
ROOT
ATOM      1  N   UNL     1       6.786   4.379  18.023  0.00  0.00    +0.000 NA
ATOM      2  H   UNL     1       5.959   3.802  17.824  0.00  0.00    +0.000 HD
ENDROOT
BRANCH   1   4
ATOM      3  C   UNL     1       7.389   6.617  17.353  0.00  0.00    +0.000 C 
ATOM      4  C   UNL     1       7.042   5.212  16.832  0.00  0.00    +0.000 C 
BRANCH   4   5
ATOM      5  C   UNL     1       5.931   5.196  15.726  0.00  0.00    +0.000 C 
BRANCH   5   6
ATOM      6  C   UNL     1       6.323   4.711  14.340  0.00  0.00    +0.000 A 
ATOM      7  C   UNL     1       7.443   5.268  13.699  0.00  0.00    +0.000 A 
ATOM      8  C   UNL     1       7.810   4.874  12.410  0.00  0.00    +0.000 A 
ATOM      9  C   UNL     1       7.060   3.914  11.737  0.00  0.00    +0.000 A 
ATOM     10  C   UNL     1       5.950   3.345  12.358  0.00  0.00    +0.000 A 
ATOM     11  C   UNL     1       5.582   3.743  13.647  0.00  0.00    +0.000 A 
ENDBRANCH   5   6
BRANCH   5  12
ATOM     12  O   UNL     1       4.764   4.492  16.172  0.00  0.00    +0.000 OA
ATOM     13  H   UNL     1       4.599   4.738  17.093  0.00  0.00    +0.000 HD
ENDBRANCH   5  12
ENDBRANCH   4   5
ENDBRANCH   1   4
BRANCH   1  14
ATOM     14  C   UNL     1       6.478   5.159  19.228  0.00  0.00    +0.000 C 
BRANCH  14  15
ATOM     15  C   UNL     1       4.979   5.129  19.508  0.00  0.00    +0.000 C 
BRANCH  15  16
ATOM     16  C   UNL     1       4.394   3.731  19.420  0.00  0.00    +0.000 C 
ATOM     17  O   UNL     1       4.989   2.749  19.870  0.00  0.00    +0.000 OA
BRANCH  16  18
ATOM     18  C   UNL     1       3.044   3.605  18.713  0.00  0.00    +0.000 C 
ATOM     19  C   UNL     1       2.324   2.332  19.158  0.00  0.00    +0.000 C 
ATOM     20  C   UNL     1       1.731   2.454  20.559  0.00  0.00    +0.000 C 
ATOM     21  C   UNL     1       0.824   3.673  20.685  0.00  0.00    +0.000 C 
ATOM     22  C   UNL     1       1.518   4.963  20.269  0.00  0.00    +0.000 C 
ATOM     23  C   UNL     1       2.181   4.858  18.894  0.00  0.00    +0.000 C 
ENDBRANCH  16  18
ENDBRANCH  15  16
ENDBRANCH  14  15
ENDBRANCH   1  14
TORSDOF 8
ENDMDL
MODEL 2
REMARK VINA RESULT:      -7.3      1.601      2.216
REMARK  Name = 
REMARK  9 active torsions:
REMARK  status: ('A' for Active; 'I' for Inactive)
REMARK    1  A    between atoms: C_1  and  C_2
REMARK    2  A    between atoms: C_2  and  N_3
REMARK    3  A    between atoms: C_2  and  C_14
REMARK    4  A    between atoms: N_3  and  C_4
REMARK    5  A    between atoms: C_4  and  C_5
REMARK    6  A    between atoms: C_5  and  C_6
REMARK    7  A    between atoms: C_6  and  C_8
REMARK    8  A    between atoms: C_14  and  O_15
REMARK    9  A    between atoms: C_14  and  C_16
REMARK                            x       y       z     vdW  Elec       q    Type
REMARK                         _______ _______ _______ _____ _____    ______ ____
ROOT
ATOM      1  N   UNL     1       5.436   6.756  16.366  0.00  0.00    +0.000 NA
ATOM      2  H   UNL     1       5.821   7.698  16.223  0.00  0.00    +0.000 HD
ENDROOT
BRANCH   1   4
ATOM      3  C   UNL     1       7.620   6.925  17.378  0.00  0.00    +0.000 C 
ATOM      4  C   UNL     1       6.447   5.970  17.100  0.00  0.00    +0.000 C 
BRANCH   4   5
ATOM      5  C   UNL     1       6.872   4.609  16.446  0.00  0.00    +0.000 C 
BRANCH   5   6
ATOM      6  C   UNL     1       6.888   4.532  14.929  0.00  0.00    +0.000 A 
ATOM      7  C   UNL     1       5.975   3.693  14.266  0.00  0.00    +0.000 A 
ATOM      8  C   UNL     1       5.986   3.567  12.874  0.00  0.00    +0.000 A 
ATOM      9  C   UNL     1       6.914   4.279  12.120  0.00  0.00    +0.000 A 
ATOM     10  C   UNL     1       7.823   5.120  12.758  0.00  0.00    +0.000 A 
ATOM     11  C   UNL     1       7.813   5.243  14.151  0.00  0.00    +0.000 A 
ENDBRANCH   5   6
BRANCH   5  12
ATOM     12  O   UNL     1       8.128   4.153  16.967  0.00  0.00    +0.000 OA
ATOM     13  H   UNL     1       8.406   4.766  17.662  0.00  0.00    +0.000 HD
ENDBRANCH   5  12
ENDBRANCH   4   5
ENDBRANCH   1   4
BRANCH   1  14
ATOM     14  C   UNL     1       4.176   6.922  17.101  0.00  0.00    +0.000 C 
BRANCH  14  15
ATOM     15  C   UNL     1       3.579   5.561  17.441  0.00  0.00    +0.000 C 
BRANCH  15  16
ATOM     16  C   UNL     1       3.264   5.411  18.918  0.00  0.00    +0.000 C 
ATOM     17  O   UNL     1       4.133   5.544  19.783  0.00  0.00    +0.000 OA
BRANCH  16  18
ATOM     18  C   UNL     1       1.820   5.054  19.269  0.00  0.00    +0.000 C 
ATOM     19  C   UNL     1       1.357   3.844  18.458  0.00  0.00    +0.000 C 
ATOM     20  C   UNL     1       1.948   2.534  18.971  0.00  0.00    +0.000 C 
ATOM     21  C   UNL     1       1.678   2.336  20.459  0.00  0.00    +0.000 C 
ATOM     22  C   UNL     1       2.147   3.516  21.299  0.00  0.00    +0.000 C 
ATOM     23  C   UNL     1       1.626   4.856  20.776  0.00  0.00    +0.000 C 
ENDBRANCH  16  18
ENDBRANCH  15  16
ENDBRANCH  14  15
ENDBRANCH   1  14
TORSDOF 8
ENDMDL
MODEL 3
REMARK VINA RESULT:      -7.3      1.804      2.520
REMARK  Name = 
REMARK  9 active torsions:
REMARK  status: ('A' for Active; 'I' for Inactive)
REMARK    1  A    between atoms: C_1  and  C_2
REMARK    2  A    between atoms: C_2  and  N_3
REMARK    3  A    between atoms: C_2  and  C_14
REMARK    4  A    between atoms: N_3  and  C_4
REMARK    5  A    between atoms: C_4  and  C_5
REMARK    6  A    between atoms: C_5  and  C_6
REMARK    7  A    between atoms: C_6  and  C_8
REMARK    8  A    between atoms: C_14  and  O_15
REMARK    9  A    between atoms: C_14  and  C_16
REMARK                            x       y       z     vdW  Elec       q    Type
REMARK                         _______ _______ _______ _____ _____    ______ ____
ROOT
ATOM      1  N   UNL     1       5.216   6.668  16.457  0.00  0.00    +0.000 NA
ATOM      2  H   UNL     1       5.570   7.574  16.124  0.00  0.00    +0.000 HD
ENDROOT
BRANCH   1   4
ATOM      3  C   UNL     1       7.464   7.006  17.266  0.00  0.00    +0.000 C 
ATOM      4  C   UNL     1       6.336   5.971  17.120  0.00  0.00    +0.000 C 
BRANCH   4   5
ATOM      5  C   UNL     1       6.789   4.618  16.471  0.00  0.00    +0.000 C 
BRANCH   5   6
ATOM      6  C   UNL     1       6.823   4.541  14.954  0.00  0.00    +0.000 A 
ATOM      7  C   UNL     1       5.928   3.693  14.280  0.00  0.00    +0.000 A 
ATOM      8  C   UNL     1       5.957   3.568  12.888  0.00  0.00    +0.000 A 
ATOM      9  C   UNL     1       6.885   4.291  12.145  0.00  0.00    +0.000 A 
ATOM     10  C   UNL     1       7.777   5.142  12.794  0.00  0.00    +0.000 A 
ATOM     11  C   UNL     1       7.749   5.264  14.187  0.00  0.00    +0.000 A 
ENDBRANCH   5   6
BRANCH   5  12
ATOM     12  O   UNL     1       8.046   4.181  17.005  0.00  0.00    +0.000 OA
ATOM     13  H   UNL     1       8.075   4.424  17.941  0.00  0.00    +0.000 HD
ENDBRANCH   5  12
ENDBRANCH   4   5
ENDBRANCH   1   4
BRANCH   1  14
ATOM     14  C   UNL     1       4.093   6.959  17.355  0.00  0.00    +0.000 C 
BRANCH  14  15
ATOM     15  C   UNL     1       4.062   5.956  18.505  0.00  0.00    +0.000 C 
BRANCH  15  16
ATOM     16  C   UNL     1       2.663   5.444  18.798  0.00  0.00    +0.000 C 
ATOM     17  O   UNL     1       2.033   5.808  19.793  0.00  0.00    +0.000 OA
BRANCH  16  18
ATOM     18  C   UNL     1       2.095   4.426  17.808  0.00  0.00    +0.000 C 
ATOM     19  C   UNL     1       3.226   3.673  17.108  0.00  0.00    +0.000 C 
ATOM     20  C   UNL     1       3.883   2.631  18.011  0.00  0.00    +0.000 C 
ATOM     21  C   UNL     1       2.859   1.666  18.598  0.00  0.00    +0.000 C 
ATOM     22  C   UNL     1       1.727   2.385  19.321  0.00  0.00    +0.000 C 
ATOM     23  C   UNL     1       1.086   3.482  18.469  0.00  0.00    +0.000 C 
ENDBRANCH  16  18
ENDBRANCH  15  16
ENDBRANCH  14  15
ENDBRANCH   1  14
TORSDOF 8
ENDMDL
MODEL 4
REMARK VINA RESULT:      -7.1      1.355      2.139
REMARK  Name = 
REMARK  9 active torsions:
REMARK  status: ('A' for Active; 'I' for Inactive)
REMARK    1  A    between atoms: C_1  and  C_2
REMARK    2  A    between atoms: C_2  and  N_3
REMARK    3  A    between atoms: C_2  and  C_14
REMARK    4  A    between atoms: N_3  and  C_4
REMARK    5  A    between atoms: C_4  and  C_5
REMARK    6  A    between atoms: C_5  and  C_6
REMARK    7  A    between atoms: C_6  and  C_8
REMARK    8  A    between atoms: C_14  and  O_15
REMARK    9  A    between atoms: C_14  and  C_16
REMARK                            x       y       z     vdW  Elec       q    Type
REMARK                         _______ _______ _______ _____ _____    ______ ____
ROOT
ATOM      1  N   UNL     1       5.613   6.119  18.127  0.00  0.00    +0.000 NA
ATOM      2  H   UNL     1       6.089   5.352  18.618  0.00  0.00    +0.000 HD
ENDROOT
BRANCH   1   4
ATOM      3  C   UNL     1       4.952   6.754  15.894  0.00  0.00    +0.000 C 
ATOM      4  C   UNL     1       6.069   6.097  16.723  0.00  0.00    +0.000 C 
BRANCH   4   5
ATOM      5  C   UNL     1       6.541   4.707  16.172  0.00  0.00    +0.000 C 
BRANCH   5   6
ATOM      6  C   UNL     1       6.704   4.564  14.668  0.00  0.00    +0.000 A 
ATOM      7  C   UNL     1       5.894   3.655  13.965  0.00  0.00    +0.000 A 
ATOM      8  C   UNL     1       6.042   3.468  12.587  0.00  0.00    +0.000 A 
ATOM      9  C   UNL     1       7.005   4.190  11.889  0.00  0.00    +0.000 A 
ATOM     10  C   UNL     1       7.813   5.100  12.567  0.00  0.00    +0.000 A 
ATOM     11  C   UNL     1       7.667   5.283  13.946  0.00  0.00    +0.000 A 
ENDBRANCH   5   6
BRANCH   5  12
ATOM     12  O   UNL     1       7.737   4.266  16.831  0.00  0.00    +0.000 OA
ATOM     13  H   UNL     1       8.490   4.486  16.265  0.00  0.00    +0.000 HD
ENDBRANCH   5  12
ENDBRANCH   4   5
ENDBRANCH   1   4
BRANCH   1  14
ATOM     14  C   UNL     1       4.171   5.887  18.277  0.00  0.00    +0.000 C 
BRANCH  14  15
ATOM     15  C   UNL     1       3.893   5.103  19.556  0.00  0.00    +0.000 C 
BRANCH  15  16
ATOM     16  C   UNL     1       4.548   3.733  19.557  0.00  0.00    +0.000 C 
ATOM     17  O   UNL     1       5.730   3.578  19.241  0.00  0.00    +0.000 OA
BRANCH  16  18
ATOM     18  C   UNL     1       3.651   2.555  19.940  0.00  0.00    +0.000 C 
ATOM     19  C   UNL     1       2.415   3.048  20.693  0.00  0.00    +0.000 C 
ATOM     20  C   UNL     1       1.390   3.703  19.771  0.00  0.00    +0.000 C 
ATOM     21  C   UNL     1       1.002   2.789  18.614  0.00  0.00    +0.000 C 
ATOM     22  C   UNL     1       2.212   2.297  17.830  0.00  0.00    +0.000 C 
ATOM     23  C   UNL     1       3.291   1.690  18.728  0.00  0.00    +0.000 C 
ENDBRANCH  16  18
ENDBRANCH  15  16
ENDBRANCH  14  15
ENDBRANCH   1  14
TORSDOF 8
ENDMDL
MODEL 5
REMARK VINA RESULT:      -7.1      1.583      2.165
REMARK  Name = 
REMARK  9 active torsions:
REMARK  status: ('A' for Active; 'I' for Inactive)
REMARK    1  A    between atoms: C_1  and  C_2
REMARK    2  A    between atoms: C_2  and  N_3
REMARK    3  A    between atoms: C_2  and  C_14
REMARK    4  A    between atoms: N_3  and  C_4
REMARK    5  A    between atoms: C_4  and  C_5
REMARK    6  A    between atoms: C_5  and  C_6
REMARK    7  A    between atoms: C_6  and  C_8
REMARK    8  A    between atoms: C_14  and  O_15
REMARK    9  A    between atoms: C_14  and  C_16
REMARK                            x       y       z     vdW  Elec       q    Type
REMARK                         _______ _______ _______ _____ _____    ______ ____
ROOT
ATOM      1  N   UNL     1       5.157   4.591  17.508  0.00  0.00    +0.000 NA
ATOM      2  H   UNL     1       5.293   4.771  18.511  0.00  0.00    +0.000 HD
ENDROOT
BRANCH   1   4
ATOM      3  C   UNL     1       7.509   4.787  18.010  0.00  0.00    +0.000 C 
ATOM      4  C   UNL     1       6.493   4.544  16.881  0.00  0.00    +0.000 C 
BRANCH   4   5
ATOM      5  C   UNL     1       6.699   5.461  15.626  0.00  0.00    +0.000 C 
BRANCH   5   6
ATOM      6  C   UNL     1       6.607   4.812  14.256  0.00  0.00    +0.000 A 
ATOM      7  C   UNL     1       5.556   3.921  13.978  0.00  0.00    +0.000 A 
ATOM      8  C   UNL     1       5.461   3.275  12.742  0.00  0.00    +0.000 A 
ATOM      9  C   UNL     1       6.418   3.511  11.761  0.00  0.00    +0.000 A 
ATOM     10  C   UNL     1       7.464   4.396  12.014  0.00  0.00    +0.000 A 
ATOM     11  C   UNL     1       7.561   5.038  13.253  0.00  0.00    +0.000 A 
ENDBRANCH   5   6
BRANCH   5  12
ATOM     12  O   UNL     1       5.841   6.610  15.676  0.00  0.00    +0.000 OA
ATOM     13  H   UNL     1       5.950   7.101  14.849  0.00  0.00    +0.000 HD
ENDBRANCH   5  12
ENDBRANCH   4   5
ENDBRANCH   1   4
BRANCH   1  14
ATOM     14  C   UNL     1       4.415   3.329  17.402  0.00  0.00    +0.000 C 
BRANCH  14  15
ATOM     15  C   UNL     1       2.942   3.604  17.120  0.00  0.00    +0.000 C 
BRANCH  15  16
ATOM     16  C   UNL     1       2.307   4.514  18.156  0.00  0.00    +0.000 C 
ATOM     17  O   UNL     1       2.704   5.668  18.337  0.00  0.00    +0.000 OA
BRANCH  16  18
ATOM     18  C   UNL     1       1.173   3.909  18.984  0.00  0.00    +0.000 C 
ATOM     19  C   UNL     1       1.343   2.394  19.095  0.00  0.00    +0.000 C 
ATOM     20  C   UNL     1       2.448   1.998  20.071  0.00  0.00    +0.000 C 
ATOM     21  C   UNL     1       2.245   2.631  21.443  0.00  0.00    +0.000 C 
ATOM     22  C   UNL     1       2.093   4.145  21.370  0.00  0.00    +0.000 C 
ATOM     23  C   UNL     1       1.037   4.583  20.353  0.00  0.00    +0.000 C 
ENDBRANCH  16  18
ENDBRANCH  15  16
ENDBRANCH  14  15
ENDBRANCH   1  14
TORSDOF 8
ENDMDL
MODEL 6
REMARK VINA RESULT:      -7.0      1.183      1.800
REMARK  Name = 
REMARK  9 active torsions:
REMARK  status: ('A' for Active; 'I' for Inactive)
REMARK    1  A    between atoms: C_1  and  C_2
REMARK    2  A    between atoms: C_2  and  N_3
REMARK    3  A    between atoms: C_2  and  C_14
REMARK    4  A    between atoms: N_3  and  C_4
REMARK    5  A    between atoms: C_4  and  C_5
REMARK    6  A    between atoms: C_5  and  C_6
REMARK    7  A    between atoms: C_6  and  C_8
REMARK    8  A    between atoms: C_14  and  O_15
REMARK    9  A    between atoms: C_14  and  C_16
REMARK                            x       y       z     vdW  Elec       q    Type
REMARK                         _______ _______ _______ _____ _____    ______ ____
ROOT
ATOM      1  N   UNL     1       6.528   6.273  18.087  0.00  0.00    +0.000 NA
ATOM      2  H   UNL     1       7.310   5.674  18.383  0.00  0.00    +0.000 HD
ENDROOT
BRANCH   1   4
ATOM      3  C   UNL     1       4.957   6.603  16.285  0.00  0.00    +0.000 C 
ATOM      4  C   UNL     1       6.374   6.112  16.627  0.00  0.00    +0.000 C 
BRANCH   4   5
ATOM      5  C   UNL     1       6.717   4.696  16.048  0.00  0.00    +0.000 C 
BRANCH   5   6
ATOM      6  C   UNL     1       6.810   4.555  14.538  0.00  0.00    +0.000 A 
ATOM      7  C   UNL     1       6.007   3.610  13.877  0.00  0.00    +0.000 A 
ATOM      8  C   UNL     1       6.093   3.426  12.495  0.00  0.00    +0.000 A 
ATOM      9  C   UNL     1       6.988   4.187  11.748  0.00  0.00    +0.000 A 
ATOM     10  C   UNL     1       7.788   5.133  12.384  0.00  0.00    +0.000 A 
ATOM     11  C   UNL     1       7.704   5.314  13.768  0.00  0.00    +0.000 A 
ENDBRANCH   5   6
BRANCH   5  12
ATOM     12  O   UNL     1       7.900   4.159  16.657  0.00  0.00    +0.000 OA
ATOM     13  H   UNL     1       8.302   4.854  17.197  0.00  0.00    +0.000 HD
ENDBRANCH   5  12
ENDBRANCH   4   5
ENDBRANCH   1   4
BRANCH   1  14
ATOM     14  C   UNL     1       5.352   5.841  18.851  0.00  0.00    +0.000 C 
BRANCH  14  15
ATOM     15  C   UNL     1       5.509   4.388  19.287  0.00  0.00    +0.000 C 
BRANCH  15  16
ATOM     16  C   UNL     1       4.177   3.679  19.454  0.00  0.00    +0.000 C 
ATOM     17  O   UNL     1       4.110   2.471  19.690  0.00  0.00    +0.000 OA
BRANCH  16  18
ATOM     18  C   UNL     1       2.926   4.542  19.281  0.00  0.00    +0.000 C 
ATOM     19  C   UNL     1       2.084   4.030  18.112  0.00  0.00    +0.000 C 
ATOM     20  C   UNL     1       1.321   2.753  18.455  0.00  0.00    +0.000 C 
ATOM     21  C   UNL     1       0.475   2.920  19.713  0.00  0.00    +0.000 C 
ATOM     22  C   UNL     1       1.290   3.409  20.903  0.00  0.00    +0.000 C 
ATOM     23  C   UNL     1       2.120   4.652  20.579  0.00  0.00    +0.000 C 
ENDBRANCH  16  18
ENDBRANCH  15  16
ENDBRANCH  14  15
ENDBRANCH   1  14
TORSDOF 8
ENDMDL
MODEL 7
REMARK VINA RESULT:      -7.0      2.467      6.358
REMARK  Name = 
REMARK  9 active torsions:
REMARK  status: ('A' for Active; 'I' for Inactive)
REMARK    1  A    between atoms: C_1  and  C_2
REMARK    2  A    between atoms: C_2  and  N_3
REMARK    3  A    between atoms: C_2  and  C_14
REMARK    4  A    between atoms: N_3  and  C_4
REMARK    5  A    between atoms: C_4  and  C_5
REMARK    6  A    between atoms: C_5  and  C_6
REMARK    7  A    between atoms: C_6  and  C_8
REMARK    8  A    between atoms: C_14  and  O_15
REMARK    9  A    between atoms: C_14  and  C_16
REMARK                            x       y       z     vdW  Elec       q    Type
REMARK                         _______ _______ _______ _____ _____    ______ ____
ROOT
ATOM      1  N   UNL     1       4.033   2.744  17.188  0.00  0.00    +0.000 NA
ATOM      2  H   UNL     1       4.840   2.108  17.207  0.00  0.00    +0.000 HD
ENDROOT
BRANCH   1   4
ATOM      3  C   UNL     1       4.171   1.971  19.469  0.00  0.00    +0.000 C 
ATOM      4  C   UNL     1       3.759   3.155  18.579  0.00  0.00    +0.000 C 
BRANCH   4   5
ATOM      5  C   UNL     1       2.318   3.701  18.867  0.00  0.00    +0.000 C 
BRANCH   5   6
ATOM      6  C   UNL     1       2.174   5.182  19.175  0.00  0.00    +0.000 A 
ATOM      7  C   UNL     1       2.443   6.130  18.172  0.00  0.00    +0.000 A 
ATOM      8  C   UNL     1       2.358   7.501  18.430  0.00  0.00    +0.000 A 
ATOM      9  C   UNL     1       2.002   7.948  19.699  0.00  0.00    +0.000 A 
ATOM     10  C   UNL     1       1.725   7.024  20.704  0.00  0.00    +0.000 A 
ATOM     11  C   UNL     1       1.814   5.652  20.446  0.00  0.00    +0.000 A 
ENDBRANCH   5   6
BRANCH   5  12
ATOM     12  O   UNL     1       1.405   3.333  17.824  0.00  0.00    +0.000 OA
ATOM     13  H   UNL     1       0.656   3.945  17.851  0.00  0.00    +0.000 HD
ENDBRANCH   5  12
ENDBRANCH   4   5
ENDBRANCH   1   4
BRANCH   1  14
ATOM     14  C   UNL     1       4.395   3.860  16.307  0.00  0.00    +0.000 C 
BRANCH  14  15
ATOM     15  C   UNL     1       5.858   3.751  15.890  0.00  0.00    +0.000 C 
BRANCH  15  16
ATOM     16  C   UNL     1       6.791   4.498  16.826  0.00  0.00    +0.000 C 
ATOM     17  O   UNL     1       7.998   4.247  16.877  0.00  0.00    +0.000 OA
BRANCH  16  18
ATOM     18  C   UNL     1       6.146   5.554  17.723  0.00  0.00    +0.000 C 
ATOM     19  C   UNL     1       6.724   5.479  19.136  0.00  0.00    +0.000 C 
ATOM     20  C   UNL     1       8.129   6.068  19.227  0.00  0.00    +0.000 C 
ATOM     21  C   UNL     1       8.183   7.492  18.684  0.00  0.00    +0.000 C 
ATOM     22  C   UNL     1       7.632   7.597  17.268  0.00  0.00    +0.000 C 
ATOM     23  C   UNL     1       6.249   6.960  17.124  0.00  0.00    +0.000 C 
ENDBRANCH  16  18
ENDBRANCH  15  16
ENDBRANCH  14  15
ENDBRANCH   1  14
TORSDOF 8
ENDMDL
MODEL 8
REMARK VINA RESULT:      -6.9      1.675      2.627
REMARK  Name = 
REMARK  9 active torsions:
REMARK  status: ('A' for Active; 'I' for Inactive)
REMARK    1  A    between atoms: C_1  and  C_2
REMARK    2  A    between atoms: C_2  and  N_3
REMARK    3  A    between atoms: C_2  and  C_14
REMARK    4  A    between atoms: N_3  and  C_4
REMARK    5  A    between atoms: C_4  and  C_5
REMARK    6  A    between atoms: C_5  and  C_6
REMARK    7  A    between atoms: C_6  and  C_8
REMARK    8  A    between atoms: C_14  and  O_15
REMARK    9  A    between atoms: C_14  and  C_16
REMARK                            x       y       z     vdW  Elec       q    Type
REMARK                         _______ _______ _______ _____ _____    ______ ____
ROOT
ATOM      1  N   UNL     1       4.543   5.595  16.788  0.00  0.00    +0.000 NA
ATOM      2  H   UNL     1       4.882   6.447  16.322  0.00  0.00    +0.000 HD
ENDROOT
BRANCH   1   4
ATOM      3  C   UNL     1       5.969   4.694  18.514  0.00  0.00    +0.000 C 
ATOM      4  C   UNL     1       5.708   4.712  16.998  0.00  0.00    +0.000 C 
BRANCH   4   5
ATOM      5  C   UNL     1       6.978   5.026  16.134  0.00  0.00    +0.000 C 
BRANCH   5   6
ATOM      6  C   UNL     1       6.911   4.722  14.647  0.00  0.00    +0.000 A 
ATOM      7  C   UNL     1       6.000   3.762  14.174  0.00  0.00    +0.000 A 
ATOM      8  C   UNL     1       5.937   3.429  12.818  0.00  0.00    +0.000 A 
ATOM      9  C   UNL     1       6.788   4.053  11.910  0.00  0.00    +0.000 A 
ATOM     10  C   UNL     1       7.693   5.012  12.359  0.00  0.00    +0.000 A 
ATOM     11  C   UNL     1       7.758   5.342  13.716  0.00  0.00    +0.000 A 
ENDBRANCH   5   6
BRANCH   5  12
ATOM     12  O   UNL     1       7.419   6.376  16.332  0.00  0.00    +0.000 OA
ATOM     13  H   UNL     1       8.357   6.423  16.096  0.00  0.00    +0.000 HD
ENDBRANCH   5  12
ENDBRANCH   4   5
ENDBRANCH   1   4
BRANCH   1  14
ATOM     14  C   UNL     1       3.900   6.023  18.035  0.00  0.00    +0.000 C 
BRANCH  14  15
ATOM     15  C   UNL     1       2.467   5.504  18.097  0.00  0.00    +0.000 C 
BRANCH  15  16
ATOM     16  C   UNL     1       2.039   5.131  19.504  0.00  0.00    +0.000 C 
ATOM     17  O   UNL     1       2.134   5.924  20.444  0.00  0.00    +0.000 OA
BRANCH  16  18
ATOM     18  C   UNL     1       1.514   3.708  19.697  0.00  0.00    +0.000 C 
ATOM     19  C   UNL     1       1.246   3.050  18.344  0.00  0.00    +0.000 C 
ATOM     20  C   UNL     1       2.529   2.626  17.633  0.00  0.00    +0.000 C 
ATOM     21  C   UNL     1       3.397   1.735  18.516  0.00  0.00    +0.000 C 
ATOM     22  C   UNL     1       3.701   2.372  19.866  0.00  0.00    +0.000 C 
ATOM     23  C   UNL     1       2.442   2.868  20.581  0.00  0.00    +0.000 C 
ENDBRANCH  16  18
ENDBRANCH  15  16
ENDBRANCH  14  15
ENDBRANCH   1  14
TORSDOF 8
ENDMDL
MODEL 9
REMARK VINA RESULT:      -6.9      1.756      2.521
REMARK  Name = 
REMARK  9 active torsions:
REMARK  status: ('A' for Active; 'I' for Inactive)
REMARK    1  A    between atoms: C_1  and  C_2
REMARK    2  A    between atoms: C_2  and  N_3
REMARK    3  A    between atoms: C_2  and  C_14
REMARK    4  A    between atoms: N_3  and  C_4
REMARK    5  A    between atoms: C_4  and  C_5
REMARK    6  A    between atoms: C_5  and  C_6
REMARK    7  A    between atoms: C_6  and  C_8
REMARK    8  A    between atoms: C_14  and  O_15
REMARK    9  A    between atoms: C_14  and  C_16
REMARK                            x       y       z     vdW  Elec       q    Type
REMARK                         _______ _______ _______ _____ _____    ______ ____
ROOT
ATOM      1  N   UNL     1       5.220   6.486  17.519  0.00  0.00    +0.000 NA
ATOM      2  H   UNL     1       5.143   7.397  17.988  0.00  0.00    +0.000 HD
ENDROOT
BRANCH   1   4
ATOM      3  C   UNL     1       7.564   7.014  17.745  0.00  0.00    +0.000 C 
ATOM      4  C   UNL     1       6.518   5.897  17.905  0.00  0.00    +0.000 C 
BRANCH   4   5
ATOM      5  C   UNL     1       6.905   4.553  17.198  0.00  0.00    +0.000 C 
BRANCH   5   6
ATOM      6  C   UNL     1       6.765   4.486  15.686  0.00  0.00    +0.000 A 
ATOM      7  C   UNL     1       5.720   3.737  15.117  0.00  0.00    +0.000 A 
ATOM      8  C   UNL     1       5.584   3.622  13.731  0.00  0.00    +0.000 A 
ATOM      9  C   UNL     1       6.493   4.256  12.888  0.00  0.00    +0.000 A 
ATOM     10  C   UNL     1       7.531   5.008  13.434  0.00  0.00    +0.000 A 
ATOM     11  C   UNL     1       7.669   5.119  14.821  0.00  0.00    +0.000 A 
ENDBRANCH   5   6
BRANCH   5  12
ATOM     12  O   UNL     1       8.219   4.123  17.580  0.00  0.00    +0.000 OA
ATOM     13  H   UNL     1       8.742   4.003  16.775  0.00  0.00    +0.000 HD
ENDBRANCH   5  12
ENDBRANCH   4   5
ENDBRANCH   1   4
BRANCH   1  14
ATOM     14  C   UNL     1       4.065   5.690  17.951  0.00  0.00    +0.000 C 
BRANCH  14  15
ATOM     15  C   UNL     1       4.184   5.344  19.432  0.00  0.00    +0.000 C 
BRANCH  15  16
ATOM     16  C   UNL     1       2.834   5.154  20.099  0.00  0.00    +0.000 C 
ATOM     17  O   UNL     1       1.993   6.056  20.132  0.00  0.00    +0.000 OA
BRANCH  16  18
ATOM     18  C   UNL     1       2.590   3.795  20.755  0.00  0.00    +0.000 C 
ATOM     19  C   UNL     1       1.102   3.448  20.727  0.00  0.00    +0.000 C 
ATOM     20  C   UNL     1       0.627   3.015  19.342  0.00  0.00    +0.000 C 
ATOM     21  C   UNL     1       1.470   1.872  18.786  0.00  0.00    +0.000 C 
ATOM     22  C   UNL     1       2.959   2.195  18.782  0.00  0.00    +0.000 C 
ATOM     23  C   UNL     1       3.459   2.694  20.138  0.00  0.00    +0.000 C 
ENDBRANCH  16  18
ENDBRANCH  15  16
ENDBRANCH  14  15
ENDBRANCH   1  14
TORSDOF 8
ENDMDL
