MODEL 1
REMARK VINA RESULT:      -7.7      0.000      0.000
REMARK  Name = 
REMARK  11 active torsions:
REMARK  status: ('A' for Active; 'I' for Inactive)
REMARK    1  A    between atoms: C_1  and  O_2
REMARK    2  A    between atoms: O_2  and  C_3
REMARK    3  A    between atoms: C_7  and  N_8
REMARK    4  A    between atoms: C_9  and  C_11
REMARK    5  A    between atoms: C_11  and  N_12
REMARK    6  A    between atoms: N_12  and  C_13
REMARK    7  A    between atoms: N_12  and  C_14
REMARK    8  A    between atoms: C_14  and  C_15
REMARK    9  A    between atoms: N_17  and  C_18
REMARK   10  A    between atoms: C_21  and  C_22
REMARK   11  A    between atoms: C_23  and  N_24
REMARK                            x       y       z     vdW  Elec       q    Type
REMARK                         _______ _______ _______ _____ _____    ______ ____
ROOT
ATOM      1  N   UNL     1       2.139   3.678  20.232  0.00  0.00    +0.000 NA
ATOM      2  C   UNL     1       1.892   3.058  21.527  0.00  0.00    +0.000 C 
ENDROOT
BRANCH   1   3
ATOM      3  C   UNL     1       2.593   2.717  19.209  0.00  0.00    +0.000 C 
BRANCH   3   5
ATOM      4  N   UNL     1       3.912   3.695  17.398  0.00  0.00    +0.000 N 
ATOM      5  C   UNL     1       3.974   3.054  18.629  0.00  0.00    +0.000 C 
ATOM      6  O   UNL     1       4.995   2.726  19.234  0.00  0.00    +0.000 OA
ATOM      7  H   UNL     1       2.991   3.838  16.998  0.00  0.00    +0.000 HD
BRANCH   4  12
ATOM      8  C   UNL     1       6.873   5.603  16.241  0.00  0.00    +0.000 A 
ATOM      9  C   UNL     1       7.134   4.989  15.014  0.00  0.00    +0.000 A 
ATOM     10  C   UNL     1       6.356   3.920  14.582  0.00  0.00    +0.000 A 
ATOM     11  C   UNL     1       5.296   3.468  15.366  0.00  0.00    +0.000 A 
ATOM     12  C   UNL     1       5.005   4.079  16.586  0.00  0.00    +0.000 A 
ATOM     13  C   UNL     1       5.816   5.137  17.032  0.00  0.00    +0.000 A 
BRANCH   8  15
ATOM     14  C   UNL     1       7.308   7.538  17.564  0.00  0.00    +0.000 C 
ATOM     15  O   UNL     1       7.706   6.650  16.531  0.00  0.00    +0.000 OA
ENDBRANCH   8  15
ENDBRANCH   4  12
ENDBRANCH   3   5
ENDBRANCH   1   3
BRANCH   1  16
ATOM     16  C   UNL     1       3.004   4.870  20.371  0.00  0.00    +0.000 C 
BRANCH  16  17
ATOM     17  C   UNL     1       2.399   6.074  19.637  0.00  0.00    +0.000 C 
ATOM     18  O   UNL     1       2.152   6.003  18.433  0.00  0.00    +0.000 OA
ATOM     19  N   UNL     1       2.212   7.198  20.433  0.00  0.00    +0.000 N 
ATOM     20  H   UNL     1       2.660   7.192  21.348  0.00  0.00    +0.000 HD
BRANCH  19  21
ATOM     21  C   UNL     1       1.602   8.407  20.013  0.00  0.00    +0.000 A 
ATOM     22  C   UNL     1       1.743   8.913  18.721  0.00  0.00    +0.000 A 
ATOM     23  C   UNL     1       1.151  10.121  18.344  0.00  0.00    +0.000 A 
ATOM     24  C   UNL     1       0.383  10.871  19.245  0.00  0.00    +0.000 A 
ATOM     25  C   UNL     1      -0.204  12.157  18.731  0.00  0.00    +0.000 C 
ATOM     26  C   UNL     1       0.224  10.360  20.552  0.00  0.00    +0.000 A 
ATOM     27  C   UNL     1       0.819   9.126  20.923  0.00  0.00    +0.000 A 
BRANCH  26  28
ATOM     28  N   UNL     1      -0.546  11.079  21.593  0.00  0.00    +0.000 N 
ATOM     29  O   UNL     1      -0.043  11.231  22.714  0.00  0.00    +0.000 OA
ATOM     30  O   UNL     1      -1.674  11.490  21.287  0.00  0.00    +0.000 OA
ENDBRANCH  26  28
ENDBRANCH  19  21
ENDBRANCH  16  17
ENDBRANCH   1  16
TORSDOF 8
ENDMDL
MODEL 2
REMARK VINA RESULT:      -7.3      0.983      1.014
REMARK  Name = 
REMARK  11 active torsions:
REMARK  status: ('A' for Active; 'I' for Inactive)
REMARK    1  A    between atoms: C_1  and  O_2
REMARK    2  A    between atoms: O_2  and  C_3
REMARK    3  A    between atoms: C_7  and  N_8
REMARK    4  A    between atoms: C_9  and  C_11
REMARK    5  A    between atoms: C_11  and  N_12
REMARK    6  A    between atoms: N_12  and  C_13
REMARK    7  A    between atoms: N_12  and  C_14
REMARK    8  A    between atoms: C_14  and  C_15
REMARK    9  A    between atoms: N_17  and  C_18
REMARK   10  A    between atoms: C_21  and  C_22
REMARK   11  A    between atoms: C_23  and  N_24
REMARK                            x       y       z     vdW  Elec       q    Type
REMARK                         _______ _______ _______ _____ _____    ______ ____
ROOT
ATOM      1  N   UNL     1       1.822   3.598  19.728  0.00  0.00    +0.000 NA
ATOM      2  C   UNL     1       1.326   2.643  20.712  0.00  0.00    +0.000 C 
ENDROOT
BRANCH   1   3
ATOM      3  C   UNL     1       1.865   3.047  18.360  0.00  0.00    +0.000 C 
BRANCH   3   5
ATOM      4  N   UNL     1       3.609   4.099  17.009  0.00  0.00    +0.000 N 
ATOM      5  C   UNL     1       3.282   2.986  17.773  0.00  0.00    +0.000 C 
ATOM      6  O   UNL     1       3.991   1.999  17.972  0.00  0.00    +0.000 OA
ATOM      7  H   UNL     1       2.889   4.802  16.886  0.00  0.00    +0.000 HD
BRANCH   4  12
ATOM      8  C   UNL     1       6.900   5.547  16.103  0.00  0.00    +0.000 A 
ATOM      9  C   UNL     1       7.171   4.885  14.904  0.00  0.00    +0.000 A 
ATOM     10  C   UNL     1       6.287   3.931  14.410  0.00  0.00    +0.000 A 
ATOM     11  C   UNL     1       5.111   3.646  15.102  0.00  0.00    +0.000 A 
ATOM     12  C   UNL     1       4.810   4.311  16.293  0.00  0.00    +0.000 A 
ATOM     13  C   UNL     1       5.725   5.249  16.803  0.00  0.00    +0.000 A 
BRANCH   8  15
ATOM     14  C   UNL     1       7.477   7.455  17.410  0.00  0.00    +0.000 C 
ATOM     15  O   UNL     1       7.848   6.468  16.460  0.00  0.00    +0.000 OA
ENDBRANCH   8  15
ENDBRANCH   4  12
ENDBRANCH   3   5
ENDBRANCH   1   3
BRANCH   1  16
ATOM     16  C   UNL     1       3.092   4.209  20.175  0.00  0.00    +0.000 C 
BRANCH  16  17
ATOM     17  C   UNL     1       3.154   5.691  19.785  0.00  0.00    +0.000 C 
ATOM     18  O   UNL     1       4.211   6.182  19.389  0.00  0.00    +0.000 OA
ATOM     19  N   UNL     1       1.960   6.382  19.960  0.00  0.00    +0.000 N 
ATOM     20  H   UNL     1       1.234   5.914  20.499  0.00  0.00    +0.000 HD
BRANCH  19  21
ATOM     21  C   UNL     1       1.738   7.737  19.603  0.00  0.00    +0.000 A 
ATOM     22  C   UNL     1       2.023   8.238  18.333  0.00  0.00    +0.000 A 
ATOM     23  C   UNL     1       1.818   9.583  18.018  0.00  0.00    +0.000 A 
ATOM     24  C   UNL     1       1.308  10.484  18.963  0.00  0.00    +0.000 A 
ATOM     25  C   UNL     1       1.130  11.910  18.515  0.00  0.00    +0.000 C 
ATOM     26  C   UNL     1       1.004   9.983  20.248  0.00  0.00    +0.000 A 
ATOM     27  C   UNL     1       1.205   8.612  20.554  0.00  0.00    +0.000 A 
BRANCH  26  28
ATOM     28  N   UNL     1       0.483  10.849  21.330  0.00  0.00    +0.000 N 
ATOM     29  O   UNL     1       1.110  11.872  21.634  0.00  0.00    +0.000 OA
ATOM     30  O   UNL     1      -0.564  10.496  21.891  0.00  0.00    +0.000 OA
ENDBRANCH  26  28
ENDBRANCH  19  21
ENDBRANCH  16  17
ENDBRANCH   1  16
TORSDOF 8
ENDMDL
MODEL 3
REMARK VINA RESULT:      -7.2      1.172      1.958
REMARK  Name = 
REMARK  11 active torsions:
REMARK  status: ('A' for Active; 'I' for Inactive)
REMARK    1  A    between atoms: C_1  and  O_2
REMARK    2  A    between atoms: O_2  and  C_3
REMARK    3  A    between atoms: C_7  and  N_8
REMARK    4  A    between atoms: C_9  and  C_11
REMARK    5  A    between atoms: C_11  and  N_12
REMARK    6  A    between atoms: N_12  and  C_13
REMARK    7  A    between atoms: N_12  and  C_14
REMARK    8  A    between atoms: C_14  and  C_15
REMARK    9  A    between atoms: N_17  and  C_18
REMARK   10  A    between atoms: C_21  and  C_22
REMARK   11  A    between atoms: C_23  and  N_24
REMARK                            x       y       z     vdW  Elec       q    Type
REMARK                         _______ _______ _______ _____ _____    ______ ____
ROOT
ATOM      1  N   UNL     1       1.948   3.742  20.186  0.00  0.00    +0.000 NA
ATOM      2  C   UNL     1       0.633   3.116  20.166  0.00  0.00    +0.000 C 
ENDROOT
BRANCH   1   3
ATOM      3  C   UNL     1       3.035   2.791  20.489  0.00  0.00    +0.000 C 
BRANCH   3   5
ATOM      4  N   UNL     1       4.416   4.427  19.309  0.00  0.00    +0.000 N 
ATOM      5  C   UNL     1       4.346   3.114  19.758  0.00  0.00    +0.000 C 
ATOM      6  O   UNL     1       5.193   2.236  19.591  0.00  0.00    +0.000 OA
ATOM      7  H   UNL     1       3.604   5.013  19.468  0.00  0.00    +0.000 HD
BRANCH   4  12
ATOM      8  C   UNL     1       6.383   5.497  16.354  0.00  0.00    +0.000 A 
ATOM      9  C   UNL     1       7.515   6.044  16.960  0.00  0.00    +0.000 A 
ATOM     10  C   UNL     1       7.617   6.095  18.347  0.00  0.00    +0.000 A 
ATOM     11  C   UNL     1       6.593   5.580  19.140  0.00  0.00    +0.000 A 
ATOM     12  C   UNL     1       5.461   5.010  18.555  0.00  0.00    +0.000 A 
ATOM     13  C   UNL     1       5.350   4.993  17.153  0.00  0.00    +0.000 A 
BRANCH   8  15
ATOM     14  C   UNL     1       6.184   4.268  14.321  0.00  0.00    +0.000 C 
ATOM     15  O   UNL     1       6.426   5.499  14.986  0.00  0.00    +0.000 OA
ENDBRANCH   8  15
ENDBRANCH   4  12
ENDBRANCH   3   5
ENDBRANCH   1   3
BRANCH   1  16
ATOM     16  C   UNL     1       1.947   4.951  21.037  0.00  0.00    +0.000 C 
BRANCH  16  17
ATOM     17  C   UNL     1       1.837   6.221  20.183  0.00  0.00    +0.000 C 
ATOM     18  O   UNL     1       2.086   6.179  18.978  0.00  0.00    +0.000 OA
ATOM     19  N   UNL     1       1.485   7.364  20.894  0.00  0.00    +0.000 N 
ATOM     20  H   UNL     1       1.526   7.302  21.910  0.00  0.00    +0.000 HD
BRANCH  19  21
ATOM     21  C   UNL     1       1.246   8.640  20.326  0.00  0.00    +0.000 A 
ATOM     22  C   UNL     1       1.660   8.982  19.039  0.00  0.00    +0.000 A 
ATOM     23  C   UNL     1       1.432  10.257  18.516  0.00  0.00    +0.000 A 
ATOM     24  C   UNL     1       0.771  11.244  19.259  0.00  0.00    +0.000 A 
ATOM     25  C   UNL     1       0.583  12.582  18.596  0.00  0.00    +0.000 C 
ATOM     26  C   UNL     1       0.336  10.903  20.558  0.00  0.00    +0.000 A 
ATOM     27  C   UNL     1       0.561   9.602  21.077  0.00  0.00    +0.000 A 
BRANCH  26  28
ATOM     28  N   UNL     1      -0.352  11.873  21.441  0.00  0.00    +0.000 N 
ATOM     29  O   UNL     1      -1.586  11.830  21.533  0.00  0.00    +0.000 OA
ATOM     30  O   UNL     1       0.351  12.695  22.046  0.00  0.00    +0.000 OA
ENDBRANCH  26  28
ENDBRANCH  19  21
ENDBRANCH  16  17
ENDBRANCH   1  16
TORSDOF 8
ENDMDL
MODEL 4
REMARK VINA RESULT:      -7.2      2.298      3.289
REMARK  Name = 
REMARK  11 active torsions:
REMARK  status: ('A' for Active; 'I' for Inactive)
REMARK    1  A    between atoms: C_1  and  O_2
REMARK    2  A    between atoms: O_2  and  C_3
REMARK    3  A    between atoms: C_7  and  N_8
REMARK    4  A    between atoms: C_9  and  C_11
REMARK    5  A    between atoms: C_11  and  N_12
REMARK    6  A    between atoms: N_12  and  C_13
REMARK    7  A    between atoms: N_12  and  C_14
REMARK    8  A    between atoms: C_14  and  C_15
REMARK    9  A    between atoms: N_17  and  C_18
REMARK   10  A    between atoms: C_21  and  C_22
REMARK   11  A    between atoms: C_23  and  N_24
REMARK                            x       y       z     vdW  Elec       q    Type
REMARK                         _______ _______ _______ _____ _____    ______ ____
ROOT
ATOM      1  N   UNL     1       3.398   3.233  19.271  0.00  0.00    +0.000 NA
ATOM      2  C   UNL     1       3.261   1.791  19.107  0.00  0.00    +0.000 C 
ENDROOT
BRANCH   1   3
ATOM      3  C   UNL     1       4.731   3.733  18.883  0.00  0.00    +0.000 C 
BRANCH   3   5
ATOM      4  N   UNL     1       5.932   3.773  16.754  0.00  0.00    +0.000 N 
ATOM      5  C   UNL     1       4.799   4.215  17.426  0.00  0.00    +0.000 C 
ATOM      6  O   UNL     1       3.919   4.948  16.977  0.00  0.00    +0.000 OA
ATOM      7  H   UNL     1       6.600   3.226  17.285  0.00  0.00    +0.000 HD
BRANCH   4  12
ATOM      8  C   UNL     1       6.082   3.610  13.052  0.00  0.00    +0.000 A 
ATOM      9  C   UNL     1       7.052   4.574  12.774  0.00  0.00    +0.000 A 
ATOM     10  C   UNL     1       7.634   5.307  13.803  0.00  0.00    +0.000 A 
ATOM     11  C   UNL     1       7.263   5.067  15.125  0.00  0.00    +0.000 A 
ATOM     12  C   UNL     1       6.309   4.094  15.429  0.00  0.00    +0.000 A 
ATOM     13  C   UNL     1       5.701   3.381  14.380  0.00  0.00    +0.000 A 
BRANCH   8  15
ATOM     14  C   UNL     1       4.290   3.262  11.519  0.00  0.00    +0.000 C 
ATOM     15  O   UNL     1       5.609   2.957  11.947  0.00  0.00    +0.000 OA
ENDBRANCH   8  15
ENDBRANCH   4  12
ENDBRANCH   3   5
ENDBRANCH   1   3
BRANCH   1  16
ATOM     16  C   UNL     1       2.960   3.658  20.618  0.00  0.00    +0.000 C 
BRANCH  16  17
ATOM     17  C   UNL     1       1.922   4.783  20.526  0.00  0.00    +0.000 C 
ATOM     18  O   UNL     1       0.726   4.513  20.413  0.00  0.00    +0.000 OA
ATOM     19  N   UNL     1       2.460   6.066  20.543  0.00  0.00    +0.000 N 
ATOM     20  H   UNL     1       3.467   6.141  20.416  0.00  0.00    +0.000 HD
BRANCH  19  21
ATOM     21  C   UNL     1       1.709   7.269  20.547  0.00  0.00    +0.000 A 
ATOM     22  C   UNL     1       0.732   7.544  21.503  0.00  0.00    +0.000 A 
ATOM     23  C   UNL     1      -0.009   8.728  21.466  0.00  0.00    +0.000 A 
ATOM     24  C   UNL     1       0.204   9.692  20.471  0.00  0.00    +0.000 A 
ATOM     25  C   UNL     1      -0.654  10.927  20.528  0.00  0.00    +0.000 C 
ATOM     26  C   UNL     1       1.200   9.427  19.506  0.00  0.00    +0.000 A 
ATOM     27  C   UNL     1       1.956   8.227  19.559  0.00  0.00    +0.000 A 
BRANCH  26  28
ATOM     28  N   UNL     1       1.494  10.363  18.397  0.00  0.00    +0.000 N 
ATOM     29  O   UNL     1       1.232  11.565  18.540  0.00  0.00    +0.000 OA
ATOM     30  O   UNL     1       1.987   9.889  17.364  0.00  0.00    +0.000 OA
ENDBRANCH  26  28
ENDBRANCH  19  21
ENDBRANCH  16  17
ENDBRANCH   1  16
TORSDOF 8
ENDMDL
MODEL 5
REMARK VINA RESULT:      -7.2      1.641      1.926
REMARK  Name = 
REMARK  11 active torsions:
REMARK  status: ('A' for Active; 'I' for Inactive)
REMARK    1  A    between atoms: C_1  and  O_2
REMARK    2  A    between atoms: O_2  and  C_3
REMARK    3  A    between atoms: C_7  and  N_8
REMARK    4  A    between atoms: C_9  and  C_11
REMARK    5  A    between atoms: C_11  and  N_12
REMARK    6  A    between atoms: N_12  and  C_13
REMARK    7  A    between atoms: N_12  and  C_14
REMARK    8  A    between atoms: C_14  and  C_15
REMARK    9  A    between atoms: N_17  and  C_18
REMARK   10  A    between atoms: C_21  and  C_22
REMARK   11  A    between atoms: C_23  and  N_24
REMARK                            x       y       z     vdW  Elec       q    Type
REMARK                         _______ _______ _______ _____ _____    ______ ____
ROOT
ATOM      1  N   UNL     1       1.373   4.252  20.178  0.00  0.00    +0.000 NA
ATOM      2  C   UNL     1       1.260   3.092  21.052  0.00  0.00    +0.000 C 
ENDROOT
BRANCH   1   3
ATOM      3  C   UNL     1       1.462   3.892  18.750  0.00  0.00    +0.000 C 
BRANCH   3   5
ATOM      4  N   UNL     1       3.401   4.726  17.517  0.00  0.00    +0.000 N 
ATOM      5  C   UNL     1       2.903   3.669  18.268  0.00  0.00    +0.000 C 
ATOM      6  O   UNL     1       3.485   2.616  18.530  0.00  0.00    +0.000 OA
ATOM      7  H   UNL     1       2.771   5.499  17.334  0.00  0.00    +0.000 HD
BRANCH   4  12
ATOM      8  C   UNL     1       6.889   5.788  16.842  0.00  0.00    +0.000 A 
ATOM      9  C   UNL     1       7.168   5.087  15.668  0.00  0.00    +0.000 A 
ATOM     10  C   UNL     1       6.219   4.233  15.115  0.00  0.00    +0.000 A 
ATOM     11  C   UNL     1       4.974   4.088  15.723  0.00  0.00    +0.000 A 
ATOM     12  C   UNL     1       4.666   4.795  16.887  0.00  0.00    +0.000 A 
ATOM     13  C   UNL     1       5.642   5.630  17.458  0.00  0.00    +0.000 A 
BRANCH   8  15
ATOM     14  C   UNL     1       7.597   7.964  17.509  0.00  0.00    +0.000 C 
ATOM     15  O   UNL     1       7.907   6.601  17.263  0.00  0.00    +0.000 OA
ENDBRANCH   8  15
ENDBRANCH   4  12
ENDBRANCH   3   5
ENDBRANCH   1   3
BRANCH   1  16
ATOM     16  C   UNL     1       2.441   5.164  20.641  0.00  0.00    +0.000 C 
BRANCH  16  17
ATOM     17  C   UNL     1       2.122   6.617  20.268  0.00  0.00    +0.000 C 
ATOM     18  O   UNL     1       2.598   7.112  19.246  0.00  0.00    +0.000 OA
ATOM     19  N   UNL     1       1.313   7.282  21.184  0.00  0.00    +0.000 N 
ATOM     20  H   UNL     1       1.175   6.829  22.086  0.00  0.00    +0.000 HD
BRANCH  19  21
ATOM     21  C   UNL     1       0.815   8.600  21.031  0.00  0.00    +0.000 A 
ATOM     22  C   UNL     1       1.081   9.617  21.948  0.00  0.00    +0.000 A 
ATOM     23  C   UNL     1       0.555  10.901  21.783  0.00  0.00    +0.000 A 
ATOM     24  C   UNL     1      -0.255  11.223  20.686  0.00  0.00    +0.000 A 
ATOM     25  C   UNL     1      -0.769  12.636  20.612  0.00  0.00    +0.000 C 
ATOM     26  C   UNL     1      -0.520  10.203  19.746  0.00  0.00    +0.000 A 
ATOM     27  C   UNL     1       0.029   8.905  19.915  0.00  0.00    +0.000 A 
BRANCH  26  28
ATOM     28  N   UNL     1      -1.381  10.424  18.562  0.00  0.00    +0.000 N 
ATOM     29  O   UNL     1      -2.487  10.958  18.715  0.00  0.00    +0.000 OA
ATOM     30  O   UNL     1      -0.948  10.051  17.462  0.00  0.00    +0.000 OA
ENDBRANCH  26  28
ENDBRANCH  19  21
ENDBRANCH  16  17
ENDBRANCH   1  16
TORSDOF 8
ENDMDL
MODEL 6
REMARK VINA RESULT:      -7.2      3.105      5.007
REMARK  Name = 
REMARK  11 active torsions:
REMARK  status: ('A' for Active; 'I' for Inactive)
REMARK    1  A    between atoms: C_1  and  O_2
REMARK    2  A    between atoms: O_2  and  C_3
REMARK    3  A    between atoms: C_7  and  N_8
REMARK    4  A    between atoms: C_9  and  C_11
REMARK    5  A    between atoms: C_11  and  N_12
REMARK    6  A    between atoms: N_12  and  C_13
REMARK    7  A    between atoms: N_12  and  C_14
REMARK    8  A    between atoms: C_14  and  C_15
REMARK    9  A    between atoms: N_17  and  C_18
REMARK   10  A    between atoms: C_21  and  C_22
REMARK   11  A    between atoms: C_23  and  N_24
REMARK                            x       y       z     vdW  Elec       q    Type
REMARK                         _______ _______ _______ _____ _____    ______ ____
ROOT
ATOM      1  N   UNL     1       5.637   6.176  16.765  0.00  0.00    +0.000 NA
ATOM      2  C   UNL     1       5.185   5.889  15.410  0.00  0.00    +0.000 C 
ENDROOT
BRANCH   1   3
ATOM      3  C   UNL     1       7.098   6.042  16.927  0.00  0.00    +0.000 C 
BRANCH   3   5
ATOM      4  N   UNL     1       7.782   8.339  17.406  0.00  0.00    +0.000 N 
ATOM      5  C   UNL     1       7.694   7.051  17.919  0.00  0.00    +0.000 C 
ATOM      6  O   UNL     1       8.069   6.676  19.030  0.00  0.00    +0.000 OA
ATOM      7  H   UNL     1       7.490   8.474  16.445  0.00  0.00    +0.000 HD
BRANCH   4  12
ATOM      8  C   UNL     1       8.731  11.873  18.004  0.00  0.00    +0.000 A 
ATOM      9  C   UNL     1       9.479  11.762  19.178  0.00  0.00    +0.000 A 
ATOM     10  C   UNL     1       9.642  10.527  19.796  0.00  0.00    +0.000 A 
ATOM     11  C   UNL     1       9.073   9.386  19.233  0.00  0.00    +0.000 A 
ATOM     12  C   UNL     1       8.338   9.470  18.049  0.00  0.00    +0.000 A 
ATOM     13  C   UNL     1       8.149  10.727  17.449  0.00  0.00    +0.000 A 
BRANCH   8  15
ATOM     14  C   UNL     1       7.474  13.878  17.722  0.00  0.00    +0.000 C 
ATOM     15  O   UNL     1       8.668  13.143  17.499  0.00  0.00    +0.000 OA
ENDBRANCH   8  15
ENDBRANCH   4  12
ENDBRANCH   3   5
ENDBRANCH   1   3
BRANCH   1  16
ATOM     16  C   UNL     1       4.845   5.420  17.760  0.00  0.00    +0.000 C 
BRANCH  16  17
ATOM     17  C   UNL     1       3.468   6.062  17.966  0.00  0.00    +0.000 C 
ATOM     18  O   UNL     1       2.444   5.401  17.785  0.00  0.00    +0.000 OA
ATOM     19  N   UNL     1       3.506   7.407  18.319  0.00  0.00    +0.000 N 
ATOM     20  H   UNL     1       4.402   7.881  18.217  0.00  0.00    +0.000 HD
BRANCH  19  21
ATOM     21  C   UNL     1       2.377   8.203  18.638  0.00  0.00    +0.000 A 
ATOM     22  C   UNL     1       1.734   9.009  17.699  0.00  0.00    +0.000 A 
ATOM     23  C   UNL     1       0.639   9.802  18.050  0.00  0.00    +0.000 A 
ATOM     24  C   UNL     1       0.136   9.815  19.358  0.00  0.00    +0.000 A 
ATOM     25  C   UNL     1      -1.046  10.709  19.623  0.00  0.00    +0.000 C 
ATOM     26  C   UNL     1       0.772   8.992  20.313  0.00  0.00    +0.000 A 
ATOM     27  C   UNL     1       1.877   8.180  19.944  0.00  0.00    +0.000 A 
BRANCH  26  28
ATOM     28  N   UNL     1       0.341   8.944  21.728  0.00  0.00    +0.000 N 
ATOM     29  O   UNL     1      -0.614   8.220  22.040  0.00  0.00    +0.000 OA
ATOM     30  O   UNL     1       0.961   9.646  22.540  0.00  0.00    +0.000 OA
ENDBRANCH  26  28
ENDBRANCH  19  21
ENDBRANCH  16  17
ENDBRANCH   1  16
TORSDOF 8
ENDMDL
MODEL 7
REMARK VINA RESULT:      -7.2      1.482      1.862
REMARK  Name = 
REMARK  11 active torsions:
REMARK  status: ('A' for Active; 'I' for Inactive)
REMARK    1  A    between atoms: C_1  and  O_2
REMARK    2  A    between atoms: O_2  and  C_3
REMARK    3  A    between atoms: C_7  and  N_8
REMARK    4  A    between atoms: C_9  and  C_11
REMARK    5  A    between atoms: C_11  and  N_12
REMARK    6  A    between atoms: N_12  and  C_13
REMARK    7  A    between atoms: N_12  and  C_14
REMARK    8  A    between atoms: C_14  and  C_15
REMARK    9  A    between atoms: N_17  and  C_18
REMARK   10  A    between atoms: C_21  and  C_22
REMARK   11  A    between atoms: C_23  and  N_24
REMARK                            x       y       z     vdW  Elec       q    Type
REMARK                         _______ _______ _______ _____ _____    ______ ____
ROOT
ATOM      1  N   UNL     1       3.047   2.135  20.167  0.00  0.00    +0.000 NA
ATOM      2  C   UNL     1       4.463   2.383  19.930  0.00  0.00    +0.000 C 
ENDROOT
BRANCH   1   3
ATOM      3  C   UNL     1       2.248   2.122  18.926  0.00  0.00    +0.000 C 
BRANCH   3   5
ATOM      4  N   UNL     1       4.202   2.986  17.738  0.00  0.00    +0.000 N 
ATOM      5  C   UNL     1       2.817   3.032  17.827  0.00  0.00    +0.000 C 
ATOM      6  O   UNL     1       2.061   3.732  17.153  0.00  0.00    +0.000 OA
ATOM      7  H   UNL     1       4.689   2.405  18.412  0.00  0.00    +0.000 HD
BRANCH   4  12
ATOM      8  C   UNL     1       6.784   5.414  16.648  0.00  0.00    +0.000 A 
ATOM      9  C   UNL     1       6.628   5.377  15.262  0.00  0.00    +0.000 A 
ATOM     10  C   UNL     1       5.696   4.524  14.679  0.00  0.00    +0.000 A 
ATOM     11  C   UNL     1       4.897   3.713  15.483  0.00  0.00    +0.000 A 
ATOM     12  C   UNL     1       5.021   3.748  16.873  0.00  0.00    +0.000 A 
ATOM     13  C   UNL     1       5.989   4.588  17.452  0.00  0.00    +0.000 A 
BRANCH   8  15
ATOM     14  C   UNL     1       7.902   6.445  18.483  0.00  0.00    +0.000 C 
ATOM     15  O   UNL     1       7.724   6.309  17.082  0.00  0.00    +0.000 OA
ENDBRANCH   8  15
ENDBRANCH   4  12
ENDBRANCH   3   5
ENDBRANCH   1   3
BRANCH   1  16
ATOM     16  C   UNL     1       2.520   3.033  21.217  0.00  0.00    +0.000 C 
BRANCH  16  17
ATOM     17  C   UNL     1       1.832   4.256  20.598  0.00  0.00    +0.000 C 
ATOM     18  O   UNL     1       0.630   4.223  20.336  0.00  0.00    +0.000 OA
ATOM     19  N   UNL     1       2.682   5.328  20.347  0.00  0.00    +0.000 N 
ATOM     20  H   UNL     1       3.682   5.143  20.405  0.00  0.00    +0.000 HD
BRANCH  19  21
ATOM     21  C   UNL     1       2.279   6.594  19.852  0.00  0.00    +0.000 A 
ATOM     22  C   UNL     1       2.497   6.992  18.533  0.00  0.00    +0.000 A 
ATOM     23  C   UNL     1       2.112   8.256  18.081  0.00  0.00    +0.000 A 
ATOM     24  C   UNL     1       1.483   9.175  18.932  0.00  0.00    +0.000 A 
ATOM     25  C   UNL     1       1.114  10.508  18.338  0.00  0.00    +0.000 C 
ATOM     26  C   UNL     1       1.246   8.777  20.266  0.00  0.00    +0.000 A 
ATOM     27  C   UNL     1       1.630   7.486  20.712  0.00  0.00    +0.000 A 
BRANCH  26  28
ATOM     28  N   UNL     1       0.610   9.674  21.257  0.00  0.00    +0.000 N 
ATOM     29  O   UNL     1       1.293  10.556  21.794  0.00  0.00    +0.000 OA
ATOM     30  O   UNL     1      -0.589   9.488  21.510  0.00  0.00    +0.000 OA
ENDBRANCH  26  28
ENDBRANCH  19  21
ENDBRANCH  16  17
ENDBRANCH   1  16
TORSDOF 8
ENDMDL
MODEL 8
REMARK VINA RESULT:      -7.2      2.650      8.384
REMARK  Name = 
REMARK  11 active torsions:
REMARK  status: ('A' for Active; 'I' for Inactive)
REMARK    1  A    between atoms: C_1  and  O_2
REMARK    2  A    between atoms: O_2  and  C_3
REMARK    3  A    between atoms: C_7  and  N_8
REMARK    4  A    between atoms: C_9  and  C_11
REMARK    5  A    between atoms: C_11  and  N_12
REMARK    6  A    between atoms: N_12  and  C_13
REMARK    7  A    between atoms: N_12  and  C_14
REMARK    8  A    between atoms: C_14  and  C_15
REMARK    9  A    between atoms: N_17  and  C_18
REMARK   10  A    between atoms: C_21  and  C_22
REMARK   11  A    between atoms: C_23  and  N_24
REMARK                            x       y       z     vdW  Elec       q    Type
REMARK                         _______ _______ _______ _____ _____    ______ ____
ROOT
ATOM      1  N   UNL     1       4.241   3.294  19.223  0.00  0.00    +0.000 NA
ATOM      2  C   UNL     1       3.525   3.079  17.972  0.00  0.00    +0.000 C 
ENDROOT
BRANCH   1   3
ATOM      3  C   UNL     1       3.351   3.659  20.342  0.00  0.00    +0.000 C 
BRANCH   3   5
ATOM      4  N   UNL     1       2.972   6.014  19.806  0.00  0.00    +0.000 N 
ATOM      5  C   UNL     1       2.362   4.780  19.991  0.00  0.00    +0.000 C 
ATOM      6  O   UNL     1       1.155   4.542  19.933  0.00  0.00    +0.000 OA
ATOM      7  H   UNL     1       3.974   6.060  19.954  0.00  0.00    +0.000 HD
BRANCH   4  12
ATOM      8  C   UNL     1       0.969   9.082  20.373  0.00  0.00    +0.000 A 
ATOM      9  C   UNL     1       0.940   9.633  19.091  0.00  0.00    +0.000 A 
ATOM     10  C   UNL     1       1.613   9.013  18.042  0.00  0.00    +0.000 A 
ATOM     11  C   UNL     1       2.305   7.824  18.264  0.00  0.00    +0.000 A 
ATOM     12  C   UNL     1       2.330   7.244  19.534  0.00  0.00    +0.000 A 
ATOM     13  C   UNL     1       1.676   7.894  20.596  0.00  0.00    +0.000 A 
BRANCH   8  15
ATOM     14  C   UNL     1       0.305  11.205  21.230  0.00  0.00    +0.000 C 
ATOM     15  O   UNL     1       0.252   9.788  21.301  0.00  0.00    +0.000 OA
ENDBRANCH   8  15
ENDBRANCH   4  12
ENDBRANCH   3   5
ENDBRANCH   1   3
BRANCH   1  16
ATOM     16  C   UNL     1       5.381   4.216  19.030  0.00  0.00    +0.000 C 
BRANCH  16  17
ATOM     17  C   UNL     1       5.462   4.689  17.573  0.00  0.00    +0.000 C 
ATOM     18  O   UNL     1       4.830   5.681  17.209  0.00  0.00    +0.000 OA
ATOM     19  N   UNL     1       6.253   3.892  16.752  0.00  0.00    +0.000 N 
ATOM     20  H   UNL     1       6.535   2.988  17.126  0.00  0.00    +0.000 HD
BRANCH  19  21
ATOM     21  C   UNL     1       6.548   4.158  15.391  0.00  0.00    +0.000 A 
ATOM     22  C   UNL     1       7.502   5.096  14.996  0.00  0.00    +0.000 A 
ATOM     23  C   UNL     1       7.753   5.354  13.646  0.00  0.00    +0.000 A 
ATOM     24  C   UNL     1       7.063   4.675  12.632  0.00  0.00    +0.000 A 
ATOM     25  C   UNL     1       7.413   5.036  11.213  0.00  0.00    +0.000 C 
ATOM     26  C   UNL     1       6.105   3.714  13.022  0.00  0.00    +0.000 A 
ATOM     27  C   UNL     1       5.865   3.450  14.396  0.00  0.00    +0.000 A 
BRANCH  26  28
ATOM     28  N   UNL     1       5.301   2.955  12.038  0.00  0.00    +0.000 N 
ATOM     29  O   UNL     1       5.741   1.882  11.604  0.00  0.00    +0.000 OA
ATOM     30  O   UNL     1       4.217   3.442  11.686  0.00  0.00    +0.000 OA
ENDBRANCH  26  28
ENDBRANCH  19  21
ENDBRANCH  16  17
ENDBRANCH   1  16
TORSDOF 8
ENDMDL
MODEL 9
REMARK VINA RESULT:      -7.2      1.461      2.075
REMARK  Name = 
REMARK  11 active torsions:
REMARK  status: ('A' for Active; 'I' for Inactive)
REMARK    1  A    between atoms: C_1  and  O_2
REMARK    2  A    between atoms: O_2  and  C_3
REMARK    3  A    between atoms: C_7  and  N_8
REMARK    4  A    between atoms: C_9  and  C_11
REMARK    5  A    between atoms: C_11  and  N_12
REMARK    6  A    between atoms: N_12  and  C_13
REMARK    7  A    between atoms: N_12  and  C_14
REMARK    8  A    between atoms: C_14  and  C_15
REMARK    9  A    between atoms: N_17  and  C_18
REMARK   10  A    between atoms: C_21  and  C_22
REMARK   11  A    between atoms: C_23  and  N_24
REMARK                            x       y       z     vdW  Elec       q    Type
REMARK                         _______ _______ _______ _____ _____    ______ ____
ROOT
ATOM      1  N   UNL     1       2.007   4.047  20.196  0.00  0.00    +0.000 NA
ATOM      2  C   UNL     1       0.812   3.225  20.335  0.00  0.00    +0.000 C 
ENDROOT
BRANCH   1   3
ATOM      3  C   UNL     1       3.256   3.261  20.231  0.00  0.00    +0.000 C 
BRANCH   3   5
ATOM      4  N   UNL     1       3.756   4.258  18.056  0.00  0.00    +0.000 N 
ATOM      5  C   UNL     1       4.308   3.746  19.224  0.00  0.00    +0.000 C 
ATOM      6  O   UNL     1       5.507   3.628  19.478  0.00  0.00    +0.000 OA
ATOM      7  H   UNL     1       2.746   4.226  17.971  0.00  0.00    +0.000 HD
BRANCH   4  12
ATOM      8  C   UNL     1       5.764   4.174  14.940  0.00  0.00    +0.000 A 
ATOM      9  C   UNL     1       5.954   5.535  14.699  0.00  0.00    +0.000 A 
ATOM     10  C   UNL     1       5.390   6.487  15.543  0.00  0.00    +0.000 A 
ATOM     11  C   UNL     1       4.645   6.082  16.649  0.00  0.00    +0.000 A 
ATOM     12  C   UNL     1       4.459   4.725  16.921  0.00  0.00    +0.000 A 
ATOM     13  C   UNL     1       5.004   3.771  16.045  0.00  0.00    +0.000 A 
BRANCH   8  15
ATOM     14  C   UNL     1       6.124   3.572  12.662  0.00  0.00    +0.000 C 
ATOM     15  O   UNL     1       6.388   3.354  14.040  0.00  0.00    +0.000 OA
ENDBRANCH   8  15
ENDBRANCH   4  12
ENDBRANCH   3   5
ENDBRANCH   1   3
BRANCH   1  16
ATOM     16  C   UNL     1       1.981   5.185  21.140  0.00  0.00    +0.000 C 
BRANCH  16  17
ATOM     17  C   UNL     1       2.101   6.519  20.393  0.00  0.00    +0.000 C 
ATOM     18  O   UNL     1       2.913   6.643  19.476  0.00  0.00    +0.000 OA
ATOM     19  N   UNL     1       1.264   7.523  20.869  0.00  0.00    +0.000 N 
ATOM     20  H   UNL     1       0.809   7.353  21.765  0.00  0.00    +0.000 HD
BRANCH  19  21
ATOM     21  C   UNL     1       1.131   8.816  20.303  0.00  0.00    +0.000 A 
ATOM     22  C   UNL     1       1.419   9.087  18.966  0.00  0.00    +0.000 A 
ATOM     23  C   UNL     1       1.303  10.377  18.443  0.00  0.00    +0.000 A 
ATOM     24  C   UNL     1       0.885  11.452  19.239  0.00  0.00    +0.000 A 
ATOM     25  C   UNL     1       0.799  12.798  18.571  0.00  0.00    +0.000 C 
ATOM     26  C   UNL     1       0.579  11.186  20.591  0.00  0.00    +0.000 A 
ATOM     27  C   UNL     1       0.688   9.869  21.110  0.00  0.00    +0.000 A 
BRANCH  26  28
ATOM     28  N   UNL     1       0.150  12.248  21.529  0.00  0.00    +0.000 N 
ATOM     29  O   UNL     1      -1.034  12.288  21.890  0.00  0.00    +0.000 OA
ATOM     30  O   UNL     1       1.007  13.061  21.903  0.00  0.00    +0.000 OA
ENDBRANCH  26  28
ENDBRANCH  19  21
ENDBRANCH  16  17
ENDBRANCH   1  16
TORSDOF 8
ENDMDL
