MODEL 1
REMARK VINA RESULT:      -8.0      0.000      0.000
REMARK  Name = 
REMARK  10 active torsions:
REMARK  status: ('A' for Active; 'I' for Inactive)
REMARK    1  A    between atoms: C_1  and  O_2
REMARK    2  A    between atoms: O_2  and  C_3
REMARK    3  A    between atoms: C_6  and  N_7
REMARK    4  A    between atoms: C_10  and  C_11
REMARK    5  A    between atoms: C_14  and  O_15
REMARK    6  A    between atoms: O_15  and  C_16
REMARK    7  A    between atoms: C_17  and  O_18
REMARK    8  A    between atoms: O_18  and  C_19
REMARK    9  A    between atoms: C_19  and  C_20
REMARK   10  A    between atoms: C_20  and  N_21
REMARK                            x       y       z     vdW  Elec       q    Type
REMARK                         _______ _______ _______ _____ _____    ______ ____
ROOT
ATOM      1  C   UNL     1       2.287   6.406  19.345  0.00  0.00    +0.000 A 
ATOM      2  C   UNL     1       1.956   5.642  20.467  0.00  0.00    +0.000 A 
ATOM      3  C   UNL     1       1.982   4.249  20.405  0.00  0.00    +0.000 A 
ATOM      4  C   UNL     1       2.343   3.576  19.230  0.00  0.00    +0.000 A 
ATOM      5  C   UNL     1       2.673   4.328  18.094  0.00  0.00    +0.000 A 
ATOM      6  C   UNL     1       2.598   5.734  18.156  0.00  0.00    +0.000 A 
ENDROOT
BRANCH   1  10
ATOM      7  N   UNL     1       0.707   9.638  19.216  0.00  0.00    +0.000 N 
ATOM      8  C   UNL     1       1.646   9.863  18.148  0.00  0.00    +0.000 C 
ATOM      9  C   UNL     1       2.359   8.536  17.981  0.00  0.00    +0.000 C 
ATOM     10  C   UNL     1       2.326   7.918  19.375  0.00  0.00    +0.000 C 
ATOM     11  C   UNL     1       1.117   8.567  20.030  0.00  0.00    +0.000 C 
ATOM     12  O   UNL     1       0.656   8.213  21.105  0.00  0.00    +0.000 OA
BRANCH   7  16
ATOM     13  C   UNL     1      -2.463  12.345  20.028  0.00  0.00    +0.000 A 
ATOM     14  C   UNL     1      -1.396  12.215  20.908  0.00  0.00    +0.000 A 
ATOM     15  C   UNL     1      -0.365  11.313  20.643  0.00  0.00    +0.000 A 
ATOM     16  C   UNL     1      -0.375  10.508  19.500  0.00  0.00    +0.000 A 
ATOM     17  C   UNL     1      -1.491  10.584  18.655  0.00  0.00    +0.000 A 
ATOM     18  C   UNL     1      -2.525  11.497  18.916  0.00  0.00    +0.000 A 
ATOM     19 CL   UNL     1      -3.844  11.570  17.801  0.00  0.00    +0.000 Cl
BRANCH  13  21
ATOM     20  C   UNL     1      -4.502  12.811  21.102  0.00  0.00    +0.000 C 
ATOM     21  O   UNL     1      -3.472  13.255  20.217  0.00  0.00    +0.000 OA
ENDBRANCH  13  21
ENDBRANCH   7  16
ENDBRANCH   1  10
BRANCH   4  22
ATOM     22  O   UNL     1       2.332   2.216  19.389  0.00  0.00    +0.000 OA
ATOM     23  C   UNL     1       3.519   1.489  19.111  0.00  0.00    +0.000 C 
ENDBRANCH   4  22
BRANCH   5  24
ATOM     24  O   UNL     1       3.057   3.682  16.945  0.00  0.00    +0.000 OA
BRANCH  24  25
ATOM     25  C   UNL     1       4.198   4.245  16.290  0.00  0.00    +0.000 C 
BRANCH  25  26
ATOM     26  C   UNL     1       5.473   3.963  17.098  0.00  0.00    +0.000 C 
BRANCH  26  27
ATOM     27  N   UNL     1       6.043   5.179  17.715  0.00  0.00    +0.000 NA
ATOM     28  C   UNL     1       7.413   4.961  18.210  0.00  0.00    +0.000 C 
ATOM     29  C   UNL     1       7.962   6.207  18.901  0.00  0.00    +0.000 C 
ATOM     30  C   UNL     1       7.933   7.406  17.967  0.00  0.00    +0.000 C 
ATOM     31  C   UNL     1       6.534   7.590  17.392  0.00  0.00    +0.000 C 
ATOM     32  C   UNL     1       6.010   6.298  16.758  0.00  0.00    +0.000 C 
ENDBRANCH  26  27
ENDBRANCH  25  26
ENDBRANCH  24  25
ENDBRANCH   5  24
TORSDOF 8
ENDMDL
MODEL 2
REMARK VINA RESULT:      -8.0      0.758      1.153
REMARK  Name = 
REMARK  10 active torsions:
REMARK  status: ('A' for Active; 'I' for Inactive)
REMARK    1  A    between atoms: C_1  and  O_2
REMARK    2  A    between atoms: O_2  and  C_3
REMARK    3  A    between atoms: C_6  and  N_7
REMARK    4  A    between atoms: C_10  and  C_11
REMARK    5  A    between atoms: C_14  and  O_15
REMARK    6  A    between atoms: O_15  and  C_16
REMARK    7  A    between atoms: C_17  and  O_18
REMARK    8  A    between atoms: O_18  and  C_19
REMARK    9  A    between atoms: C_19  and  C_20
REMARK   10  A    between atoms: C_20  and  N_21
REMARK                            x       y       z     vdW  Elec       q    Type
REMARK                         _______ _______ _______ _____ _____    ______ ____
ROOT
ATOM      1  C   UNL     1       2.131   6.747  19.369  0.00  0.00    +0.000 A 
ATOM      2  C   UNL     1       1.803   6.106  20.567  0.00  0.00    +0.000 A 
ATOM      3  C   UNL     1       1.822   4.714  20.651  0.00  0.00    +0.000 A 
ATOM      4  C   UNL     1       2.170   3.920  19.551  0.00  0.00    +0.000 A 
ATOM      5  C   UNL     1       2.497   4.547  18.341  0.00  0.00    +0.000 A 
ATOM      6  C   UNL     1       2.431   5.952  18.255  0.00  0.00    +0.000 A 
ENDROOT
BRANCH   1  10
ATOM      7  N   UNL     1       0.560   9.979  19.162  0.00  0.00    +0.000 N 
ATOM      8  C   UNL     1       1.322  10.080  17.945  0.00  0.00    +0.000 C 
ATOM      9  C   UNL     1       1.996   8.730  17.803  0.00  0.00    +0.000 C 
ATOM     10  C   UNL     1       2.179   8.253  19.241  0.00  0.00    +0.000 C 
ATOM     11  C   UNL     1       1.089   8.986  20.006  0.00  0.00    +0.000 C 
ATOM     12  O   UNL     1       0.800   8.749  21.170  0.00  0.00    +0.000 OA
BRANCH   7  16
ATOM     13  C   UNL     1      -2.438  12.811  20.175  0.00  0.00    +0.000 A 
ATOM     14  C   UNL     1      -1.232  12.774  20.864  0.00  0.00    +0.000 A 
ATOM     15  C   UNL     1      -0.257  11.832  20.536  0.00  0.00    +0.000 A 
ATOM     16  C   UNL     1      -0.461  10.892  19.521  0.00  0.00    +0.000 A 
ATOM     17  C   UNL     1      -1.709  10.880  18.882  0.00  0.00    +0.000 A 
ATOM     18  C   UNL     1      -2.688  11.833  19.205  0.00  0.00    +0.000 A 
ATOM     19 CL   UNL     1      -4.183  11.787  18.338  0.00  0.00    +0.000 Cl
BRANCH  13  21
ATOM     20  C   UNL     1      -3.988  13.661  21.725  0.00  0.00    +0.000 C 
ATOM     21  O   UNL     1      -3.405  13.752  20.424  0.00  0.00    +0.000 OA
ENDBRANCH  13  21
ENDBRANCH   7  16
ENDBRANCH   1  10
BRANCH   4  22
ATOM     22  O   UNL     1       2.153   2.584  19.851  0.00  0.00    +0.000 OA
ATOM     23  C   UNL     1       2.227   2.190  21.212  0.00  0.00    +0.000 C 
ENDBRANCH   4  22
BRANCH   5  24
ATOM     24  O   UNL     1       2.870   3.781  17.263  0.00  0.00    +0.000 OA
BRANCH  24  25
ATOM     25  C   UNL     1       4.278   3.555  17.143  0.00  0.00    +0.000 C 
BRANCH  25  26
ATOM     26  C   UNL     1       4.900   4.560  16.163  0.00  0.00    +0.000 C 
BRANCH  26  27
ATOM     27  N   UNL     1       6.145   5.169  16.677  0.00  0.00    +0.000 NA
ATOM     28  C   UNL     1       6.002   6.617  16.906  0.00  0.00    +0.000 C 
ATOM     29  C   UNL     1       7.314   7.240  17.375  0.00  0.00    +0.000 C 
ATOM     30  C   UNL     1       7.818   6.564  18.639  0.00  0.00    +0.000 C 
ATOM     31  C   UNL     1       7.895   5.056  18.432  0.00  0.00    +0.000 C 
ATOM     32  C   UNL     1       6.571   4.490  17.913  0.00  0.00    +0.000 C 
ENDBRANCH  26  27
ENDBRANCH  25  26
ENDBRANCH  24  25
ENDBRANCH   5  24
TORSDOF 8
ENDMDL
MODEL 3
REMARK VINA RESULT:      -7.9      1.390      1.850
REMARK  Name = 
REMARK  10 active torsions:
REMARK  status: ('A' for Active; 'I' for Inactive)
REMARK    1  A    between atoms: C_1  and  O_2
REMARK    2  A    between atoms: O_2  and  C_3
REMARK    3  A    between atoms: C_6  and  N_7
REMARK    4  A    between atoms: C_10  and  C_11
REMARK    5  A    between atoms: C_14  and  O_15
REMARK    6  A    between atoms: O_15  and  C_16
REMARK    7  A    between atoms: C_17  and  O_18
REMARK    8  A    between atoms: O_18  and  C_19
REMARK    9  A    between atoms: C_19  and  C_20
REMARK   10  A    between atoms: C_20  and  N_21
REMARK                            x       y       z     vdW  Elec       q    Type
REMARK                         _______ _______ _______ _____ _____    ______ ____
ROOT
ATOM      1  C   UNL     1       2.135   6.743  19.409  0.00  0.00    +0.000 A 
ATOM      2  C   UNL     1       1.832   6.109  20.618  0.00  0.00    +0.000 A 
ATOM      3  C   UNL     1       1.867   4.718  20.714  0.00  0.00    +0.000 A 
ATOM      4  C   UNL     1       2.209   3.918  19.616  0.00  0.00    +0.000 A 
ATOM      5  C   UNL     1       2.510   4.538  18.395  0.00  0.00    +0.000 A 
ATOM      6  C   UNL     1       2.427   5.941  18.298  0.00  0.00    +0.000 A 
ENDROOT
BRANCH   1  10
ATOM      7  N   UNL     1       0.541   9.970  19.359  0.00  0.00    +0.000 N 
ATOM      8  C   UNL     1       1.161  10.064  18.063  0.00  0.00    +0.000 C 
ATOM      9  C   UNL     1       1.818   8.715  17.856  0.00  0.00    +0.000 C 
ATOM     10  C   UNL     1       2.163   8.248  19.266  0.00  0.00    +0.000 C 
ATOM     11  C   UNL     1       1.165   8.984  20.145  0.00  0.00    +0.000 C 
ATOM     12  O   UNL     1       1.010   8.755  21.335  0.00  0.00    +0.000 OA
BRANCH   7  16
ATOM     13  C   UNL     1      -2.470  12.610  20.774  0.00  0.00    +0.000 A 
ATOM     14  C   UNL     1      -2.505  12.123  19.473  0.00  0.00    +0.000 A 
ATOM     15  C   UNL     1      -1.505  11.267  19.010  0.00  0.00    +0.000 A 
ATOM     16  C   UNL     1      -0.436  10.884  19.825  0.00  0.00    +0.000 A 
ATOM     17  C   UNL     1      -0.360  11.440  21.110  0.00  0.00    +0.000 A 
ATOM     18  C   UNL     1      -1.370  12.294  21.581  0.00  0.00    +0.000 A 
ATOM     19 CL   UNL     1      -1.235  12.900  23.194  0.00  0.00    +0.000 Cl
BRANCH  13  21
ATOM     20  C   UNL     1      -3.336  14.789  20.942  0.00  0.00    +0.000 C 
ATOM     21  O   UNL     1      -3.457  13.409  21.292  0.00  0.00    +0.000 OA
ENDBRANCH  13  21
ENDBRANCH   7  16
ENDBRANCH   1  10
BRANCH   4  22
ATOM     22  O   UNL     1       2.211   2.585  19.928  0.00  0.00    +0.000 OA
ATOM     23  C   UNL     1       2.078   2.204  21.288  0.00  0.00    +0.000 C 
ENDBRANCH   4  22
BRANCH   5  24
ATOM     24  O   UNL     1       2.875   3.766  17.319  0.00  0.00    +0.000 OA
BRANCH  24  25
ATOM     25  C   UNL     1       4.285   3.574  17.166  0.00  0.00    +0.000 C 
BRANCH  25  26
ATOM     26  C   UNL     1       4.868   4.624  16.209  0.00  0.00    +0.000 C 
BRANCH  26  27
ATOM     27  N   UNL     1       6.124   5.224  16.708  0.00  0.00    +0.000 NA
ATOM     28  C   UNL     1       5.994   6.671  16.944  0.00  0.00    +0.000 C 
ATOM     29  C   UNL     1       7.316   7.284  17.397  0.00  0.00    +0.000 C 
ATOM     30  C   UNL     1       7.835   6.598  18.651  0.00  0.00    +0.000 C 
ATOM     31  C   UNL     1       7.899   5.091  18.436  0.00  0.00    +0.000 C 
ATOM     32  C   UNL     1       6.564   4.536  17.934  0.00  0.00    +0.000 C 
ENDBRANCH  26  27
ENDBRANCH  25  26
ENDBRANCH  24  25
ENDBRANCH   5  24
TORSDOF 8
ENDMDL
MODEL 4
REMARK VINA RESULT:      -7.9      2.388      4.336
REMARK  Name = 
REMARK  10 active torsions:
REMARK  status: ('A' for Active; 'I' for Inactive)
REMARK    1  A    between atoms: C_1  and  O_2
REMARK    2  A    between atoms: O_2  and  C_3
REMARK    3  A    between atoms: C_6  and  N_7
REMARK    4  A    between atoms: C_10  and  C_11
REMARK    5  A    between atoms: C_14  and  O_15
REMARK    6  A    between atoms: O_15  and  C_16
REMARK    7  A    between atoms: C_17  and  O_18
REMARK    8  A    between atoms: O_18  and  C_19
REMARK    9  A    between atoms: C_19  and  C_20
REMARK   10  A    between atoms: C_20  and  N_21
REMARK                            x       y       z     vdW  Elec       q    Type
REMARK                         _______ _______ _______ _____ _____    ______ ____
ROOT
ATOM      1  C   UNL     1       3.352   6.911  18.360  0.00  0.00    +0.000 A 
ATOM      2  C   UNL     1       4.053   7.424  17.265  0.00  0.00    +0.000 A 
ATOM      3  C   UNL     1       5.251   6.837  16.857  0.00  0.00    +0.000 A 
ATOM      4  C   UNL     1       5.783   5.724  17.520  0.00  0.00    +0.000 A 
ATOM      5  C   UNL     1       5.094   5.201  18.623  0.00  0.00    +0.000 A 
ATOM      6  C   UNL     1       3.909   5.830  19.055  0.00  0.00    +0.000 A 
ENDROOT
BRANCH   1  10
ATOM      7  N   UNL     1       1.232   9.630  19.398  0.00  0.00    +0.000 N 
ATOM      8  C   UNL     1       1.000   8.784  20.540  0.00  0.00    +0.000 C 
ATOM      9  C   UNL     1       1.914   7.595  20.327  0.00  0.00    +0.000 C 
ATOM     10  C   UNL     1       2.023   7.477  18.810  0.00  0.00    +0.000 C 
ATOM     11  C   UNL     1       1.737   8.886  18.316  0.00  0.00    +0.000 C 
ATOM     12  O   UNL     1       1.888   9.242  17.157  0.00  0.00    +0.000 OA
BRANCH   7  16
ATOM     13  C   UNL     1      -0.015  13.676  19.073  0.00  0.00    +0.000 A 
ATOM     14  C   UNL     1       1.272  13.297  18.712  0.00  0.00    +0.000 A 
ATOM     15  C   UNL     1       1.680  11.968  18.835  0.00  0.00    +0.000 A 
ATOM     16  C   UNL     1       0.822  10.984  19.332  0.00  0.00    +0.000 A 
ATOM     17  C   UNL     1      -0.449  11.383  19.771  0.00  0.00    +0.000 A 
ATOM     18  C   UNL     1      -0.864  12.718  19.640  0.00  0.00    +0.000 A 
ATOM     19 CL   UNL     1      -2.463  13.125  20.155  0.00  0.00    +0.000 Cl
BRANCH  13  21
ATOM     20  C   UNL     1       0.379  15.960  19.466  0.00  0.00    +0.000 C 
ATOM     21  O   UNL     1      -0.480  14.958  18.921  0.00  0.00    +0.000 OA
ENDBRANCH  13  21
ENDBRANCH   7  16
ENDBRANCH   1  10
BRANCH   4  22
ATOM     22  O   UNL     1       6.946   5.286  16.945  0.00  0.00    +0.000 OA
ATOM     23  C   UNL     1       6.879   4.613  15.698  0.00  0.00    +0.000 C 
ENDBRANCH   4  22
BRANCH   5  24
ATOM     24  O   UNL     1       5.589   4.091  19.264  0.00  0.00    +0.000 OA
BRANCH  24  25
ATOM     25  C   UNL     1       5.076   2.843  18.789  0.00  0.00    +0.000 C 
BRANCH  25  26
ATOM     26  C   UNL     1       4.528   2.010  19.957  0.00  0.00    +0.000 C 
BRANCH  26  27
ATOM     27  N   UNL     1       3.065   2.144  20.122  0.00  0.00    +0.000 NA
ATOM     28  C   UNL     1       2.711   3.111  21.175  0.00  0.00    +0.000 C 
ATOM     29  C   UNL     1       1.200   3.189  21.375  0.00  0.00    +0.000 C 
ATOM     30  C   UNL     1       0.495   3.554  20.079  0.00  0.00    +0.000 C 
ATOM     31  C   UNL     1       0.917   2.601  18.967  0.00  0.00    +0.000 C 
ATOM     32  C   UNL     1       2.441   2.520  18.842  0.00  0.00    +0.000 C 
ENDBRANCH  26  27
ENDBRANCH  25  26
ENDBRANCH  24  25
ENDBRANCH   5  24
TORSDOF 8
ENDMDL
MODEL 5
REMARK VINA RESULT:      -7.9      1.246      1.529
REMARK  Name = 
REMARK  10 active torsions:
REMARK  status: ('A' for Active; 'I' for Inactive)
REMARK    1  A    between atoms: C_1  and  O_2
REMARK    2  A    between atoms: O_2  and  C_3
REMARK    3  A    between atoms: C_6  and  N_7
REMARK    4  A    between atoms: C_10  and  C_11
REMARK    5  A    between atoms: C_14  and  O_15
REMARK    6  A    between atoms: O_15  and  C_16
REMARK    7  A    between atoms: C_17  and  O_18
REMARK    8  A    between atoms: O_18  and  C_19
REMARK    9  A    between atoms: C_19  and  C_20
REMARK   10  A    between atoms: C_20  and  N_21
REMARK                            x       y       z     vdW  Elec       q    Type
REMARK                         _______ _______ _______ _____ _____    ______ ____
ROOT
ATOM      1  C   UNL     1       2.204   6.714  19.392  0.00  0.00    +0.000 A 
ATOM      2  C   UNL     1       2.056   6.074  20.625  0.00  0.00    +0.000 A 
ATOM      3  C   UNL     1       2.129   4.683  20.712  0.00  0.00    +0.000 A 
ATOM      4  C   UNL     1       2.353   3.891  19.578  0.00  0.00    +0.000 A 
ATOM      5  C   UNL     1       2.497   4.518  18.333  0.00  0.00    +0.000 A 
ATOM      6  C   UNL     1       2.377   5.919  18.251  0.00  0.00    +0.000 A 
ENDROOT
BRANCH   1  10
ATOM      7  N   UNL     1       0.505   9.885  19.268  0.00  0.00    +0.000 N 
ATOM      8  C   UNL     1       1.182  10.004  18.003  0.00  0.00    +0.000 C 
ATOM      9  C   UNL     1       1.894   8.678  17.826  0.00  0.00    +0.000 C 
ATOM     10  C   UNL     1       2.187   8.220  19.251  0.00  0.00    +0.000 C 
ATOM     11  C   UNL     1       1.123   8.919  20.082  0.00  0.00    +0.000 C 
ATOM     12  O   UNL     1       0.920   8.681  21.263  0.00  0.00    +0.000 OA
BRANCH   7  16
ATOM     13  C   UNL     1      -2.660  12.418  20.537  0.00  0.00    +0.000 A 
ATOM     14  C   UNL     1      -2.598  11.958  19.227  0.00  0.00    +0.000 A 
ATOM     15  C   UNL     1      -1.548  11.138  18.813  0.00  0.00    +0.000 A 
ATOM     16  C   UNL     1      -0.524  10.764  19.688  0.00  0.00    +0.000 A 
ATOM     17  C   UNL     1      -0.546  11.294  20.986  0.00  0.00    +0.000 A 
ATOM     18  C   UNL     1      -1.607  12.112  21.407  0.00  0.00    +0.000 A 
ATOM     19 CL   UNL     1      -1.591  12.686  23.037  0.00  0.00    +0.000 Cl
BRANCH  13  21
ATOM     20  C   UNL     1      -4.967  12.858  20.431  0.00  0.00    +0.000 C 
ATOM     21  O   UNL     1      -3.699  13.181  21.005  0.00  0.00    +0.000 OA
ENDBRANCH  13  21
ENDBRANCH   7  16
ENDBRANCH   1  10
BRANCH   4  22
ATOM     22  O   UNL     1       2.417   2.558  19.883  0.00  0.00    +0.000 OA
ATOM     23  C   UNL     1       3.579   2.061  20.529  0.00  0.00    +0.000 C 
ENDBRANCH   4  22
BRANCH   5  24
ATOM     24  O   UNL     1       2.747   3.754  17.218  0.00  0.00    +0.000 OA
BRANCH  24  25
ATOM     25  C   UNL     1       4.098   3.299  17.091  0.00  0.00    +0.000 C 
BRANCH  25  26
ATOM     26  C   UNL     1       4.944   4.335  16.337  0.00  0.00    +0.000 C 
BRANCH  26  27
ATOM     27  N   UNL     1       5.651   5.268  17.240  0.00  0.00    +0.000 NA
ATOM     28  C   UNL     1       6.120   4.603  18.468  0.00  0.00    +0.000 C 
ATOM     29  C   UNL     1       6.790   5.594  19.417  0.00  0.00    +0.000 C 
ATOM     30  C   UNL     1       7.950   6.302  18.736  0.00  0.00    +0.000 C 
ATOM     31  C   UNL     1       7.486   6.927  17.426  0.00  0.00    +0.000 C 
ATOM     32  C   UNL     1       6.776   5.905  16.534  0.00  0.00    +0.000 C 
ENDBRANCH  26  27
ENDBRANCH  25  26
ENDBRANCH  24  25
ENDBRANCH   5  24
TORSDOF 8
ENDMDL
MODEL 6
REMARK VINA RESULT:      -7.9      2.466      4.343
REMARK  Name = 
REMARK  10 active torsions:
REMARK  status: ('A' for Active; 'I' for Inactive)
REMARK    1  A    between atoms: C_1  and  O_2
REMARK    2  A    between atoms: O_2  and  C_3
REMARK    3  A    between atoms: C_6  and  N_7
REMARK    4  A    between atoms: C_10  and  C_11
REMARK    5  A    between atoms: C_14  and  O_15
REMARK    6  A    between atoms: O_15  and  C_16
REMARK    7  A    between atoms: C_17  and  O_18
REMARK    8  A    between atoms: O_18  and  C_19
REMARK    9  A    between atoms: C_19  and  C_20
REMARK   10  A    between atoms: C_20  and  N_21
REMARK                            x       y       z     vdW  Elec       q    Type
REMARK                         _______ _______ _______ _____ _____    ______ ____
ROOT
ATOM      1  C   UNL     1       3.444   6.669  17.996  0.00  0.00    +0.000 A 
ATOM      2  C   UNL     1       4.490   7.491  17.568  0.00  0.00    +0.000 A 
ATOM      3  C   UNL     1       5.636   6.937  16.997  0.00  0.00    +0.000 A 
ATOM      4  C   UNL     1       5.773   5.553  16.832  0.00  0.00    +0.000 A 
ATOM      5  C   UNL     1       4.736   4.714  17.262  0.00  0.00    +0.000 A 
ATOM      6  C   UNL     1       3.603   5.282  17.878  0.00  0.00    +0.000 A 
ENDROOT
BRANCH   1  10
ATOM      7  N   UNL     1       1.428   9.357  19.290  0.00  0.00    +0.000 N 
ATOM      8  C   UNL     1       1.287   8.476  20.420  0.00  0.00    +0.000 C 
ATOM      9  C   UNL     1       2.175   7.292  20.095  0.00  0.00    +0.000 C 
ATOM     10  C   UNL     1       2.159   7.222  18.571  0.00  0.00    +0.000 C 
ATOM     11  C   UNL     1       1.841   8.647  18.147  0.00  0.00    +0.000 C 
ATOM     12  O   UNL     1       1.898   9.040  16.992  0.00  0.00    +0.000 OA
BRANCH   7  16
ATOM     13  C   UNL     1       0.235  13.429  19.452  0.00  0.00    +0.000 A 
ATOM     14  C   UNL     1      -0.602  12.423  19.921  0.00  0.00    +0.000 A 
ATOM     15  C   UNL     1      -0.209  11.086  19.851  0.00  0.00    +0.000 A 
ATOM     16  C   UNL     1       1.021  10.713  19.302  0.00  0.00    +0.000 A 
ATOM     17  C   UNL     1       1.828  11.722  18.758  0.00  0.00    +0.000 A 
ATOM     18  C   UNL     1       1.439  13.069  18.835  0.00  0.00    +0.000 A 
ATOM     19 CL   UNL     1       2.510  14.261  18.187  0.00  0.00    +0.000 Cl
BRANCH  13  21
ATOM     20  C   UNL     1      -1.224  15.033  20.361  0.00  0.00    +0.000 C 
ATOM     21  O   UNL     1      -0.082  14.760  19.547  0.00  0.00    +0.000 OA
ENDBRANCH  13  21
ENDBRANCH   7  16
ENDBRANCH   1  10
BRANCH   4  22
ATOM     22  O   UNL     1       6.956   5.219  16.229  0.00  0.00    +0.000 OA
ATOM     23  C   UNL     1       6.948   4.887  14.849  0.00  0.00    +0.000 C 
ENDBRANCH   4  22
BRANCH   5  24
ATOM     24  O   UNL     1       4.845   3.357  17.078  0.00  0.00    +0.000 OA
BRANCH  24  25
ATOM     25  C   UNL     1       3.600   2.653  17.029  0.00  0.00    +0.000 C 
BRANCH  25  26
ATOM     26  C   UNL     1       3.550   1.576  18.124  0.00  0.00    +0.000 C 
BRANCH  26  27
ATOM     27  N   UNL     1       2.664   1.941  19.250  0.00  0.00    +0.000 NA
ATOM     28  C   UNL     1       3.394   2.621  20.333  0.00  0.00    +0.000 C 
ATOM     29  C   UNL     1       2.477   2.932  21.513  0.00  0.00    +0.000 C 
ATOM     30  C   UNL     1       1.292   3.778  21.076  0.00  0.00    +0.000 C 
ATOM     31  C   UNL     1       0.579   3.115  19.904  0.00  0.00    +0.000 C 
ATOM     32  C   UNL     1       1.551   2.778  18.770  0.00  0.00    +0.000 C 
ENDBRANCH  26  27
ENDBRANCH  25  26
ENDBRANCH  24  25
ENDBRANCH   5  24
TORSDOF 8
ENDMDL
MODEL 7
REMARK VINA RESULT:      -7.8      3.002     10.567
REMARK  Name = 
REMARK  10 active torsions:
REMARK  status: ('A' for Active; 'I' for Inactive)
REMARK    1  A    between atoms: C_1  and  O_2
REMARK    2  A    between atoms: O_2  and  C_3
REMARK    3  A    between atoms: C_6  and  N_7
REMARK    4  A    between atoms: C_10  and  C_11
REMARK    5  A    between atoms: C_14  and  O_15
REMARK    6  A    between atoms: O_15  and  C_16
REMARK    7  A    between atoms: C_17  and  O_18
REMARK    8  A    between atoms: O_18  and  C_19
REMARK    9  A    between atoms: C_19  and  C_20
REMARK   10  A    between atoms: C_20  and  N_21
REMARK                            x       y       z     vdW  Elec       q    Type
REMARK                         _______ _______ _______ _____ _____    ______ ____
ROOT
ATOM      1  C   UNL     1      -0.317  10.301  19.142  0.00  0.00    +0.000 A 
ATOM      2  C   UNL     1      -1.105   9.798  18.104  0.00  0.00    +0.000 A 
ATOM      3  C   UNL     1      -2.286  10.444  17.736  0.00  0.00    +0.000 A 
ATOM      4  C   UNL     1      -2.714  11.609  18.386  0.00  0.00    +0.000 A 
ATOM      5  C   UNL     1      -1.938  12.123  19.433  0.00  0.00    +0.000 A 
ATOM      6  C   UNL     1      -0.771  11.437  19.825  0.00  0.00    +0.000 A 
ENDROOT
BRANCH   1  10
ATOM      7  N   UNL     1       2.151   7.687  18.959  0.00  0.00    +0.000 N 
ATOM      8  C   UNL     1       1.954   7.639  20.385  0.00  0.00    +0.000 C 
ATOM      9  C   UNL     1       0.841   8.632  20.650  0.00  0.00    +0.000 C 
ATOM     10  C   UNL     1       0.997   9.670  19.544  0.00  0.00    +0.000 C 
ATOM     11  C   UNL     1       1.698   8.909  18.430  0.00  0.00    +0.000 C 
ATOM     12  O   UNL     1       1.859   9.352  17.303  0.00  0.00    +0.000 OA
BRANCH   7  16
ATOM     13  C   UNL     1       4.408   4.742  16.894  0.00  0.00    +0.000 A 
ATOM     14  C   UNL     1       4.824   6.067  16.922  0.00  0.00    +0.000 A 
ATOM     15  C   UNL     1       4.070   7.033  17.590  0.00  0.00    +0.000 A 
ATOM     16  C   UNL     1       2.875   6.707  18.238  0.00  0.00    +0.000 A 
ATOM     17  C   UNL     1       2.417   5.385  18.141  0.00  0.00    +0.000 A 
ATOM     18  C   UNL     1       3.178   4.411  17.477  0.00  0.00    +0.000 A 
ATOM     19 CL   UNL     1       2.573   2.792  17.442  0.00  0.00    +0.000 Cl
BRANCH  13  21
ATOM     20  C   UNL     1       5.893   4.177  15.162  0.00  0.00    +0.000 C 
ATOM     21  O   UNL     1       5.141   3.748  16.297  0.00  0.00    +0.000 OA
ENDBRANCH  13  21
ENDBRANCH   7  16
ENDBRANCH   1  10
BRANCH   4  22
ATOM     22  O   UNL     1      -3.878  12.098  17.856  0.00  0.00    +0.000 OA
ATOM     23  C   UNL     1      -4.783  11.192  17.244  0.00  0.00    +0.000 C 
ENDBRANCH   4  22
BRANCH   5  24
ATOM     24  O   UNL     1      -2.331  13.282  20.058  0.00  0.00    +0.000 OA
BRANCH  24  25
ATOM     25  C   UNL     1      -3.176  13.095  21.198  0.00  0.00    +0.000 C 
BRANCH  25  26
ATOM     26  C   UNL     1      -4.239  14.202  21.264  0.00  0.00    +0.000 C 
BRANCH  26  27
ATOM     27  N   UNL     1      -5.593  13.722  20.913  0.00  0.00    +0.000 NA
ATOM     28  C   UNL     1      -6.043  14.234  19.608  0.00  0.00    +0.000 C 
ATOM     29  C   UNL     1      -7.466  13.781  19.292  0.00  0.00    +0.000 C 
ATOM     30  C   UNL     1      -7.575  12.265  19.319  0.00  0.00    +0.000 C 
ATOM     31  C   UNL     1      -7.039  11.725  20.639  0.00  0.00    +0.000 C 
ATOM     32  C   UNL     1      -5.631  12.250  20.933  0.00  0.00    +0.000 C 
ENDBRANCH  26  27
ENDBRANCH  25  26
ENDBRANCH  24  25
ENDBRANCH   5  24
TORSDOF 8
ENDMDL
MODEL 8
REMARK VINA RESULT:      -7.7      2.505      4.473
REMARK  Name = 
REMARK  10 active torsions:
REMARK  status: ('A' for Active; 'I' for Inactive)
REMARK    1  A    between atoms: C_1  and  O_2
REMARK    2  A    between atoms: O_2  and  C_3
REMARK    3  A    between atoms: C_6  and  N_7
REMARK    4  A    between atoms: C_10  and  C_11
REMARK    5  A    between atoms: C_14  and  O_15
REMARK    6  A    between atoms: O_15  and  C_16
REMARK    7  A    between atoms: C_17  and  O_18
REMARK    8  A    between atoms: O_18  and  C_19
REMARK    9  A    between atoms: C_19  and  C_20
REMARK   10  A    between atoms: C_20  and  N_21
REMARK                            x       y       z     vdW  Elec       q    Type
REMARK                         _______ _______ _______ _____ _____    ______ ____
ROOT
ATOM      1  C   UNL     1       3.544   6.749  18.140  0.00  0.00    +0.000 A 
ATOM      2  C   UNL     1       4.157   7.353  17.039  0.00  0.00    +0.000 A 
ATOM      3  C   UNL     1       5.362   6.856  16.541  0.00  0.00    +0.000 A 
ATOM      4  C   UNL     1       5.989   5.745  17.120  0.00  0.00    +0.000 A 
ATOM      5  C   UNL     1       5.390   5.131  18.229  0.00  0.00    +0.000 A 
ATOM      6  C   UNL     1       4.196   5.669  18.750  0.00  0.00    +0.000 A 
ENDROOT
BRANCH   1  10
ATOM      7  N   UNL     1       1.338   9.285  19.429  0.00  0.00    +0.000 N 
ATOM      8  C   UNL     1       1.210   8.369  20.532  0.00  0.00    +0.000 C 
ATOM      9  C   UNL     1       2.175   7.246  20.209  0.00  0.00    +0.000 C 
ATOM     10  C   UNL     1       2.212   7.214  18.685  0.00  0.00    +0.000 C 
ATOM     11  C   UNL     1       1.827   8.629  18.284  0.00  0.00    +0.000 C 
ATOM     12  O   UNL     1       1.899   9.054  17.141  0.00  0.00    +0.000 OA
BRANCH   7  16
ATOM     13  C   UNL     1      -0.091  13.278  19.647  0.00  0.00    +0.000 A 
ATOM     14  C   UNL     1      -0.891  12.214  20.045  0.00  0.00    +0.000 A 
ATOM     15  C   UNL     1      -0.420  10.903  19.958  0.00  0.00    +0.000 A 
ATOM     16  C   UNL     1       0.854  10.616  19.459  0.00  0.00    +0.000 A 
ATOM     17  C   UNL     1       1.627  11.685  18.984  0.00  0.00    +0.000 A 
ATOM     18  C   UNL     1       1.159  13.005  19.080  0.00  0.00    +0.000 A 
ATOM     19 CL   UNL     1       2.190  14.274  18.519  0.00  0.00    +0.000 Cl
BRANCH  13  21
ATOM     20  C   UNL     1      -0.305  15.138  21.069  0.00  0.00    +0.000 C 
ATOM     21  O   UNL     1      -0.488  14.586  19.764  0.00  0.00    +0.000 OA
ENDBRANCH  13  21
ENDBRANCH   7  16
ENDBRANCH   1  10
BRANCH   4  22
ATOM     22  O   UNL     1       7.142   5.403  16.466  0.00  0.00    +0.000 OA
ATOM     23  C   UNL     1       7.047   4.690  15.243  0.00  0.00    +0.000 C 
ENDBRANCH   4  22
BRANCH   5  24
ATOM     24  O   UNL     1       5.979   4.023  18.787  0.00  0.00    +0.000 OA
BRANCH  24  25
ATOM     25  C   UNL     1       5.230   3.409  19.840  0.00  0.00    +0.000 C 
BRANCH  25  26
ATOM     26  C   UNL     1       4.508   2.155  19.324  0.00  0.00    +0.000 C 
BRANCH  26  27
ATOM     27  N   UNL     1       3.065   2.149  19.646  0.00  0.00    +0.000 NA
ATOM     28  C   UNL     1       2.759   2.954  20.841  0.00  0.00    +0.000 C 
ATOM     29  C   UNL     1       1.276   2.884  21.195  0.00  0.00    +0.000 C 
ATOM     30  C   UNL     1       0.414   3.339  20.029  0.00  0.00    +0.000 C 
ATOM     31  C   UNL     1       0.781   2.562  18.771  0.00  0.00    +0.000 C 
ATOM     32  C   UNL     1       2.285   2.621  18.490  0.00  0.00    +0.000 C 
ENDBRANCH  26  27
ENDBRANCH  25  26
ENDBRANCH  24  25
ENDBRANCH   5  24
TORSDOF 8
ENDMDL
MODEL 9
REMARK VINA RESULT:      -7.7      3.169     10.397
REMARK  Name = 
REMARK  10 active torsions:
REMARK  status: ('A' for Active; 'I' for Inactive)
REMARK    1  A    between atoms: C_1  and  O_2
REMARK    2  A    between atoms: O_2  and  C_3
REMARK    3  A    between atoms: C_6  and  N_7
REMARK    4  A    between atoms: C_10  and  C_11
REMARK    5  A    between atoms: C_14  and  O_15
REMARK    6  A    between atoms: O_15  and  C_16
REMARK    7  A    between atoms: C_17  and  O_18
REMARK    8  A    between atoms: O_18  and  C_19
REMARK    9  A    between atoms: C_19  and  C_20
REMARK   10  A    between atoms: C_20  and  N_21
REMARK                            x       y       z     vdW  Elec       q    Type
REMARK                         _______ _______ _______ _____ _____    ______ ____
ROOT
ATOM      1  C   UNL     1      -0.355  10.278  19.086  0.00  0.00    +0.000 A 
ATOM      2  C   UNL     1      -1.078   9.830  17.977  0.00  0.00    +0.000 A 
ATOM      3  C   UNL     1      -2.265  10.461  17.606  0.00  0.00    +0.000 A 
ATOM      4  C   UNL     1      -2.765  11.556  18.322  0.00  0.00    +0.000 A 
ATOM      5  C   UNL     1      -2.055  12.015  19.440  0.00  0.00    +0.000 A 
ATOM      6  C   UNL     1      -0.881  11.341  19.832  0.00  0.00    +0.000 A 
ENDROOT
BRANCH   1  10
ATOM      7  N   UNL     1       2.136   7.683  18.942  0.00  0.00    +0.000 N 
ATOM      8  C   UNL     1       1.937   7.652  20.368  0.00  0.00    +0.000 C 
ATOM      9  C   UNL     1       0.815   8.640  20.618  0.00  0.00    +0.000 C 
ATOM     10  C   UNL     1       0.965   9.664  19.498  0.00  0.00    +0.000 C 
ATOM     11  C   UNL     1       1.673   8.894  18.395  0.00  0.00    +0.000 C 
ATOM     12  O   UNL     1       1.832   9.323  17.263  0.00  0.00    +0.000 OA
BRANCH   7  16
ATOM     13  C   UNL     1       4.420   4.728  16.921  0.00  0.00    +0.000 A 
ATOM     14  C   UNL     1       4.837   6.053  16.950  0.00  0.00    +0.000 A 
ATOM     15  C   UNL     1       4.074   7.022  17.603  0.00  0.00    +0.000 A 
ATOM     16  C   UNL     1       2.870   6.699  18.235  0.00  0.00    +0.000 A 
ATOM     17  C   UNL     1       2.412   5.378  18.136  0.00  0.00    +0.000 A 
ATOM     18  C   UNL     1       3.182   4.400  17.487  0.00  0.00    +0.000 A 
ATOM     19 CL   UNL     1       2.576   2.782  17.450  0.00  0.00    +0.000 Cl
BRANCH  13  21
ATOM     20  C   UNL     1       6.262   4.200  15.559  0.00  0.00    +0.000 C 
ATOM     21  O   UNL     1       5.161   3.731  16.339  0.00  0.00    +0.000 OA
ENDBRANCH  13  21
ENDBRANCH   7  16
ENDBRANCH   1  10
BRANCH   4  22
ATOM     22  O   UNL     1      -3.923  12.045  17.778  0.00  0.00    +0.000 OA
ATOM     23  C   UNL     1      -4.577  11.285  16.774  0.00  0.00    +0.000 C 
ENDBRANCH   4  22
BRANCH   5  24
ATOM     24  O   UNL     1      -2.519  13.107  20.133  0.00  0.00    +0.000 OA
BRANCH  24  25
ATOM     25  C   UNL     1      -3.633  12.846  20.992  0.00  0.00    +0.000 C 
BRANCH  25  26
ATOM     26  C   UNL     1      -3.148  12.496  22.407  0.00  0.00    +0.000 C 
BRANCH  26  27
ATOM     27  N   UNL     1      -3.630  13.447  23.432  0.00  0.00    +0.000 NA
ATOM     28  C   UNL     1      -2.529  14.210  24.042  0.00  0.00    +0.000 C 
ATOM     29  C   UNL     1      -3.037  15.140  25.141  0.00  0.00    +0.000 C 
ATOM     30  C   UNL     1      -4.093  16.092  24.606  0.00  0.00    +0.000 C 
ATOM     31  C   UNL     1      -5.198  15.310  23.906  0.00  0.00    +0.000 C 
ATOM     32  C   UNL     1      -4.631  14.357  22.850  0.00  0.00    +0.000 C 
ENDBRANCH  26  27
ENDBRANCH  25  26
ENDBRANCH  24  25
ENDBRANCH   5  24
TORSDOF 8
ENDMDL
