MODEL 1
REMARK VINA RESULT:      -8.3      0.000      0.000
REMARK  Name = 
REMARK  5 active torsions:
REMARK  status: ('A' for Active; 'I' for Inactive)
REMARK    1  A    between atoms: N_2  and  C_4
REMARK    2  A    between atoms: C_11  and  O_12
REMARK    3  A    between atoms: O_12  and  C_13
REMARK    4  A    between atoms: C_15  and  C_16
REMARK    5  A    between atoms: C_19  and  C_20
REMARK                            x       y       z     vdW  Elec       q    Type
REMARK                         _______ _______ _______ _____ _____    ______ ____
ROOT
ATOM      1  C   UNL     1       3.139   6.665  18.937  0.00  0.00    +0.000 A 
ATOM      2  C   UNL     1       2.409   7.778  19.324  0.00  0.00    +0.000 A 
ATOM      3  C   UNL     1       1.559   7.692  20.435  0.00  0.00    +0.000 A 
ATOM      4  C   UNL     1       1.468   6.442  21.065  0.00  0.00    +0.000 A 
ATOM      5  C   UNL     1       2.228   5.380  20.592  0.00  0.00    +0.000 A 
ATOM      6  N   UNL     1       3.072   5.467  19.544  0.00  0.00    +0.000 NA
ENDROOT
BRANCH   3   7
ATOM      7  C   UNL     1       0.814   8.870  20.929  0.00  0.00    +0.000 A 
ATOM      8  C   UNL     1       0.003   9.647  20.090  0.00  0.00    +0.000 A 
ATOM      9  C   UNL     1      -0.726  10.729  20.595  0.00  0.00    +0.000 A 
ATOM     10  C   UNL     1      -0.648  11.033  21.953  0.00  0.00    +0.000 A 
ATOM     11  N   UNL     1       0.142  10.306  22.790  0.00  0.00    +0.000 NA
ATOM     12  C   UNL     1       0.841   9.268  22.265  0.00  0.00    +0.000 A 
BRANCH  10  13
ATOM     13  C   UNL     1      -1.463  12.186  22.525  0.00  0.00    +0.000 C 
ATOM     14  F   UNL     1      -1.975  13.012  21.563  0.00  0.00    +0.000 F 
ATOM     15  F   UNL     1      -2.540  11.770  23.250  0.00  0.00    +0.000 F 
ATOM     16  F   UNL     1      -0.740  12.997  23.349  0.00  0.00    +0.000 F 
ENDBRANCH  10  13
ENDBRANCH   3   7
BRANCH   1  17
ATOM     17  O   UNL     1       3.923   6.805  17.812  0.00  0.00    +0.000 OA
BRANCH  17  25
ATOM     18  C   UNL     1       6.476   4.401  13.678  0.00  0.00    +0.000 A 
ATOM     19  C   UNL     1       5.385   4.055  14.453  0.00  0.00    +0.000 A 
ATOM     20  N   UNL     1       5.555   4.783  15.596  0.00  0.00    +0.000 N 
ATOM     21  C   UNL     1       6.717   5.484  15.492  0.00  0.00    +0.000 A 
ATOM     22  N   UNL     1       7.305   5.289  14.337  0.00  0.00    +0.000 NA
ATOM     23  O   UNL     1       7.228   6.172  16.501  0.00  0.00    +0.000 OA
ATOM     24  C   UNL     1       6.262   6.767  17.365  0.00  0.00    +0.000 C 
ATOM     25  C   UNL     1       5.045   5.898  17.756  0.00  0.00    +0.000 C 
ATOM     26  C   UNL     1       4.774   4.724  16.805  0.00  0.00    +0.000 C 
BRANCH  18  28
ATOM     27  O   UNL     1       6.244   2.836  12.021  0.00  0.00    +0.000 OA
ATOM     28  N   UNL     1       6.804   3.888  12.362  0.00  0.00    +0.000 N 
ATOM     29  O   UNL     1       7.608   4.533  11.676  0.00  0.00    +0.000 OA
ENDBRANCH  18  28
ENDBRANCH  17  25
ENDBRANCH   1  17
TORSDOF 5
ENDMDL
MODEL 2
REMARK VINA RESULT:      -8.3      0.654      1.220
REMARK  Name = 
REMARK  5 active torsions:
REMARK  status: ('A' for Active; 'I' for Inactive)
REMARK    1  A    between atoms: N_2  and  C_4
REMARK    2  A    between atoms: C_11  and  O_12
REMARK    3  A    between atoms: O_12  and  C_13
REMARK    4  A    between atoms: C_15  and  C_16
REMARK    5  A    between atoms: C_19  and  C_20
REMARK                            x       y       z     vdW  Elec       q    Type
REMARK                         _______ _______ _______ _____ _____    ______ ____
ROOT
ATOM      1  C   UNL     1       3.286   6.360  18.997  0.00  0.00    +0.000 A 
ATOM      2  C   UNL     1       2.554   7.471  19.385  0.00  0.00    +0.000 A 
ATOM      3  C   UNL     1       1.633   7.358  20.435  0.00  0.00    +0.000 A 
ATOM      4  C   UNL     1       1.477   6.085  21.004  0.00  0.00    +0.000 A 
ATOM      5  C   UNL     1       2.245   5.027  20.533  0.00  0.00    +0.000 A 
ATOM      6  N   UNL     1       3.156   5.139  19.547  0.00  0.00    +0.000 NA
ENDROOT
BRANCH   3   7
ATOM      7  C   UNL     1       0.881   8.531  20.930  0.00  0.00    +0.000 A 
ATOM      8  C   UNL     1       0.568   8.701  22.286  0.00  0.00    +0.000 A 
ATOM      9  C   UNL     1      -0.106   9.843  22.731  0.00  0.00    +0.000 A 
ATOM     10  C   UNL     1      -0.466  10.827  21.812  0.00  0.00    +0.000 A 
ATOM     11  N   UNL     1      -0.189  10.684  20.487  0.00  0.00    +0.000 NA
ATOM     12  C   UNL     1       0.460   9.560  20.089  0.00  0.00    +0.000 A 
BRANCH  10  13
ATOM     13  C   UNL     1      -1.168  12.093  22.285  0.00  0.00    +0.000 C 
ATOM     14  F   UNL     1      -1.933  11.898  23.403  0.00  0.00    +0.000 F 
ATOM     15  F   UNL     1      -0.302  13.094  22.614  0.00  0.00    +0.000 F 
ATOM     16  F   UNL     1      -2.017  12.616  21.355  0.00  0.00    +0.000 F 
ENDBRANCH  10  13
ENDBRANCH   3   7
BRANCH   1  17
ATOM     17  O   UNL     1       4.144   6.529  17.932  0.00  0.00    +0.000 OA
BRANCH  17  25
ATOM     18  C   UNL     1       6.671   4.437  13.617  0.00  0.00    +0.000 A 
ATOM     19  C   UNL     1       5.482   4.143  14.258  0.00  0.00    +0.000 A 
ATOM     20  N   UNL     1       5.657   4.652  15.513  0.00  0.00    +0.000 N 
ATOM     21  C   UNL     1       6.909   5.178  15.596  0.00  0.00    +0.000 A 
ATOM     22  N   UNL     1       7.558   5.077  14.461  0.00  0.00    +0.000 NA
ATOM     23  O   UNL     1       7.426   5.617  16.733  0.00  0.00    +0.000 OA
ATOM     24  C   UNL     1       6.484   6.209  17.624  0.00  0.00    +0.000 C 
ATOM     25  C   UNL     1       5.129   5.483  17.793  0.00  0.00    +0.000 C 
ATOM     26  C   UNL     1       4.778   4.525  16.648  0.00  0.00    +0.000 C 
BRANCH  18  28
ATOM     27  O   UNL     1       6.766   2.937  11.887  0.00  0.00    +0.000 OA
ATOM     28  N   UNL     1       7.032   4.091  12.256  0.00  0.00    +0.000 N 
ATOM     29  O   UNL     1       7.571   4.963  11.562  0.00  0.00    +0.000 OA
ENDBRANCH  18  28
ENDBRANCH  17  25
ENDBRANCH   1  17
TORSDOF 5
ENDMDL
MODEL 3
REMARK VINA RESULT:      -8.2      6.457     10.302
REMARK  Name = 
REMARK  5 active torsions:
REMARK  status: ('A' for Active; 'I' for Inactive)
REMARK    1  A    between atoms: N_2  and  C_4
REMARK    2  A    between atoms: C_11  and  O_12
REMARK    3  A    between atoms: O_12  and  C_13
REMARK    4  A    between atoms: C_15  and  C_16
REMARK    5  A    between atoms: C_19  and  C_20
REMARK                            x       y       z     vdW  Elec       q    Type
REMARK                         _______ _______ _______ _____ _____    ______ ____
ROOT
ATOM      1  C   UNL     1       1.150   9.462  19.035  0.00  0.00    +0.000 A 
ATOM      2  C   UNL     1       2.010   8.726  18.235  0.00  0.00    +0.000 A 
ATOM      3  C   UNL     1       2.543   7.524  18.719  0.00  0.00    +0.000 A 
ATOM      4  C   UNL     1       2.198   7.163  20.030  0.00  0.00    +0.000 A 
ATOM      5  C   UNL     1       1.341   7.977  20.761  0.00  0.00    +0.000 A 
ATOM      6  N   UNL     1       0.800   9.116  20.286  0.00  0.00    +0.000 NA
ENDROOT
BRANCH   3   7
ATOM      7  C   UNL     1       3.409   6.670  17.877  0.00  0.00    +0.000 A 
ATOM      8  C   UNL     1       3.259   5.277  17.823  0.00  0.00    +0.000 A 
ATOM      9  C   UNL     1       4.064   4.501  16.983  0.00  0.00    +0.000 A 
ATOM     10  C   UNL     1       5.023   5.123  16.186  0.00  0.00    +0.000 A 
ATOM     11  N   UNL     1       5.202   6.472  16.227  0.00  0.00    +0.000 NA
ATOM     12  C   UNL     1       4.409   7.194  17.058  0.00  0.00    +0.000 A 
BRANCH  10  13
ATOM     13  C   UNL     1       5.883   4.295  15.239  0.00  0.00    +0.000 C 
ATOM     14  F   UNL     1       5.958   2.976  15.595  0.00  0.00    +0.000 F 
ATOM     15  F   UNL     1       5.418   4.294  13.957  0.00  0.00    +0.000 F 
ATOM     16  F   UNL     1       7.176   4.724  15.174  0.00  0.00    +0.000 F 
ENDBRANCH  10  13
ENDBRANCH   3   7
BRANCH   1  17
ATOM     17  O   UNL     1       0.695  10.654  18.515  0.00  0.00    +0.000 OA
BRANCH  17  25
ATOM     18  C   UNL     1       1.631  15.993  18.619  0.00  0.00    +0.000 A 
ATOM     19  C   UNL     1       2.377  14.889  18.987  0.00  0.00    +0.000 A 
ATOM     20  N   UNL     1       1.439  13.918  19.192  0.00  0.00    +0.000 N 
ATOM     21  C   UNL     1       0.206  14.458  18.989  0.00  0.00    +0.000 A 
ATOM     22  N   UNL     1       0.277  15.717  18.629  0.00  0.00    +0.000 NA
ATOM     23  O   UNL     1      -0.913  13.803  19.254  0.00  0.00    +0.000 OA
ATOM     24  C   UNL     1      -0.847  12.397  19.025  0.00  0.00    +0.000 C 
ATOM     25  C   UNL     1       0.430  11.670  19.506  0.00  0.00    +0.000 C 
ATOM     26  C   UNL     1       1.642  12.589  19.710  0.00  0.00    +0.000 C 
BRANCH  18  28
ATOM     27  O   UNL     1       2.666  17.464  17.200  0.00  0.00    +0.000 OA
ATOM     28  N   UNL     1       2.134  17.317  18.311  0.00  0.00    +0.000 N 
ATOM     29  O   UNL     1       1.996  18.201  19.167  0.00  0.00    +0.000 OA
ENDBRANCH  18  28
ENDBRANCH  17  25
ENDBRANCH   1  17
TORSDOF 5
ENDMDL
MODEL 4
REMARK VINA RESULT:      -8.1      5.887     10.078
REMARK  Name = 
REMARK  5 active torsions:
REMARK  status: ('A' for Active; 'I' for Inactive)
REMARK    1  A    between atoms: N_2  and  C_4
REMARK    2  A    between atoms: C_11  and  O_12
REMARK    3  A    between atoms: O_12  and  C_13
REMARK    4  A    between atoms: C_15  and  C_16
REMARK    5  A    between atoms: C_19  and  C_20
REMARK                            x       y       z     vdW  Elec       q    Type
REMARK                         _______ _______ _______ _____ _____    ______ ____
ROOT
ATOM      1  C   UNL     1       2.948   5.205  18.884  0.00  0.00    +0.000 A 
ATOM      2  C   UNL     1       3.717   5.398  17.747  0.00  0.00    +0.000 A 
ATOM      3  C   UNL     1       4.817   4.563  17.509  0.00  0.00    +0.000 A 
ATOM      4  C   UNL     1       5.099   3.597  18.485  0.00  0.00    +0.000 A 
ATOM      5  C   UNL     1       4.279   3.492  19.601  0.00  0.00    +0.000 A 
ATOM      6  N   UNL     1       3.200   4.270  19.817  0.00  0.00    +0.000 NA
ENDROOT
BRANCH   3   7
ATOM      7  C   UNL     1       5.625   4.686  16.276  0.00  0.00    +0.000 A 
ATOM      8  C   UNL     1       5.258   4.061  15.076  0.00  0.00    +0.000 A 
ATOM      9  C   UNL     1       6.019   4.231  13.915  0.00  0.00    +0.000 A 
ATOM     10  C   UNL     1       7.154   5.040  13.952  0.00  0.00    +0.000 A 
ATOM     11  N   UNL     1       7.544   5.648  15.106  0.00  0.00    +0.000 NA
ATOM     12  C   UNL     1       6.787   5.455  16.216  0.00  0.00    +0.000 A 
BRANCH  10  13
ATOM     13  C   UNL     1       7.973   5.265  12.688  0.00  0.00    +0.000 C 
ATOM     14  F   UNL     1       7.820   4.268  11.763  0.00  0.00    +0.000 F 
ATOM     15  F   UNL     1       7.641   6.414  12.034  0.00  0.00    +0.000 F 
ATOM     16  F   UNL     1       9.315   5.335  12.922  0.00  0.00    +0.000 F 
ENDBRANCH  10  13
ENDBRANCH   3   7
BRANCH   1  17
ATOM     17  O   UNL     1       1.907   6.086  19.079  0.00  0.00    +0.000 OA
BRANCH  17  25
ATOM     18  C   UNL     1      -0.510  10.938  19.033  0.00  0.00    +0.000 A 
ATOM     19  C   UNL     1       0.322  10.281  18.146  0.00  0.00    +0.000 A 
ATOM     20  N   UNL     1       0.969   9.366  18.926  0.00  0.00    +0.000 N 
ATOM     21  C   UNL     1       0.553   9.523  20.212  0.00  0.00    +0.000 A 
ATOM     22  N   UNL     1      -0.355  10.463  20.321  0.00  0.00    +0.000 NA
ATOM     23  O   UNL     1       1.107   8.878  21.226  0.00  0.00    +0.000 OA
ATOM     24  C   UNL     1       1.562   7.563  20.917  0.00  0.00    +0.000 C 
ATOM     25  C   UNL     1       2.311   7.380  19.576  0.00  0.00    +0.000 C 
ATOM     26  C   UNL     1       2.046   8.487  18.547  0.00  0.00    +0.000 C 
BRANCH  18  28
ATOM     27  O   UNL     1      -0.885  13.090  18.342  0.00  0.00    +0.000 OA
ATOM     28  N   UNL     1      -1.409  12.035  18.730  0.00  0.00    +0.000 N 
ATOM     29  O   UNL     1      -2.623  11.843  18.875  0.00  0.00    +0.000 OA
ENDBRANCH  18  28
ENDBRANCH  17  25
ENDBRANCH   1  17
TORSDOF 5
ENDMDL
MODEL 5
REMARK VINA RESULT:      -8.1      2.152      2.663
REMARK  Name = 
REMARK  5 active torsions:
REMARK  status: ('A' for Active; 'I' for Inactive)
REMARK    1  A    between atoms: N_2  and  C_4
REMARK    2  A    between atoms: C_11  and  O_12
REMARK    3  A    between atoms: O_12  and  C_13
REMARK    4  A    between atoms: C_15  and  C_16
REMARK    5  A    between atoms: C_19  and  C_20
REMARK                            x       y       z     vdW  Elec       q    Type
REMARK                         _______ _______ _______ _____ _____    ______ ____
ROOT
ATOM      1  C   UNL     1       2.721   4.799  18.671  0.00  0.00    +0.000 A 
ATOM      2  C   UNL     1       2.442   6.134  18.428  0.00  0.00    +0.000 A 
ATOM      3  C   UNL     1       1.994   6.948  19.477  0.00  0.00    +0.000 A 
ATOM      4  C   UNL     1       1.811   6.327  20.722  0.00  0.00    +0.000 A 
ATOM      5  C   UNL     1       2.102   4.976  20.863  0.00  0.00    +0.000 A 
ATOM      6  N   UNL     1       2.565   4.198  19.864  0.00  0.00    +0.000 NA
ENDROOT
BRANCH   3   7
ATOM      7  C   UNL     1       1.750   8.393  19.283  0.00  0.00    +0.000 A 
ATOM      8  C   UNL     1       2.125   9.064  18.110  0.00  0.00    +0.000 A 
ATOM      9  C   UNL     1       1.840  10.422  17.937  0.00  0.00    +0.000 A 
ATOM     10  C   UNL     1       1.168  11.115  18.943  0.00  0.00    +0.000 A 
ATOM     11  N   UNL     1       0.804  10.495  20.099  0.00  0.00    +0.000 NA
ATOM     12  C   UNL     1       1.103   9.178  20.237  0.00  0.00    +0.000 A 
BRANCH  10  13
ATOM     13  C   UNL     1       0.818  12.585  18.755  0.00  0.00    +0.000 C 
ATOM     14  F   UNL     1      -0.360  12.776  18.085  0.00  0.00    +0.000 F 
ATOM     15  F   UNL     1       0.673  13.255  19.933  0.00  0.00    +0.000 F 
ATOM     16  F   UNL     1       1.754  13.273  18.040  0.00  0.00    +0.000 F 
ENDBRANCH  10  13
ENDBRANCH   3   7
BRANCH   1  17
ATOM     17  O   UNL     1       3.117   4.045  17.587  0.00  0.00    +0.000 OA
BRANCH  17  25
ATOM     18  C   UNL     1       7.219   4.940  14.157  0.00  0.00    +0.000 A 
ATOM     19  C   UNL     1       6.257   3.951  14.253  0.00  0.00    +0.000 A 
ATOM     20  N   UNL     1       5.865   4.006  15.560  0.00  0.00    +0.000 N 
ATOM     21  C   UNL     1       6.603   4.959  16.192  0.00  0.00    +0.000 A 
ATOM     22  N   UNL     1       7.433   5.559  15.374  0.00  0.00    +0.000 NA
ATOM     23  O   UNL     1       6.556   5.146  17.502  0.00  0.00    +0.000 OA
ATOM     24  C   UNL     1       5.279   4.911  18.090  0.00  0.00    +0.000 C 
ATOM     25  C   UNL     1       4.508   3.659  17.611  0.00  0.00    +0.000 C 
ATOM     26  C   UNL     1       4.966   3.117  16.251  0.00  0.00    +0.000 C 
BRANCH  18  28
ATOM     27  O   UNL     1       8.969   6.028  13.157  0.00  0.00    +0.000 OA
ATOM     28  N   UNL     1       7.988   5.291  12.980  0.00  0.00    +0.000 N 
ATOM     29  O   UNL     1       7.619   4.832  11.891  0.00  0.00    +0.000 OA
ENDBRANCH  18  28
ENDBRANCH  17  25
ENDBRANCH   1  17
TORSDOF 5
ENDMDL
MODEL 6
REMARK VINA RESULT:      -8.1      2.337      2.828
REMARK  Name = 
REMARK  5 active torsions:
REMARK  status: ('A' for Active; 'I' for Inactive)
REMARK    1  A    between atoms: N_2  and  C_4
REMARK    2  A    between atoms: C_11  and  O_12
REMARK    3  A    between atoms: O_12  and  C_13
REMARK    4  A    between atoms: C_15  and  C_16
REMARK    5  A    between atoms: C_19  and  C_20
REMARK                            x       y       z     vdW  Elec       q    Type
REMARK                         _______ _______ _______ _____ _____    ______ ____
ROOT
ATOM      1  C   UNL     1       2.666   4.979  18.648  0.00  0.00    +0.000 A 
ATOM      2  C   UNL     1       2.398   6.312  18.378  0.00  0.00    +0.000 A 
ATOM      3  C   UNL     1       1.931   7.143  19.405  0.00  0.00    +0.000 A 
ATOM      4  C   UNL     1       1.715   6.542  20.654  0.00  0.00    +0.000 A 
ATOM      5  C   UNL     1       1.997   5.192  20.822  0.00  0.00    +0.000 A 
ATOM      6  N   UNL     1       2.479   4.397  19.846  0.00  0.00    +0.000 NA
ENDROOT
BRANCH   3   7
ATOM      7  C   UNL     1       1.698   8.586  19.183  0.00  0.00    +0.000 A 
ATOM      8  C   UNL     1       1.019   9.386  20.113  0.00  0.00    +0.000 A 
ATOM      9  C   UNL     1       0.853  10.757  19.896  0.00  0.00    +0.000 A 
ATOM     10  C   UNL     1       1.376  11.336  18.741  0.00  0.00    +0.000 A 
ATOM     11  N   UNL     1       2.027  10.584  17.812  0.00  0.00    +0.000 NA
ATOM     12  C   UNL     1       2.164   9.255  18.051  0.00  0.00    +0.000 A 
BRANCH  10  13
ATOM     13  C   UNL     1       1.236  12.835  18.507  0.00  0.00    +0.000 C 
ATOM     14  F   UNL     1       2.171  13.334  17.641  0.00  0.00    +0.000 F 
ATOM     15  F   UNL     1       0.031  13.182  17.971  0.00  0.00    +0.000 F 
ATOM     16  F   UNL     1       1.372  13.572  19.647  0.00  0.00    +0.000 F 
ENDBRANCH  10  13
ENDBRANCH   3   7
BRANCH   1  17
ATOM     17  O   UNL     1       3.083   4.207  17.585  0.00  0.00    +0.000 OA
BRANCH  17  25
ATOM     18  C   UNL     1       7.201   4.970  14.143  0.00  0.00    +0.000 A 
ATOM     19  C   UNL     1       6.245   3.980  14.279  0.00  0.00    +0.000 A 
ATOM     20  N   UNL     1       5.845   4.093  15.580  0.00  0.00    +0.000 N 
ATOM     21  C   UNL     1       6.572   5.080  16.171  0.00  0.00    +0.000 A 
ATOM     22  N   UNL     1       7.403   5.647  15.331  0.00  0.00    +0.000 NA
ATOM     23  O   UNL     1       6.514   5.328  17.470  0.00  0.00    +0.000 OA
ATOM     24  C   UNL     1       5.235   5.112  18.061  0.00  0.00    +0.000 C 
ATOM     25  C   UNL     1       4.476   3.833  17.636  0.00  0.00    +0.000 C 
ATOM     26  C   UNL     1       4.948   3.231  16.306  0.00  0.00    +0.000 C 
BRANCH  18  28
ATOM     27  O   UNL     1       7.602   4.740  11.899  0.00  0.00    +0.000 OA
ATOM     28  N   UNL     1       7.976   5.271  12.955  0.00  0.00    +0.000 N 
ATOM     29  O   UNL     1       8.944   6.034  13.076  0.00  0.00    +0.000 OA
ENDBRANCH  18  28
ENDBRANCH  17  25
ENDBRANCH   1  17
TORSDOF 5
ENDMDL
MODEL 7
REMARK VINA RESULT:      -8.1      6.426     10.039
REMARK  Name = 
REMARK  5 active torsions:
REMARK  status: ('A' for Active; 'I' for Inactive)
REMARK    1  A    between atoms: N_2  and  C_4
REMARK    2  A    between atoms: C_11  and  O_12
REMARK    3  A    between atoms: O_12  and  C_13
REMARK    4  A    between atoms: C_15  and  C_16
REMARK    5  A    between atoms: C_19  and  C_20
REMARK                            x       y       z     vdW  Elec       q    Type
REMARK                         _______ _______ _______ _____ _____    ______ ____
ROOT
ATOM      1  C   UNL     1       1.038   9.471  19.101  0.00  0.00    +0.000 A 
ATOM      2  C   UNL     1       1.885   8.768  18.259  0.00  0.00    +0.000 A 
ATOM      3  C   UNL     1       2.483   7.585  18.713  0.00  0.00    +0.000 A 
ATOM      4  C   UNL     1       2.212   7.209  20.037  0.00  0.00    +0.000 A 
ATOM      5  C   UNL     1       1.362   7.990  20.810  0.00  0.00    +0.000 A 
ATOM      6  N   UNL     1       0.759   9.110  20.366  0.00  0.00    +0.000 NA
ENDROOT
BRANCH   3   7
ATOM      7  C   UNL     1       3.338   6.764  17.829  0.00  0.00    +0.000 A 
ATOM      8  C   UNL     1       4.346   7.325  17.033  0.00  0.00    +0.000 A 
ATOM      9  C   UNL     1       5.169   6.518  16.240  0.00  0.00    +0.000 A 
ATOM     10  C   UNL     1       4.986   5.136  16.249  0.00  0.00    +0.000 A 
ATOM     11  N   UNL     1       4.006   4.563  17.000  0.00  0.00    +0.000 NA
ATOM     12  C   UNL     1       3.221   5.376  17.751  0.00  0.00    +0.000 A 
BRANCH  10  13
ATOM     13  C   UNL     1       5.897   4.240  15.420  0.00  0.00    +0.000 C 
ATOM     14  F   UNL     1       5.562   4.213  14.093  0.00  0.00    +0.000 F 
ATOM     15  F   UNL     1       7.203   4.630  15.451  0.00  0.00    +0.000 F 
ATOM     16  F   UNL     1       5.879   2.937  15.821  0.00  0.00    +0.000 F 
ENDBRANCH  10  13
ENDBRANCH   3   7
BRANCH   1  17
ATOM     17  O   UNL     1       0.517  10.648  18.608  0.00  0.00    +0.000 OA
BRANCH  17  25
ATOM     18  C   UNL     1       2.444  15.710  18.398  0.00  0.00    +0.000 A 
ATOM     19  C   UNL     1       2.989  14.500  18.785  0.00  0.00    +0.000 A 
ATOM     20  N   UNL     1       1.898  13.735  19.084  0.00  0.00    +0.000 N 
ATOM     21  C   UNL     1       0.780  14.491  18.913  0.00  0.00    +0.000 A 
ATOM     22  N   UNL     1       1.065  15.698  18.487  0.00  0.00    +0.000 NA
ATOM     23  O   UNL     1      -0.426  14.072  19.263  0.00  0.00    +0.000 OA
ATOM     24  C   UNL     1      -0.638  12.672  19.103  0.00  0.00    +0.000 C 
ATOM     25  C   UNL     1       0.505  11.734  19.559  0.00  0.00    +0.000 C 
ATOM     26  C   UNL     1       1.877  12.413  19.657  0.00  0.00    +0.000 C 
BRANCH  18  28
ATOM     27  O   UNL     1       2.710  17.535  17.037  0.00  0.00    +0.000 OA
ATOM     28  N   UNL     1       3.169  16.901  18.000  0.00  0.00    +0.000 N 
ATOM     29  O   UNL     1       4.182  17.202  18.644  0.00  0.00    +0.000 OA
ENDBRANCH  18  28
ENDBRANCH  17  25
ENDBRANCH   1  17
TORSDOF 5
ENDMDL
MODEL 8
REMARK VINA RESULT:      -8.1      1.917      2.638
REMARK  Name = 
REMARK  5 active torsions:
REMARK  status: ('A' for Active; 'I' for Inactive)
REMARK    1  A    between atoms: N_2  and  C_4
REMARK    2  A    between atoms: C_11  and  O_12
REMARK    3  A    between atoms: O_12  and  C_13
REMARK    4  A    between atoms: C_15  and  C_16
REMARK    5  A    between atoms: C_19  and  C_20
REMARK                            x       y       z     vdW  Elec       q    Type
REMARK                         _______ _______ _______ _____ _____    ______ ____
ROOT
ATOM      1  C   UNL     1       5.076   5.139  19.169  0.00  0.00    +0.000 A 
ATOM      2  C   UNL     1       4.368   6.328  19.258  0.00  0.00    +0.000 A 
ATOM      3  C   UNL     1       3.050   6.383  18.787  0.00  0.00    +0.000 A 
ATOM      4  C   UNL     1       2.541   5.215  18.199  0.00  0.00    +0.000 A 
ATOM      5  C   UNL     1       3.335   4.076  18.139  0.00  0.00    +0.000 A 
ATOM      6  N   UNL     1       4.591   4.010  18.623  0.00  0.00    +0.000 NA
ENDROOT
BRANCH   3   7
ATOM      7  C   UNL     1       2.232   7.607  18.924  0.00  0.00    +0.000 A 
ATOM      8  C   UNL     1       1.891   8.405  17.823  0.00  0.00    +0.000 A 
ATOM      9  C   UNL     1       1.079   9.533  17.978  0.00  0.00    +0.000 A 
ATOM     10  C   UNL     1       0.597   9.862  19.244  0.00  0.00    +0.000 A 
ATOM     11  N   UNL     1       0.922   9.114  20.334  0.00  0.00    +0.000 NA
ATOM     12  C   UNL     1       1.719   8.031  20.149  0.00  0.00    +0.000 A 
BRANCH  10  13
ATOM     13  C   UNL     1      -0.319  11.066  19.424  0.00  0.00    +0.000 C 
ATOM     14  F   UNL     1       0.265  12.246  19.049  0.00  0.00    +0.000 F 
ATOM     15  F   UNL     1      -1.463  10.983  18.687  0.00  0.00    +0.000 F 
ATOM     16  F   UNL     1      -0.711  11.254  20.716  0.00  0.00    +0.000 F 
ENDBRANCH  10  13
ENDBRANCH   3   7
BRANCH   1  17
ATOM     17  O   UNL     1       6.380   5.165  19.612  0.00  0.00    +0.000 OA
BRANCH  17  25
ATOM     18  C   UNL     1       6.324   4.384  14.248  0.00  0.00    +0.000 A 
ATOM     19  C   UNL     1       6.702   3.598  15.320  0.00  0.00    +0.000 A 
ATOM     20  N   UNL     1       6.955   4.502  16.312  0.00  0.00    +0.000 N 
ATOM     21  C   UNL     1       6.768   5.754  15.813  0.00  0.00    +0.000 A 
ATOM     22  N   UNL     1       6.374   5.729  14.563  0.00  0.00    +0.000 NA
ATOM     23  O   UNL     1       7.077   6.847  16.493  0.00  0.00    +0.000 OA
ATOM     24  C   UNL     1       6.883   6.745  17.902  0.00  0.00    +0.000 C 
ATOM     25  C   UNL     1       7.352   5.436  18.579  0.00  0.00    +0.000 C 
ATOM     26  C   UNL     1       7.502   4.247  17.621  0.00  0.00    +0.000 C 
BRANCH  18  28
ATOM     27  O   UNL     1       6.896   3.830  12.100  0.00  0.00    +0.000 OA
ATOM     28  N   UNL     1       5.969   3.928  12.919  0.00  0.00    +0.000 N 
ATOM     29  O   UNL     1       4.780   3.666  12.696  0.00  0.00    +0.000 OA
ENDBRANCH  18  28
ENDBRANCH  17  25
ENDBRANCH   1  17
TORSDOF 5
ENDMDL
MODEL 9
REMARK VINA RESULT:      -8.1      2.434      3.787
REMARK  Name = 
REMARK  5 active torsions:
REMARK  status: ('A' for Active; 'I' for Inactive)
REMARK    1  A    between atoms: N_2  and  C_4
REMARK    2  A    between atoms: C_11  and  O_12
REMARK    3  A    between atoms: O_12  and  C_13
REMARK    4  A    between atoms: C_15  and  C_16
REMARK    5  A    between atoms: C_19  and  C_20
REMARK                            x       y       z     vdW  Elec       q    Type
REMARK                         _______ _______ _______ _____ _____    ______ ____
ROOT
ATOM      1  C   UNL     1       1.574   8.612  19.767  0.00  0.00    +0.000 A 
ATOM      2  C   UNL     1       0.763   9.272  20.677  0.00  0.00    +0.000 A 
ATOM      3  C   UNL     1       0.025  10.388  20.261  0.00  0.00    +0.000 A 
ATOM      4  C   UNL     1       0.199  10.799  18.931  0.00  0.00    +0.000 A 
ATOM      5  C   UNL     1       1.049  10.082  18.098  0.00  0.00    +0.000 A 
ATOM      6  N   UNL     1       1.734   8.988  18.485  0.00  0.00    +0.000 NA
ENDROOT
BRANCH   3   7
ATOM      7  C   UNL     1      -0.905  11.082  21.176  0.00  0.00    +0.000 A 
ATOM      8  C   UNL     1      -1.850  12.012  20.719  0.00  0.00    +0.000 A 
ATOM      9  C   UNL     1      -2.748  12.619  21.603  0.00  0.00    +0.000 A 
ATOM     10  C   UNL     1      -2.704  12.290  22.956  0.00  0.00    +0.000 A 
ATOM     11  N   UNL     1      -1.789  11.402  23.433  0.00  0.00    +0.000 NA
ATOM     12  C   UNL     1      -0.928  10.837  22.549  0.00  0.00    +0.000 A 
BRANCH  10  13
ATOM     13  C   UNL     1      -3.698  12.914  23.927  0.00  0.00    +0.000 C 
ATOM     14  F   UNL     1      -3.155  13.921  24.679  0.00  0.00    +0.000 F 
ATOM     15  F   UNL     1      -4.774  13.474  23.304  0.00  0.00    +0.000 F 
ATOM     16  F   UNL     1      -4.202  12.024  24.828  0.00  0.00    +0.000 F 
ENDBRANCH  10  13
ENDBRANCH   3   7
BRANCH   1  17
ATOM     17  O   UNL     1       2.304   7.548  20.251  0.00  0.00    +0.000 OA
BRANCH  17  25
ATOM     18  C   UNL     1       6.250   4.869  17.676  0.00  0.00    +0.000 A 
ATOM     19  C   UNL     1       5.453   5.946  17.336  0.00  0.00    +0.000 A 
ATOM     20  N   UNL     1       4.367   5.815  18.153  0.00  0.00    +0.000 N 
ATOM     21  C   UNL     1       4.520   4.687  18.899  0.00  0.00    +0.000 A 
ATOM     22  N   UNL     1       5.658   4.085  18.648  0.00  0.00    +0.000 NA
ATOM     23  O   UNL     1       3.564   4.212  19.682  0.00  0.00    +0.000 OA
ATOM     24  C   UNL     1       2.747   5.208  20.292  0.00  0.00    +0.000 C 
ATOM     25  C   UNL     1       2.293   6.385  19.397  0.00  0.00    +0.000 C 
ATOM     26  C   UNL     1       3.156   6.596  18.145  0.00  0.00    +0.000 C 
BRANCH  18  28
ATOM     27  O   UNL     1       8.387   4.060  17.854  0.00  0.00    +0.000 OA
ATOM     28  N   UNL     1       7.526   4.513  17.085  0.00  0.00    +0.000 N 
ATOM     29  O   UNL     1       7.664   4.680  15.866  0.00  0.00    +0.000 OA
ENDBRANCH  18  28
ENDBRANCH  17  25
ENDBRANCH   1  17
TORSDOF 5
ENDMDL
