MODEL 1
REMARK VINA RESULT:      -8.5      0.000      0.000
REMARK  Name = 
REMARK  6 active torsions:
REMARK  status: ('A' for Active; 'I' for Inactive)
REMARK    1  A    between atoms: C_1  and  C_2
REMARK    2  A    between atoms: C_5  and  C_6
REMARK    3  A    between atoms: C_7  and  O_8
REMARK    4  A    between atoms: O_8  and  C_9
REMARK    5  A    between atoms: C_9  and  C_11
REMARK    6  A    between atoms: C_11  and  N_12
REMARK                            x       y       z     vdW  Elec       q    Type
REMARK                         _______ _______ _______ _____ _____    ______ ____
ROOT
ATOM      1  C   UNL     1       5.354   5.727  17.955  0.00  0.00    +0.000 C 
ENDROOT
BRANCH   1   2
ATOM      2  N   UNL     1       5.788   5.247  16.664  0.00  0.00    +0.000 N 
ATOM      3  C   UNL     1       5.036   4.402  15.894  0.00  0.00    +0.000 C 
ATOM      4  O   UNL     1       3.962   3.893  16.148  0.00  0.00    +0.000 OA
ATOM      5  C   UNL     1       5.747   4.254  14.627  0.00  0.00    +0.000 A 
ATOM      6  C   UNL     1       5.429   3.515  13.504  0.00  0.00    +0.000 A 
ATOM      7  C   UNL     1       6.292   3.620  12.409  0.00  0.00    +0.000 A 
ATOM      8  C   UNL     1       7.428   4.456  12.459  0.00  0.00    +0.000 A 
ATOM      9  C   UNL     1       7.726   5.196  13.609  0.00  0.00    +0.000 A 
ATOM     10  C   UNL     1       6.868   5.066  14.682  0.00  0.00    +0.000 A 
ATOM     11  C   UNL     1       6.882   5.715  15.994  0.00  0.00    +0.000 C 
ATOM     12  O   UNL     1       7.696   6.548  16.341  0.00  0.00    +0.000 OA
ENDBRANCH   1   2
BRANCH   1  13
ATOM     13  C   UNL     1       5.915   4.886  19.088  0.00  0.00    +0.000 C 
ATOM     14  O   UNL     1       6.939   5.124  19.712  0.00  0.00    +0.000 OA
BRANCH  13  15
ATOM     15  O   UNL     1       5.116   3.755  19.230  0.00  0.00    +0.000 OA
BRANCH  15  22
ATOM     16  C   UNL     1       1.198   6.290  20.953  0.00  0.00    +0.000 C 
ATOM     17  C   UNL     1       1.809   5.038  20.397  0.00  0.00    +0.000 A 
ATOM     18  C   UNL     1       1.013   3.942  20.043  0.00  0.00    +0.000 A 
ATOM     19  C   UNL     1       1.592   2.789  19.507  0.00  0.00    +0.000 A 
ATOM     20  C   UNL     1       2.973   2.722  19.291  0.00  0.00    +0.000 A 
ATOM     21  C   UNL     1       3.583   1.488  18.686  0.00  0.00    +0.000 C 
ATOM     22  C   UNL     1       3.760   3.837  19.620  0.00  0.00    +0.000 A 
ATOM     23  C   UNL     1       3.193   4.976  20.193  0.00  0.00    +0.000 A 
ENDBRANCH  15  22
ENDBRANCH  13  15
ENDBRANCH   1  13
TORSDOF 4
ENDMDL
MODEL 2
REMARK VINA RESULT:      -8.4      2.306      4.239
REMARK  Name = 
REMARK  6 active torsions:
REMARK  status: ('A' for Active; 'I' for Inactive)
REMARK    1  A    between atoms: C_1  and  C_2
REMARK    2  A    between atoms: C_5  and  C_6
REMARK    3  A    between atoms: C_7  and  O_8
REMARK    4  A    between atoms: O_8  and  C_9
REMARK    5  A    between atoms: C_9  and  C_11
REMARK    6  A    between atoms: C_11  and  N_12
REMARK                            x       y       z     vdW  Elec       q    Type
REMARK                         _______ _______ _______ _____ _____    ______ ____
ROOT
ATOM      1  C   UNL     1       3.428   3.794  19.878  0.00  0.00    +0.000 C 
ENDROOT
BRANCH   1   2
ATOM      2  N   UNL     1       4.196   4.103  18.695  0.00  0.00    +0.000 N 
ATOM      3  C   UNL     1       5.492   4.540  18.743  0.00  0.00    +0.000 C 
ATOM      4  O   UNL     1       6.179   4.780  19.717  0.00  0.00    +0.000 OA
ATOM      5  C   UNL     1       5.954   4.617  17.360  0.00  0.00    +0.000 A 
ATOM      6  C   UNL     1       7.177   5.001  16.847  0.00  0.00    +0.000 A 
ATOM      7  C   UNL     1       7.340   4.916  15.460  0.00  0.00    +0.000 A 
ATOM      8  C   UNL     1       6.295   4.446  14.637  0.00  0.00    +0.000 A 
ATOM      9  C   UNL     1       5.066   4.062  15.183  0.00  0.00    +0.000 A 
ATOM     10  C   UNL     1       4.924   4.168  16.551  0.00  0.00    +0.000 A 
ATOM     11  C   UNL     1       3.796   3.825  17.420  0.00  0.00    +0.000 C 
ATOM     12  O   UNL     1       2.755   3.330  17.033  0.00  0.00    +0.000 OA
ENDBRANCH   1   2
BRANCH   1  13
ATOM     13  C   UNL     1       2.345   4.827  20.134  0.00  0.00    +0.000 C 
ATOM     14  O   UNL     1       1.164   4.586  20.336  0.00  0.00    +0.000 OA
BRANCH  13  15
ATOM     15  O   UNL     1       2.911   6.093  20.010  0.00  0.00    +0.000 OA
BRANCH  15  22
ATOM     16  C   UNL     1      -0.110   9.587  21.856  0.00  0.00    +0.000 C 
ATOM     17  C   UNL     1       0.701   9.015  20.731  0.00  0.00    +0.000 A 
ATOM     18  C   UNL     1       0.882   9.725  19.538  0.00  0.00    +0.000 A 
ATOM     19  C   UNL     1       1.657   9.190  18.506  0.00  0.00    +0.000 A 
ATOM     20  C   UNL     1       2.286   7.949  18.658  0.00  0.00    +0.000 A 
ATOM     21  C   UNL     1       3.142   7.395  17.554  0.00  0.00    +0.000 C 
ATOM     22  C   UNL     1       2.124   7.258  19.870  0.00  0.00    +0.000 A 
ATOM     23  C   UNL     1       1.319   7.768  20.889  0.00  0.00    +0.000 A 
ENDBRANCH  15  22
ENDBRANCH  13  15
ENDBRANCH   1  13
TORSDOF 4
ENDMDL
MODEL 3
REMARK VINA RESULT:      -8.4      2.258      3.843
REMARK  Name = 
REMARK  6 active torsions:
REMARK  status: ('A' for Active; 'I' for Inactive)
REMARK    1  A    between atoms: C_1  and  C_2
REMARK    2  A    between atoms: C_5  and  C_6
REMARK    3  A    between atoms: C_7  and  O_8
REMARK    4  A    between atoms: O_8  and  C_9
REMARK    5  A    between atoms: C_9  and  C_11
REMARK    6  A    between atoms: C_11  and  N_12
REMARK                            x       y       z     vdW  Elec       q    Type
REMARK                         _______ _______ _______ _____ _____    ______ ____
ROOT
ATOM      1  C   UNL     1       3.523   3.644  19.950  0.00  0.00    +0.000 C 
ENDROOT
BRANCH   1   2
ATOM      2  N   UNL     1       4.356   3.836  18.786  0.00  0.00    +0.000 N 
ATOM      3  C   UNL     1       3.918   3.598  17.512  0.00  0.00    +0.000 C 
ATOM      4  O   UNL     1       2.842   3.167  17.144  0.00  0.00    +0.000 OA
ATOM      5  C   UNL     1       4.991   4.026  16.619  0.00  0.00    +0.000 A 
ATOM      6  C   UNL     1       5.069   4.004  15.240  0.00  0.00    +0.000 A 
ATOM      7  C   UNL     1       6.222   4.543  14.659  0.00  0.00    +0.000 A 
ATOM      8  C   UNL     1       7.247   5.091  15.460  0.00  0.00    +0.000 A 
ATOM      9  C   UNL     1       7.142   5.102  16.855  0.00  0.00    +0.000 A 
ATOM     10  C   UNL     1       6.002   4.553  17.405  0.00  0.00    +0.000 A 
ATOM     11  C   UNL     1       5.581   4.439  18.803  0.00  0.00    +0.000 C 
ATOM     12  O   UNL     1       6.209   4.874  19.749  0.00  0.00    +0.000 OA
ENDBRANCH   1   2
BRANCH   1  13
ATOM     13  C   UNL     1       2.411   4.675  20.024  0.00  0.00    +0.000 C 
ATOM     14  O   UNL     1       1.213   4.431  20.027  0.00  0.00    +0.000 OA
BRANCH  13  15
ATOM     15  O   UNL     1       2.987   5.942  19.996  0.00  0.00    +0.000 OA
BRANCH  15  22
ATOM     16  C   UNL     1      -0.022   9.499  21.739  0.00  0.00    +0.000 C 
ATOM     17  C   UNL     1       0.800   8.901  20.637  0.00  0.00    +0.000 A 
ATOM     18  C   UNL     1       1.009   9.590  19.437  0.00  0.00    +0.000 A 
ATOM     19  C   UNL     1       1.794   9.030  18.426  0.00  0.00    +0.000 A 
ATOM     20  C   UNL     1       2.405   7.785  18.607  0.00  0.00    +0.000 A 
ATOM     21  C   UNL     1       3.272   7.204  17.525  0.00  0.00    +0.000 C 
ATOM     22  C   UNL     1       2.215   7.114  19.826  0.00  0.00    +0.000 A 
ATOM     23  C   UNL     1       1.401   7.649  20.824  0.00  0.00    +0.000 A 
ENDBRANCH  15  22
ENDBRANCH  13  15
ENDBRANCH   1  13
TORSDOF 4
ENDMDL
MODEL 4
REMARK VINA RESULT:      -8.1      0.177      1.830
REMARK  Name = 
REMARK  6 active torsions:
REMARK  status: ('A' for Active; 'I' for Inactive)
REMARK    1  A    between atoms: C_1  and  C_2
REMARK    2  A    between atoms: C_5  and  C_6
REMARK    3  A    between atoms: C_7  and  O_8
REMARK    4  A    between atoms: O_8  and  C_9
REMARK    5  A    between atoms: C_9  and  C_11
REMARK    6  A    between atoms: C_11  and  N_12
REMARK                            x       y       z     vdW  Elec       q    Type
REMARK                         _______ _______ _______ _____ _____    ______ ____
ROOT
ATOM      1  C   UNL     1       5.264   5.634  17.926  0.00  0.00    +0.000 C 
ENDROOT
BRANCH   1   2
ATOM      2  N   UNL     1       5.588   5.318  16.554  0.00  0.00    +0.000 N 
ATOM      3  C   UNL     1       6.723   5.764  15.936  0.00  0.00    +0.000 C 
ATOM      4  O   UNL     1       7.589   6.497  16.372  0.00  0.00    +0.000 OA
ATOM      5  C   UNL     1       6.752   5.134  14.619  0.00  0.00    +0.000 A 
ATOM      6  C   UNL     1       7.674   5.243  13.596  0.00  0.00    +0.000 A 
ATOM      7  C   UNL     1       7.456   4.462  12.457  0.00  0.00    +0.000 A 
ATOM      8  C   UNL     1       6.345   3.596  12.376  0.00  0.00    +0.000 A 
ATOM      9  C   UNL     1       5.427   3.503  13.428  0.00  0.00    +0.000 A 
ATOM     10  C   UNL     1       5.655   4.294  14.535  0.00  0.00    +0.000 A 
ATOM     11  C   UNL     1       4.913   4.406  15.792  0.00  0.00    +0.000 C 
ATOM     12  O   UNL     1       3.933   3.745  16.075  0.00  0.00    +0.000 OA
ENDBRANCH   1   2
BRANCH   1  13
ATOM     13  C   UNL     1       5.992   4.726  18.901  0.00  0.00    +0.000 C 
ATOM     14  O   UNL     1       7.132   4.889  19.310  0.00  0.00    +0.000 OA
BRANCH  13  15
ATOM     15  O   UNL     1       5.174   3.633  19.175  0.00  0.00    +0.000 OA
BRANCH  15  22
ATOM     16  C   UNL     1       1.378   6.356  20.884  0.00  0.00    +0.000 C 
ATOM     17  C   UNL     1       1.927   5.079  20.320  0.00  0.00    +0.000 A 
ATOM     18  C   UNL     1       1.078   4.032  19.946  0.00  0.00    +0.000 A 
ATOM     19  C   UNL     1       1.601   2.855  19.403  0.00  0.00    +0.000 A 
ATOM     20  C   UNL     1       2.978   2.716  19.201  0.00  0.00    +0.000 A 
ATOM     21  C   UNL     1       3.529   1.458  18.589  0.00  0.00    +0.000 C 
ATOM     22  C   UNL     1       3.820   3.784  19.552  0.00  0.00    +0.000 A 
ATOM     23  C   UNL     1       3.308   4.945  20.131  0.00  0.00    +0.000 A 
ENDBRANCH  15  22
ENDBRANCH  13  15
ENDBRANCH   1  13
TORSDOF 4
ENDMDL
MODEL 5
REMARK VINA RESULT:      -7.5      2.943      7.354
REMARK  Name = 
REMARK  6 active torsions:
REMARK  status: ('A' for Active; 'I' for Inactive)
REMARK    1  A    between atoms: C_1  and  C_2
REMARK    2  A    between atoms: C_5  and  C_6
REMARK    3  A    between atoms: C_7  and  O_8
REMARK    4  A    between atoms: O_8  and  C_9
REMARK    5  A    between atoms: C_9  and  C_11
REMARK    6  A    between atoms: C_11  and  N_12
REMARK                            x       y       z     vdW  Elec       q    Type
REMARK                         _______ _______ _______ _____ _____    ______ ____
ROOT
ATOM      1  C   UNL     1       3.252   6.791  17.997  0.00  0.00    +0.000 C 
ENDROOT
BRANCH   1   2
ATOM      2  N   UNL     1       2.337   7.586  18.783  0.00  0.00    +0.000 N 
ATOM      3  C   UNL     1       2.014   7.285  20.078  0.00  0.00    +0.000 C 
ATOM      4  O   UNL     1       2.370   6.338  20.751  0.00  0.00    +0.000 OA
ATOM      5  C   UNL     1       1.175   8.379  20.559  0.00  0.00    +0.000 A 
ATOM      6  C   UNL     1       0.579   8.574  21.790  0.00  0.00    +0.000 A 
ATOM      7  C   UNL     1      -0.130   9.765  21.972  0.00  0.00    +0.000 A 
ATOM      8  C   UNL     1      -0.215  10.722  20.939  0.00  0.00    +0.000 A 
ATOM      9  C   UNL     1       0.400  10.501  19.702  0.00  0.00    +0.000 A 
ATOM     10  C   UNL     1       1.082   9.312  19.541  0.00  0.00    +0.000 A 
ATOM     11  C   UNL     1       1.845   8.801  18.400  0.00  0.00    +0.000 C 
ATOM     12  O   UNL     1       2.027   9.411  17.364  0.00  0.00    +0.000 OA
ENDBRANCH   1   2
BRANCH   1  13
ATOM     13  C   UNL     1       2.804   5.344  17.901  0.00  0.00    +0.000 C 
ATOM     14  O   UNL     1       1.660   4.966  17.692  0.00  0.00    +0.000 OA
BRANCH  13  15
ATOM     15  O   UNL     1       3.897   4.528  18.179  0.00  0.00    +0.000 OA
BRANCH  15  22
ATOM     16  C   UNL     1       5.935   3.853  13.693  0.00  0.00    +0.000 C 
ATOM     17  C   UNL     1       6.053   4.190  15.149  0.00  0.00    +0.000 A 
ATOM     18  C   UNL     1       7.260   4.648  15.689  0.00  0.00    +0.000 A 
ATOM     19  C   UNL     1       7.351   4.978  17.044  0.00  0.00    +0.000 A 
ATOM     20  C   UNL     1       6.230   4.881  17.876  0.00  0.00    +0.000 A 
ATOM     21  C   UNL     1       6.330   5.267  19.325  0.00  0.00    +0.000 C 
ATOM     22  C   UNL     1       5.015   4.450  17.319  0.00  0.00    +0.000 A 
ATOM     23  C   UNL     1       4.928   4.081  15.977  0.00  0.00    +0.000 A 
ENDBRANCH  15  22
ENDBRANCH  13  15
ENDBRANCH   1  13
TORSDOF 4
ENDMDL
MODEL 6
REMARK VINA RESULT:      -7.5      2.273      4.042
REMARK  Name = 
REMARK  6 active torsions:
REMARK  status: ('A' for Active; 'I' for Inactive)
REMARK    1  A    between atoms: C_1  and  C_2
REMARK    2  A    between atoms: C_5  and  C_6
REMARK    3  A    between atoms: C_7  and  O_8
REMARK    4  A    between atoms: O_8  and  C_9
REMARK    5  A    between atoms: C_9  and  C_11
REMARK    6  A    between atoms: C_11  and  N_12
REMARK                            x       y       z     vdW  Elec       q    Type
REMARK                         _______ _______ _______ _____ _____    ______ ____
ROOT
ATOM      1  C   UNL     1       3.630   2.407  17.461  0.00  0.00    +0.000 C 
ENDROOT
BRANCH   1   2
ATOM      2  N   UNL     1       4.548   3.506  17.654  0.00  0.00    +0.000 N 
ATOM      3  C   UNL     1       5.245   3.698  18.815  0.00  0.00    +0.000 C 
ATOM      4  O   UNL     1       5.195   3.058  19.847  0.00  0.00    +0.000 OA
ATOM      5  C   UNL     1       6.147   4.821  18.575  0.00  0.00    +0.000 A 
ATOM      6  C   UNL     1       7.066   5.424  19.412  0.00  0.00    +0.000 A 
ATOM      7  C   UNL     1       7.836   6.459  18.871  0.00  0.00    +0.000 A 
ATOM      8  C   UNL     1       7.678   6.850  17.524  0.00  0.00    +0.000 A 
ATOM      9  C   UNL     1       6.742   6.220  16.697  0.00  0.00    +0.000 A 
ATOM     10  C   UNL     1       5.984   5.212  17.257  0.00  0.00    +0.000 A 
ATOM     11  C   UNL     1       4.959   4.352  16.663  0.00  0.00    +0.000 C 
ATOM     12  O   UNL     1       4.626   4.384  15.494  0.00  0.00    +0.000 OA
ENDBRANCH   1   2
BRANCH   1  13
ATOM     13  C   UNL     1       2.496   2.436  18.470  0.00  0.00    +0.000 C 
ATOM     14  O   UNL     1       2.286   1.592  19.329  0.00  0.00    +0.000 OA
BRANCH  13  15
ATOM     15  O   UNL     1       1.689   3.536  18.190  0.00  0.00    +0.000 OA
BRANCH  15  22
ATOM     16  C   UNL     1       2.780   8.372  17.789  0.00  0.00    +0.000 C 
ATOM     17  C   UNL     1       2.399   7.178  18.612  0.00  0.00    +0.000 A 
ATOM     18  C   UNL     1       2.064   7.310  19.964  0.00  0.00    +0.000 A 
ATOM     19  C   UNL     1       1.691   6.191  20.714  0.00  0.00    +0.000 A 
ATOM     20  C   UNL     1       1.622   4.927  20.120  0.00  0.00    +0.000 A 
ATOM     21  C   UNL     1       1.192   3.735  20.928  0.00  0.00    +0.000 C 
ATOM     22  C   UNL     1       1.932   4.808  18.755  0.00  0.00    +0.000 A 
ATOM     23  C   UNL     1       2.343   5.914  18.010  0.00  0.00    +0.000 A 
ENDBRANCH  15  22
ENDBRANCH  13  15
ENDBRANCH   1  13
TORSDOF 4
ENDMDL
MODEL 7
REMARK VINA RESULT:      -7.4      1.073      2.300
REMARK  Name = 
REMARK  6 active torsions:
REMARK  status: ('A' for Active; 'I' for Inactive)
REMARK    1  A    between atoms: C_1  and  C_2
REMARK    2  A    between atoms: C_5  and  C_6
REMARK    3  A    between atoms: C_7  and  O_8
REMARK    4  A    between atoms: O_8  and  C_9
REMARK    5  A    between atoms: C_9  and  C_11
REMARK    6  A    between atoms: C_11  and  N_12
REMARK                            x       y       z     vdW  Elec       q    Type
REMARK                         _______ _______ _______ _____ _____    ______ ____
ROOT
ATOM      1  C   UNL     1       5.887   5.313  17.980  0.00  0.00    +0.000 C 
ENDROOT
BRANCH   1   2
ATOM      2  N   UNL     1       6.205   4.954  16.617  0.00  0.00    +0.000 N 
ATOM      3  C   UNL     1       5.474   4.052  15.896  0.00  0.00    +0.000 C 
ATOM      4  O   UNL     1       4.516   3.391  16.250  0.00  0.00    +0.000 OA
ATOM      5  C   UNL     1       6.025   4.058  14.544  0.00  0.00    +0.000 A 
ATOM      6  C   UNL     1       5.659   3.335  13.425  0.00  0.00    +0.000 A 
ATOM      7  C   UNL     1       6.350   3.604  12.239  0.00  0.00    +0.000 A 
ATOM      8  C   UNL     1       7.366   4.583  12.200  0.00  0.00    +0.000 A 
ATOM      9  C   UNL     1       7.715   5.303  13.347  0.00  0.00    +0.000 A 
ATOM     10  C   UNL     1       7.030   5.010  14.509  0.00  0.00    +0.000 A 
ATOM     11  C   UNL     1       7.133   5.595  15.847  0.00  0.00    +0.000 C 
ATOM     12  O   UNL     1       7.873   6.514  16.141  0.00  0.00    +0.000 OA
ENDBRANCH   1   2
BRANCH   1  13
ATOM     13  C   UNL     1       4.644   6.181  18.059  0.00  0.00    +0.000 C 
ATOM     14  O   UNL     1       4.286   6.990  17.216  0.00  0.00    +0.000 OA
BRANCH  13  15
ATOM     15  O   UNL     1       4.036   5.962  19.292  0.00  0.00    +0.000 OA
BRANCH  15  22
ATOM     16  C   UNL     1       1.941   1.470  18.866  0.00  0.00    +0.000 C 
ATOM     17  C   UNL     1       1.898   2.900  19.316  0.00  0.00    +0.000 A 
ATOM     18  C   UNL     1       0.841   3.379  20.100  0.00  0.00    +0.000 A 
ATOM     19  C   UNL     1       0.824   4.708  20.531  0.00  0.00    +0.000 A 
ATOM     20  C   UNL     1       1.873   5.574  20.207  0.00  0.00    +0.000 A 
ATOM     21  C   UNL     1       1.860   6.994  20.699  0.00  0.00    +0.000 C 
ATOM     22  C   UNL     1       2.944   5.078  19.445  0.00  0.00    +0.000 A 
ATOM     23  C   UNL     1       2.949   3.763  18.980  0.00  0.00    +0.000 A 
ENDBRANCH  15  22
ENDBRANCH  13  15
ENDBRANCH   1  13
TORSDOF 4
ENDMDL
MODEL 8
REMARK VINA RESULT:      -7.4      2.353      4.109
REMARK  Name = 
REMARK  6 active torsions:
REMARK  status: ('A' for Active; 'I' for Inactive)
REMARK    1  A    between atoms: C_1  and  C_2
REMARK    2  A    between atoms: C_5  and  C_6
REMARK    3  A    between atoms: C_7  and  O_8
REMARK    4  A    between atoms: O_8  and  C_9
REMARK    5  A    between atoms: C_9  and  C_11
REMARK    6  A    between atoms: C_11  and  N_12
REMARK                            x       y       z     vdW  Elec       q    Type
REMARK                         _______ _______ _______ _____ _____    ______ ____
ROOT
ATOM      1  C   UNL     1       4.073   3.238  16.952  0.00  0.00    +0.000 C 
ENDROOT
BRANCH   1   2
ATOM      2  N   UNL     1       5.125   4.184  17.243  0.00  0.00    +0.000 N 
ATOM      3  C   UNL     1       5.415   5.247  16.433  0.00  0.00    +0.000 C 
ATOM      4  O   UNL     1       4.913   5.552  15.369  0.00  0.00    +0.000 OA
ATOM      5  C   UNL     1       6.437   6.028  17.124  0.00  0.00    +0.000 A 
ATOM      6  C   UNL     1       7.080   7.191  16.748  0.00  0.00    +0.000 A 
ATOM      7  C   UNL     1       7.986   7.740  17.661  0.00  0.00    +0.000 A 
ATOM      8  C   UNL     1       8.215   7.128  18.911  0.00  0.00    +0.000 A 
ATOM      9  C   UNL     1       7.549   5.950  19.268  0.00  0.00    +0.000 A 
ATOM     10  C   UNL     1       6.671   5.419  18.346  0.00  0.00    +0.000 A 
ATOM     11  C   UNL     1       5.811   4.236  18.423  0.00  0.00    +0.000 C 
ATOM     12  O   UNL     1       5.718   3.515  19.397  0.00  0.00    +0.000 OA
ENDBRANCH   1   2
BRANCH   1  13
ATOM     13  C   UNL     1       2.727   3.717  17.466  0.00  0.00    +0.000 C 
ATOM     14  O   UNL     1       1.697   3.783  16.811  0.00  0.00    +0.000 OA
BRANCH  13  15
ATOM     15  O   UNL     1       2.889   4.152  18.779  0.00  0.00    +0.000 OA
BRANCH  15  22
ATOM     16  C   UNL     1       2.252   8.986  17.795  0.00  0.00    +0.000 C 
ATOM     17  C   UNL     1       2.204   7.822  18.740  0.00  0.00    +0.000 A 
ATOM     18  C   UNL     1       1.655   7.955  20.021  0.00  0.00    +0.000 A 
ATOM     19  C   UNL     1       1.598   6.857  20.884  0.00  0.00    +0.000 A 
ATOM     20  C   UNL     1       2.064   5.604  20.474  0.00  0.00    +0.000 A 
ATOM     21  C   UNL     1       1.971   4.423  21.399  0.00  0.00    +0.000 C 
ATOM     22  C   UNL     1       2.586   5.473  19.176  0.00  0.00    +0.000 A 
ATOM     23  C   UNL     1       2.682   6.573  18.324  0.00  0.00    +0.000 A 
ENDBRANCH  15  22
ENDBRANCH  13  15
ENDBRANCH   1  13
TORSDOF 4
ENDMDL
MODEL 9
REMARK VINA RESULT:      -7.4      2.945      7.407
REMARK  Name = 
REMARK  6 active torsions:
REMARK  status: ('A' for Active; 'I' for Inactive)
REMARK    1  A    between atoms: C_1  and  C_2
REMARK    2  A    between atoms: C_5  and  C_6
REMARK    3  A    between atoms: C_7  and  O_8
REMARK    4  A    between atoms: O_8  and  C_9
REMARK    5  A    between atoms: C_9  and  C_11
REMARK    6  A    between atoms: C_11  and  N_12
REMARK                            x       y       z     vdW  Elec       q    Type
REMARK                         _______ _______ _______ _____ _____    ______ ____
ROOT
ATOM      1  C   UNL     1       3.249   6.874  17.907  0.00  0.00    +0.000 C 
ENDROOT
BRANCH   1   2
ATOM      2  N   UNL     1       2.471   7.699  18.802  0.00  0.00    +0.000 N 
ATOM      3  C   UNL     1       1.876   8.866  18.410  0.00  0.00    +0.000 C 
ATOM      4  O   UNL     1       1.924   9.419  17.328  0.00  0.00    +0.000 OA
ATOM      5  C   UNL     1       1.087   9.331  19.547  0.00  0.00    +0.000 A 
ATOM      6  C   UNL     1       0.296  10.455  19.686  0.00  0.00    +0.000 A 
ATOM      7  C   UNL     1      -0.391  10.603  20.895  0.00  0.00    +0.000 A 
ATOM      8  C   UNL     1      -0.282   9.632  21.913  0.00  0.00    +0.000 A 
ATOM      9  C   UNL     1       0.524   8.501  21.745  0.00  0.00    +0.000 A 
ATOM     10  C   UNL     1       1.205   8.384  20.550  0.00  0.00    +0.000 A 
ATOM     11  C   UNL     1       2.089   7.326  20.059  0.00  0.00    +0.000 C 
ATOM     12  O   UNL     1       2.346   6.305  20.668  0.00  0.00    +0.000 OA
ENDBRANCH   1   2
BRANCH   1  13
ATOM     13  C   UNL     1       2.763   5.436  17.898  0.00  0.00    +0.000 C 
ATOM     14  O   UNL     1       1.607   5.076  17.730  0.00  0.00    +0.000 OA
BRANCH  13  15
ATOM     15  O   UNL     1       3.840   4.608  18.204  0.00  0.00    +0.000 OA
BRANCH  15  22
ATOM     16  C   UNL     1       5.898   3.864  13.737  0.00  0.00    +0.000 C 
ATOM     17  C   UNL     1       6.012   4.197  15.195  0.00  0.00    +0.000 A 
ATOM     18  C   UNL     1       7.229   4.614  15.746  0.00  0.00    +0.000 A 
ATOM     19  C   UNL     1       7.318   4.941  17.102  0.00  0.00    +0.000 A 
ATOM     20  C   UNL     1       6.187   4.883  17.923  0.00  0.00    +0.000 A 
ATOM     21  C   UNL     1       6.286   5.265  19.374  0.00  0.00    +0.000 C 
ATOM     22  C   UNL     1       4.963   4.493  17.355  0.00  0.00    +0.000 A 
ATOM     23  C   UNL     1       4.877   4.127  16.011  0.00  0.00    +0.000 A 
ENDBRANCH  15  22
ENDBRANCH  13  15
ENDBRANCH   1  13
TORSDOF 4
ENDMDL
