MODEL 1
REMARK VINA RESULT:      -7.9      0.000      0.000
REMARK  Name = 
REMARK  9 active torsions:
REMARK  status: ('A' for Active; 'I' for Inactive)
REMARK    1  A    between atoms: C_1  and  C_2
REMARK    2  A    between atoms: C_5  and  S_6
REMARK    3  A    between atoms: S_6  and  N_9
REMARK    4  A    between atoms: N_14  and  C_15
REMARK    5  A    between atoms: C_15  and  C_16
REMARK    6  A    between atoms: C_16  and  O_17
REMARK    7  A    between atoms: O_17  and  C_18
REMARK    8  A    between atoms: N_20  and  C_21
REMARK    9  A    between atoms: C_21  and  C_22
REMARK                            x       y       z     vdW  Elec       q    Type
REMARK                         _______ _______ _______ _____ _____    ______ ____
ROOT
ATOM      1  N   UNL     1       3.803   3.765  18.053  0.00  0.00    +0.000 NA
ATOM      2  C   UNL     1       4.333   3.328  16.755  0.00  0.00    +0.000 C 
ATOM      3  C   UNL     1       5.080   4.477  16.100  0.00  0.00    +0.000 C 
ATOM      4  C   UNL     1       6.504   4.620  16.598  0.00  0.00    +0.000 C 
ATOM      5  O   UNL     1       7.441   4.486  15.808  0.00  0.00    +0.000 OA
ATOM      6  N   UNL     1       6.719   4.922  17.934  0.00  0.00    +0.000 N 
ATOM      7  C   UNL     1       5.649   5.097  18.930  0.00  0.00    +0.000 C 
ATOM      8  C   UNL     1       4.788   3.843  19.143  0.00  0.00    +0.000 C 
ENDROOT
BRANCH   1   9
ATOM      9  S   UNL     1       2.159   3.678  18.388  0.00  0.00    +0.000 S 
ATOM     10  O   UNL     1       1.971   2.622  19.355  0.00  0.00    +0.000 OA
ATOM     11  O   UNL     1       1.437   3.668  17.130  0.00  0.00    +0.000 OA
BRANCH   9  16
ATOM     12  C   UNL     1       1.481   8.953  21.301  0.00  0.00    +0.000 C 
ATOM     13  C   UNL     1       1.540   7.649  20.559  0.00  0.00    +0.000 A 
ATOM     14  C   UNL     1       1.156   6.448  21.173  0.00  0.00    +0.000 A 
ATOM     15  C   UNL     1       1.293   5.230  20.497  0.00  0.00    +0.000 A 
ATOM     16  C   UNL     1       1.808   5.219  19.199  0.00  0.00    +0.000 A 
ATOM     17  C   UNL     1       2.191   6.412  18.577  0.00  0.00    +0.000 A 
ATOM     18  C   UNL     1       2.057   7.621  19.258  0.00  0.00    +0.000 A 
ENDBRANCH   9  16
ENDBRANCH   1   9
BRANCH   6  19
ATOM     19  C   UNL     1       8.091   5.201  18.375  0.00  0.00    +0.000 C 
BRANCH  19  20
ATOM     20  C   UNL     1       8.211   6.495  19.195  0.00  0.00    +0.000 C 
BRANCH  20  21
ATOM     21  O   UNL     1       8.853   7.562  18.469  0.00  0.00    +0.000 OA
BRANCH  21  22
ATOM     22  C   UNL     1       8.017   8.495  17.942  0.00  0.00    +0.000 C 
ATOM     23  O   UNL     1       6.984   8.247  17.335  0.00  0.00    +0.000 OA
ATOM     24  N   UNL     1       8.473   9.768  18.085  0.00  0.00    +0.000 N 
ATOM     25  H   UNL     1       7.924  10.440  17.566  0.00  0.00    +0.000 HD
BRANCH  24  26
ATOM     26  C   UNL     1       9.042  10.249  19.326  0.00  0.00    +0.000 C 
BRANCH  26  27
ATOM     27  C   UNL     1      10.189  11.195  19.042  0.00  0.00    +0.000 A 
ATOM     28  C   UNL     1      10.969  11.708  20.094  0.00  0.00    +0.000 A 
ATOM     29  C   UNL     1      12.032  12.576  19.835  0.00  0.00    +0.000 A 
ATOM     30  C   UNL     1      12.330  12.943  18.525  0.00  0.00    +0.000 A 
ATOM     31  C   UNL     1      11.562  12.446  17.473  0.00  0.00    +0.000 A 
ATOM     32  C   UNL     1      10.496  11.578  17.729  0.00  0.00    +0.000 A 
ENDBRANCH  26  27
ENDBRANCH  24  26
ENDBRANCH  21  22
ENDBRANCH  20  21
ENDBRANCH  19  20
ENDBRANCH   6  19
TORSDOF 8
ENDMDL
MODEL 2
REMARK VINA RESULT:      -7.7      5.217      8.965
REMARK  Name = 
REMARK  9 active torsions:
REMARK  status: ('A' for Active; 'I' for Inactive)
REMARK    1  A    between atoms: C_1  and  C_2
REMARK    2  A    between atoms: C_5  and  S_6
REMARK    3  A    between atoms: S_6  and  N_9
REMARK    4  A    between atoms: N_14  and  C_15
REMARK    5  A    between atoms: C_15  and  C_16
REMARK    6  A    between atoms: C_16  and  O_17
REMARK    7  A    between atoms: O_17  and  C_18
REMARK    8  A    between atoms: N_20  and  C_21
REMARK    9  A    between atoms: C_21  and  C_22
REMARK                            x       y       z     vdW  Elec       q    Type
REMARK                         _______ _______ _______ _____ _____    ______ ____
ROOT
ATOM      1  N   UNL     1       0.402  11.501  19.697  0.00  0.00    +0.000 NA
ATOM      2  C   UNL     1       0.526  10.990  21.068  0.00  0.00    +0.000 C 
ATOM      3  C   UNL     1       0.015   9.561  21.124  0.00  0.00    +0.000 C 
ATOM      4  C   UNL     1       1.048   8.543  20.685  0.00  0.00    +0.000 C 
ATOM      5  O   UNL     1       1.440   7.690  21.484  0.00  0.00    +0.000 OA
ATOM      6  N   UNL     1       1.513   8.582  19.379  0.00  0.00    +0.000 N 
ATOM      7  C   UNL     1       1.088   9.570  18.374  0.00  0.00    +0.000 C 
ATOM      8  C   UNL     1       1.420  11.022  18.750  0.00  0.00    +0.000 C 
ENDROOT
BRANCH   1   9
ATOM      9  S   UNL     1      -0.486  12.889  19.370  0.00  0.00    +0.000 S 
ATOM     10  O   UNL     1      -0.006  13.425  18.118  0.00  0.00    +0.000 OA
ATOM     11  O   UNL     1      -0.509  13.708  20.566  0.00  0.00    +0.000 OA
BRANCH   9  16
ATOM     12  C   UNL     1      -6.177  11.228  18.090  0.00  0.00    +0.000 C 
ATOM     13  C   UNL     1      -4.766  11.558  18.483  0.00  0.00    +0.000 A 
ATOM     14  C   UNL     1      -4.490  12.307  19.636  0.00  0.00    +0.000 A 
ATOM     15  C   UNL     1      -3.176  12.675  19.946  0.00  0.00    +0.000 A 
ATOM     16  C   UNL     1      -2.135  12.285  19.100  0.00  0.00    +0.000 A 
ATOM     17  C   UNL     1      -2.400  11.536  17.948  0.00  0.00    +0.000 A 
ATOM     18  C   UNL     1      -3.712  11.176  17.644  0.00  0.00    +0.000 A 
ENDBRANCH   9  16
ENDBRANCH   1   9
BRANCH   6  19
ATOM     19  C   UNL     1       2.402   7.507  18.921  0.00  0.00    +0.000 C 
BRANCH  19  20
ATOM     20  C   UNL     1       3.217   7.886  17.676  0.00  0.00    +0.000 C 
BRANCH  20  21
ATOM     21  O   UNL     1       4.509   7.245  17.634  0.00  0.00    +0.000 OA
BRANCH  21  22
ATOM     22  C   UNL     1       4.717   6.421  16.573  0.00  0.00    +0.000 C 
ATOM     23  O   UNL     1       5.167   6.772  15.491  0.00  0.00    +0.000 OA
ATOM     24  N   UNL     1       4.302   5.145  16.796  0.00  0.00    +0.000 N 
ATOM     25  H   UNL     1       4.324   4.577  15.959  0.00  0.00    +0.000 HD
BRANCH  24  26
ATOM     26  C   UNL     1       4.578   4.448  18.033  0.00  0.00    +0.000 C 
BRANCH  26  27
ATOM     27  C   UNL     1       3.284   4.017  18.690  0.00  0.00    +0.000 A 
ATOM     28  C   UNL     1       2.328   3.279  17.970  0.00  0.00    +0.000 A 
ATOM     29  C   UNL     1       1.136   2.876  18.574  0.00  0.00    +0.000 A 
ATOM     30  C   UNL     1       0.883   3.203  19.904  0.00  0.00    +0.000 A 
ATOM     31  C   UNL     1       1.820   3.938  20.629  0.00  0.00    +0.000 A 
ATOM     32  C   UNL     1       3.014   4.344  20.025  0.00  0.00    +0.000 A 
ENDBRANCH  26  27
ENDBRANCH  24  26
ENDBRANCH  21  22
ENDBRANCH  20  21
ENDBRANCH  19  20
ENDBRANCH   6  19
TORSDOF 8
ENDMDL
MODEL 3
REMARK VINA RESULT:      -7.6      5.009      8.160
REMARK  Name = 
REMARK  9 active torsions:
REMARK  status: ('A' for Active; 'I' for Inactive)
REMARK    1  A    between atoms: C_1  and  C_2
REMARK    2  A    between atoms: C_5  and  S_6
REMARK    3  A    between atoms: S_6  and  N_9
REMARK    4  A    between atoms: N_14  and  C_15
REMARK    5  A    between atoms: C_15  and  C_16
REMARK    6  A    between atoms: C_16  and  O_17
REMARK    7  A    between atoms: O_17  and  C_18
REMARK    8  A    between atoms: N_20  and  C_21
REMARK    9  A    between atoms: C_21  and  C_22
REMARK                            x       y       z     vdW  Elec       q    Type
REMARK                         _______ _______ _______ _____ _____    ______ ____
ROOT
ATOM      1  N   UNL     1       0.555  10.074  19.341  0.00  0.00    +0.000 NA
ATOM      2  C   UNL     1       0.851   9.492  18.025  0.00  0.00    +0.000 C 
ATOM      3  C   UNL     1       2.260   8.927  18.027  0.00  0.00    +0.000 C 
ATOM      4  C   UNL     1       2.342   7.536  18.625  0.00  0.00    +0.000 C 
ATOM      5  O   UNL     1       2.719   6.594  17.925  0.00  0.00    +0.000 OA
ATOM      6  N   UNL     1       2.009   7.362  19.959  0.00  0.00    +0.000 N 
ATOM      7  C   UNL     1       1.554   8.441  20.852  0.00  0.00    +0.000 C 
ATOM      8  C   UNL     1       0.245   9.106  20.404  0.00  0.00    +0.000 C 
ENDROOT
BRANCH   1   9
ATOM      9  S   UNL     1       0.103  11.685  19.491  0.00  0.00    +0.000 S 
ATOM     10  O   UNL     1       0.879  12.443  18.537  0.00  0.00    +0.000 OA
ATOM     11  O   UNL     1       0.115  12.033  20.899  0.00  0.00    +0.000 OA
BRANCH   9  16
ATOM     12  C   UNL     1      -5.760  11.349  17.978  0.00  0.00    +0.000 C 
ATOM     13  C   UNL     1      -4.297  11.511  18.274  0.00  0.00    +0.000 A 
ATOM     14  C   UNL     1      -3.322  10.910  17.465  0.00  0.00    +0.000 A 
ATOM     15  C   UNL     1      -1.967  11.002  17.799  0.00  0.00    +0.000 A 
ATOM     16  C   UNL     1      -1.588  11.705  18.946  0.00  0.00    +0.000 A 
ATOM     17  C   UNL     1      -2.553  12.309  19.758  0.00  0.00    +0.000 A 
ATOM     18  C   UNL     1      -3.901  12.210  19.421  0.00  0.00    +0.000 A 
ENDBRANCH   9  16
ENDBRANCH   1   9
BRANCH   6  19
ATOM     19  C   UNL     1       2.230   6.044  20.568  0.00  0.00    +0.000 C 
BRANCH  19  20
ATOM     20  C   UNL     1       1.006   5.120  20.468  0.00  0.00    +0.000 C 
BRANCH  20  21
ATOM     21  O   UNL     1       1.344   3.787  20.034  0.00  0.00    +0.000 OA
BRANCH  21  22
ATOM     22  C   UNL     1       2.061   3.048  20.921  0.00  0.00    +0.000 C 
ATOM     23  O   UNL     1       1.664   2.699  22.025  0.00  0.00    +0.000 OA
ATOM     24  N   UNL     1       3.326   2.781  20.499  0.00  0.00    +0.000 N 
ATOM     25  H   UNL     1       3.897   2.362  21.221  0.00  0.00    +0.000 HD
BRANCH  24  26
ATOM     26  C   UNL     1       3.615   2.358  19.147  0.00  0.00    +0.000 C 
BRANCH  26  27
ATOM     27  C   UNL     1       4.403   3.428  18.421  0.00  0.00    +0.000 A 
ATOM     28  C   UNL     1       4.328   3.545  17.022  0.00  0.00    +0.000 A 
ATOM     29  C   UNL     1       5.049   4.535  16.351  0.00  0.00    +0.000 A 
ATOM     30  C   UNL     1       5.853   5.419  17.066  0.00  0.00    +0.000 A 
ATOM     31  C   UNL     1       5.939   5.311  18.453  0.00  0.00    +0.000 A 
ATOM     32  C   UNL     1       5.220   4.320  19.128  0.00  0.00    +0.000 A 
ENDBRANCH  26  27
ENDBRANCH  24  26
ENDBRANCH  21  22
ENDBRANCH  20  21
ENDBRANCH  19  20
ENDBRANCH   6  19
TORSDOF 8
ENDMDL
MODEL 4
REMARK VINA RESULT:      -7.6      4.792      8.107
REMARK  Name = 
REMARK  9 active torsions:
REMARK  status: ('A' for Active; 'I' for Inactive)
REMARK    1  A    between atoms: C_1  and  C_2
REMARK    2  A    between atoms: C_5  and  S_6
REMARK    3  A    between atoms: S_6  and  N_9
REMARK    4  A    between atoms: N_14  and  C_15
REMARK    5  A    between atoms: C_15  and  C_16
REMARK    6  A    between atoms: C_16  and  O_17
REMARK    7  A    between atoms: O_17  and  C_18
REMARK    8  A    between atoms: N_20  and  C_21
REMARK    9  A    between atoms: C_21  and  C_22
REMARK                            x       y       z     vdW  Elec       q    Type
REMARK                         _______ _______ _______ _____ _____    ______ ____
ROOT
ATOM      1  N   UNL     1       5.609   4.618  16.638  0.00  0.00    +0.000 NA
ATOM      2  C   UNL     1       6.427   4.226  17.793  0.00  0.00    +0.000 C 
ATOM      3  C   UNL     1       5.639   4.452  19.072  0.00  0.00    +0.000 C 
ATOM      4  C   UNL     1       4.692   3.313  19.395  0.00  0.00    +0.000 C 
ATOM      5  O   UNL     1       4.847   2.670  20.435  0.00  0.00    +0.000 OA
ATOM      6  N   UNL     1       3.655   3.035  18.517  0.00  0.00    +0.000 N 
ATOM      7  C   UNL     1       3.412   3.762  17.260  0.00  0.00    +0.000 C 
ATOM      8  C   UNL     1       4.564   3.660  16.250  0.00  0.00    +0.000 C 
ENDROOT
BRANCH   1   9
ATOM      9  S   UNL     1       6.149   5.783  15.555  0.00  0.00    +0.000 S 
ATOM     10  O   UNL     1       7.447   6.226  16.006  0.00  0.00    +0.000 OA
ATOM     11  O   UNL     1       5.076   6.734  15.336  0.00  0.00    +0.000 OA
BRANCH   9  16
ATOM     12  C   UNL     1       7.086   2.274  10.698  0.00  0.00    +0.000 C 
ATOM     13  C   UNL     1       6.834   3.227  11.830  0.00  0.00    +0.000 A 
ATOM     14  C   UNL     1       7.820   4.131  12.251  0.00  0.00    +0.000 A 
ATOM     15  C   UNL     1       7.600   4.957  13.359  0.00  0.00    +0.000 A 
ATOM     16  C   UNL     1       6.385   4.880  14.043  0.00  0.00    +0.000 A 
ATOM     17  C   UNL     1       5.394   3.983  13.630  0.00  0.00    +0.000 A 
ATOM     18  C   UNL     1       5.622   3.161  12.528  0.00  0.00    +0.000 A 
ENDBRANCH   9  16
ENDBRANCH   1   9
BRANCH   6  19
ATOM     19  C   UNL     1       2.660   2.029  18.907  0.00  0.00    +0.000 C 
BRANCH  19  20
ATOM     20  C   UNL     1       1.212   2.517  18.745  0.00  0.00    +0.000 C 
BRANCH  20  21
ATOM     21  O   UNL     1       1.009   3.852  19.252  0.00  0.00    +0.000 OA
BRANCH  21  22
ATOM     22  C   UNL     1       1.269   4.018  20.576  0.00  0.00    +0.000 C 
ATOM     23  O   UNL     1       1.102   3.164  21.436  0.00  0.00    +0.000 OA
ATOM     24  N   UNL     1       1.676   5.278  20.889  0.00  0.00    +0.000 N 
ATOM     25  H   UNL     1       1.725   5.434  21.887  0.00  0.00    +0.000 HD
BRANCH  24  26
ATOM     26  C   UNL     1       2.648   5.995  20.094  0.00  0.00    +0.000 C 
BRANCH  26  27
ATOM     27  C   UNL     1       2.087   7.334  19.665  0.00  0.00    +0.000 A 
ATOM     28  C   UNL     1       2.242   7.782  18.341  0.00  0.00    +0.000 A 
ATOM     29  C   UNL     1       1.720   9.014  17.941  0.00  0.00    +0.000 A 
ATOM     30  C   UNL     1       1.037   9.813  18.855  0.00  0.00    +0.000 A 
ATOM     31  C   UNL     1       0.879   9.382  20.171  0.00  0.00    +0.000 A 
ATOM     32  C   UNL     1       1.402   8.150  20.575  0.00  0.00    +0.000 A 
ENDBRANCH  26  27
ENDBRANCH  24  26
ENDBRANCH  21  22
ENDBRANCH  20  21
ENDBRANCH  19  20
ENDBRANCH   6  19
TORSDOF 8
ENDMDL
MODEL 5
REMARK VINA RESULT:      -7.5      5.022      8.165
REMARK  Name = 
REMARK  9 active torsions:
REMARK  status: ('A' for Active; 'I' for Inactive)
REMARK    1  A    between atoms: C_1  and  C_2
REMARK    2  A    between atoms: C_5  and  S_6
REMARK    3  A    between atoms: S_6  and  N_9
REMARK    4  A    between atoms: N_14  and  C_15
REMARK    5  A    between atoms: C_15  and  C_16
REMARK    6  A    between atoms: C_16  and  O_17
REMARK    7  A    between atoms: O_17  and  C_18
REMARK    8  A    between atoms: N_20  and  C_21
REMARK    9  A    between atoms: C_21  and  C_22
REMARK                            x       y       z     vdW  Elec       q    Type
REMARK                         _______ _______ _______ _____ _____    ______ ____
ROOT
ATOM      1  N   UNL     1       0.034  10.198  19.996  0.00  0.00    +0.000 NA
ATOM      2  C   UNL     1       0.243  10.088  18.547  0.00  0.00    +0.000 C 
ATOM      3  C   UNL     1       1.714   9.836  18.265  0.00  0.00    +0.000 C 
ATOM      4  C   UNL     1       2.103   8.377  18.400  0.00  0.00    +0.000 C 
ATOM      5  O   UNL     1       2.533   7.769  17.417  0.00  0.00    +0.000 OA
ATOM      6  N   UNL     1       1.985   7.765  19.638  0.00  0.00    +0.000 N 
ATOM      7  C   UNL     1       1.482   8.431  20.851  0.00  0.00    +0.000 C 
ATOM      8  C   UNL     1       0.033   8.924  20.733  0.00  0.00    +0.000 C 
ENDROOT
BRANCH   1   9
ATOM      9  S   UNL     1      -0.653  11.576  20.668  0.00  0.00    +0.000 S 
ATOM     10  O   UNL     1      -0.546  11.457  22.103  0.00  0.00    +0.000 OA
ATOM     11  O   UNL     1      -1.940  11.797  20.036  0.00  0.00    +0.000 OA
BRANCH   9  16
ATOM     12  C   UNL     1       3.110  15.781  18.447  0.00  0.00    +0.000 C 
ATOM     13  C   UNL     1       2.176  14.798  19.092  0.00  0.00    +0.000 A 
ATOM     14  C   UNL     1       2.650  13.825  19.984  0.00  0.00    +0.000 A 
ATOM     15  C   UNL     1       1.781  12.865  20.514  0.00  0.00    +0.000 A 
ATOM     16  C   UNL     1       0.432  12.886  20.154  0.00  0.00    +0.000 A 
ATOM     17  C   UNL     1      -0.051  13.853  19.266  0.00  0.00    +0.000 A 
ATOM     18  C   UNL     1       0.821  14.804  18.739  0.00  0.00    +0.000 A 
ENDBRANCH   9  16
ENDBRANCH   1   9
BRANCH   6  19
ATOM     19  C   UNL     1       2.499   6.399  19.794  0.00  0.00    +0.000 C 
BRANCH  19  20
ATOM     20  C   UNL     1       1.691   5.559  20.794  0.00  0.00    +0.000 C 
BRANCH  20  21
ATOM     21  O   UNL     1       1.477   4.205  20.346  0.00  0.00    +0.000 OA
BRANCH  21  22
ATOM     22  C   UNL     1       2.165   3.250  21.026  0.00  0.00    +0.000 C 
ATOM     23  O   UNL     1       1.855   2.811  22.125  0.00  0.00    +0.000 OA
ATOM     24  N   UNL     1       3.306   2.860  20.397  0.00  0.00    +0.000 N 
ATOM     25  H   UNL     1       3.884   2.263  20.973  0.00  0.00    +0.000 HD
BRANCH  24  26
ATOM     26  C   UNL     1       3.352   2.594  18.976  0.00  0.00    +0.000 C 
BRANCH  26  27
ATOM     27  C   UNL     1       4.267   3.585  18.288  0.00  0.00    +0.000 A 
ATOM     28  C   UNL     1       5.299   4.219  19.001  0.00  0.00    +0.000 A 
ATOM     29  C   UNL     1       6.148   5.129  18.368  0.00  0.00    +0.000 A 
ATOM     30  C   UNL     1       5.977   5.418  17.017  0.00  0.00    +0.000 A 
ATOM     31  C   UNL     1       4.955   4.801  16.298  0.00  0.00    +0.000 A 
ATOM     32  C   UNL     1       4.103   3.890  16.930  0.00  0.00    +0.000 A 
ENDBRANCH  26  27
ENDBRANCH  24  26
ENDBRANCH  21  22
ENDBRANCH  20  21
ENDBRANCH  19  20
ENDBRANCH   6  19
TORSDOF 8
ENDMDL
MODEL 6
REMARK VINA RESULT:      -7.5      4.777      7.896
REMARK  Name = 
REMARK  9 active torsions:
REMARK  status: ('A' for Active; 'I' for Inactive)
REMARK    1  A    between atoms: C_1  and  C_2
REMARK    2  A    between atoms: C_5  and  S_6
REMARK    3  A    between atoms: S_6  and  N_9
REMARK    4  A    between atoms: N_14  and  C_15
REMARK    5  A    between atoms: C_15  and  C_16
REMARK    6  A    between atoms: C_16  and  O_17
REMARK    7  A    between atoms: O_17  and  C_18
REMARK    8  A    between atoms: N_20  and  C_21
REMARK    9  A    between atoms: C_21  and  C_22
REMARK                            x       y       z     vdW  Elec       q    Type
REMARK                         _______ _______ _______ _____ _____    ______ ____
ROOT
ATOM      1  N   UNL     1       0.558   9.996  19.447  0.00  0.00    +0.000 NA
ATOM      2  C   UNL     1       0.910   9.541  18.096  0.00  0.00    +0.000 C 
ATOM      3  C   UNL     1       2.337   9.021  18.093  0.00  0.00    +0.000 C 
ATOM      4  C   UNL     1       2.447   7.586  18.572  0.00  0.00    +0.000 C 
ATOM      5  O   UNL     1       2.875   6.721  17.805  0.00  0.00    +0.000 OA
ATOM      6  N   UNL     1       2.083   7.286  19.876  0.00  0.00    +0.000 N 
ATOM      7  C   UNL     1       1.567   8.269  20.843  0.00  0.00    +0.000 C 
ATOM      8  C   UNL     1       0.250   8.931  20.413  0.00  0.00    +0.000 C 
ENDROOT
BRANCH   1   9
ATOM      9  S   UNL     1       0.049  11.574  19.721  0.00  0.00    +0.000 S 
ATOM     10  O   UNL     1       0.703  12.415  18.747  0.00  0.00    +0.000 OA
ATOM     11  O   UNL     1       0.168  11.852  21.139  0.00  0.00    +0.000 OA
BRANCH   9  16
ATOM     12  C   UNL     1      -5.756  11.816  17.982  0.00  0.00    +0.000 C 
ATOM     13  C   UNL     1      -4.350  11.685  18.493  0.00  0.00    +0.000 A 
ATOM     14  C   UNL     1      -3.921  12.390  19.627  0.00  0.00    +0.000 A 
ATOM     15  C   UNL     1      -2.587  12.321  20.043  0.00  0.00    +0.000 A 
ATOM     16  C   UNL     1      -1.682  11.537  19.323  0.00  0.00    +0.000 A 
ATOM     17  C   UNL     1      -2.101  10.828  18.192  0.00  0.00    +0.000 A 
ATOM     18  C   UNL     1      -3.430  10.905  17.781  0.00  0.00    +0.000 A 
ENDBRANCH   9  16
ENDBRANCH   1   9
BRANCH   6  19
ATOM     19  C   UNL     1       2.330   5.928  20.375  0.00  0.00    +0.000 C 
BRANCH  19  20
ATOM     20  C   UNL     1       1.206   4.941  20.023  0.00  0.00    +0.000 C 
BRANCH  20  21
ATOM     21  O   UNL     1       1.699   3.696  19.489  0.00  0.00    +0.000 OA
BRANCH  21  22
ATOM     22  C   UNL     1       1.648   3.581  18.136  0.00  0.00    +0.000 C 
ATOM     23  O   UNL     1       0.915   4.232  17.405  0.00  0.00    +0.000 OA
ATOM     24  N   UNL     1       2.453   2.598  17.650  0.00  0.00    +0.000 N 
ATOM     25  H   UNL     1       2.301   2.421  16.666  0.00  0.00    +0.000 HD
BRANCH  24  26
ATOM     26  C   UNL     1       3.809   2.409  18.118  0.00  0.00    +0.000 C 
BRANCH  26  27
ATOM     27  C   UNL     1       4.649   3.624  17.787  0.00  0.00    +0.000 A 
ATOM     28  C   UNL     1       5.252   4.376  18.811  0.00  0.00    +0.000 A 
ATOM     29  C   UNL     1       6.032   5.494  18.510  0.00  0.00    +0.000 A 
ATOM     30  C   UNL     1       6.221   5.875  17.184  0.00  0.00    +0.000 A 
ATOM     31  C   UNL     1       5.626   5.142  16.159  0.00  0.00    +0.000 A 
ATOM     32  C   UNL     1       4.843   4.023  16.458  0.00  0.00    +0.000 A 
ENDBRANCH  26  27
ENDBRANCH  24  26
ENDBRANCH  21  22
ENDBRANCH  20  21
ENDBRANCH  19  20
ENDBRANCH   6  19
TORSDOF 8
ENDMDL
MODEL 7
REMARK VINA RESULT:      -7.5      2.376      7.583
REMARK  Name = 
REMARK  9 active torsions:
REMARK  status: ('A' for Active; 'I' for Inactive)
REMARK    1  A    between atoms: C_1  and  C_2
REMARK    2  A    between atoms: C_5  and  S_6
REMARK    3  A    between atoms: S_6  and  N_9
REMARK    4  A    between atoms: N_14  and  C_15
REMARK    5  A    between atoms: C_15  and  C_16
REMARK    6  A    between atoms: C_16  and  O_17
REMARK    7  A    between atoms: O_17  and  C_18
REMARK    8  A    between atoms: N_20  and  C_21
REMARK    9  A    between atoms: C_21  and  C_22
REMARK                            x       y       z     vdW  Elec       q    Type
REMARK                         _______ _______ _______ _____ _____    ______ ____
ROOT
ATOM      1  N   UNL     1       5.589   4.727  17.619  0.00  0.00    +0.000 NA
ATOM      2  C   UNL     1       4.527   4.718  16.606  0.00  0.00    +0.000 C 
ATOM      3  C   UNL     1       3.750   3.416  16.698  0.00  0.00    +0.000 C 
ATOM      4  C   UNL     1       2.682   3.437  17.774  0.00  0.00    +0.000 C 
ATOM      5  O   UNL     1       1.498   3.304  17.457  0.00  0.00    +0.000 OA
ATOM      6  N   UNL     1       3.068   3.583  19.097  0.00  0.00    +0.000 N 
ATOM      7  C   UNL     1       4.461   3.744  19.545  0.00  0.00    +0.000 C 
ATOM      8  C   UNL     1       5.148   5.002  18.995  0.00  0.00    +0.000 C 
ENDROOT
BRANCH   1   9
ATOM      9  S   UNL     1       7.199   4.925  17.180  0.00  0.00    +0.000 S 
ATOM     10  O   UNL     1       7.254   4.953  15.737  0.00  0.00    +0.000 OA
ATOM     11  O   UNL     1       7.997   3.976  17.933  0.00  0.00    +0.000 OA
BRANCH   9  16
ATOM     12  C   UNL     1       9.004  10.468  18.849  0.00  0.00    +0.000 C 
ATOM     13  C   UNL     1       8.475   9.104  18.511  0.00  0.00    +0.000 A 
ATOM     14  C   UNL     1       8.766   7.993  19.316  0.00  0.00    +0.000 A 
ATOM     15  C   UNL     1       8.335   6.715  18.945  0.00  0.00    +0.000 A 
ATOM     16  C   UNL     1       7.603   6.552  17.766  0.00  0.00    +0.000 A 
ATOM     17  C   UNL     1       7.306   7.655  16.958  0.00  0.00    +0.000 A 
ATOM     18  C   UNL     1       7.743   8.924  17.331  0.00  0.00    +0.000 A 
ENDBRANCH   9  16
ENDBRANCH   1   9
BRANCH   6  19
ATOM     19  C   UNL     1       2.044   3.456  20.141  0.00  0.00    +0.000 C 
BRANCH  19  20
ATOM     20  C   UNL     1       1.173   4.714  20.291  0.00  0.00    +0.000 C 
BRANCH  20  21
ATOM     21  O   UNL     1       1.860   5.796  20.951  0.00  0.00    +0.000 OA
BRANCH  21  22
ATOM     22  C   UNL     1       2.004   6.930  20.214  0.00  0.00    +0.000 C 
ATOM     23  O   UNL     1       2.283   6.962  19.024  0.00  0.00    +0.000 OA
ATOM     24  N   UNL     1       1.880   8.067  20.950  0.00  0.00    +0.000 N 
ATOM     25  H   UNL     1       2.132   8.897  20.430  0.00  0.00    +0.000 HD
BRANCH  24  26
ATOM     26  C   UNL     1       0.834   8.239  21.935  0.00  0.00    +0.000 C 
BRANCH  26  27
ATOM     27  C   UNL     1       0.314   9.660  21.902  0.00  0.00    +0.000 A 
ATOM     28  C   UNL     1       0.795  10.576  20.949  0.00  0.00    +0.000 A 
ATOM     29  C   UNL     1       0.313  11.885  20.913  0.00  0.00    +0.000 A 
ATOM     30  C   UNL     1      -0.655  12.298  21.825  0.00  0.00    +0.000 A 
ATOM     31  C   UNL     1      -1.138  11.403  22.777  0.00  0.00    +0.000 A 
ATOM     32  C   UNL     1      -0.656  10.091  22.817  0.00  0.00    +0.000 A 
ENDBRANCH  26  27
ENDBRANCH  24  26
ENDBRANCH  21  22
ENDBRANCH  20  21
ENDBRANCH  19  20
ENDBRANCH   6  19
TORSDOF 8
ENDMDL
MODEL 8
REMARK VINA RESULT:      -7.5      5.020      8.300
REMARK  Name = 
REMARK  9 active torsions:
REMARK  status: ('A' for Active; 'I' for Inactive)
REMARK    1  A    between atoms: C_1  and  C_2
REMARK    2  A    between atoms: C_5  and  S_6
REMARK    3  A    between atoms: S_6  and  N_9
REMARK    4  A    between atoms: N_14  and  C_15
REMARK    5  A    between atoms: C_15  and  C_16
REMARK    6  A    between atoms: C_16  and  O_17
REMARK    7  A    between atoms: O_17  and  C_18
REMARK    8  A    between atoms: N_20  and  C_21
REMARK    9  A    between atoms: C_21  and  C_22
REMARK                            x       y       z     vdW  Elec       q    Type
REMARK                         _______ _______ _______ _____ _____    ______ ____
ROOT
ATOM      1  N   UNL     1       0.088  10.304  20.232  0.00  0.00    +0.000 NA
ATOM      2  C   UNL     1       0.204  10.145  18.776  0.00  0.00    +0.000 C 
ATOM      3  C   UNL     1       1.649   9.854  18.412  0.00  0.00    +0.000 C 
ATOM      4  C   UNL     1       2.020   8.393  18.571  0.00  0.00    +0.000 C 
ATOM      5  O   UNL     1       2.376   7.745  17.584  0.00  0.00    +0.000 OA
ATOM      6  N   UNL     1       1.969   7.823  19.834  0.00  0.00    +0.000 N 
ATOM      7  C   UNL     1       1.555   8.537  21.053  0.00  0.00    +0.000 C 
ATOM      8  C   UNL     1       0.110   9.055  21.008  0.00  0.00    +0.000 C 
ENDROOT
BRANCH   1   9
ATOM      9  S   UNL     1      -0.531  11.717  20.898  0.00  0.00    +0.000 S 
ATOM     10  O   UNL     1      -0.169  11.730  22.296  0.00  0.00    +0.000 OA
ATOM     11  O   UNL     1      -1.917  11.844  20.491  0.00  0.00    +0.000 OA
BRANCH   9  16
ATOM     12  C   UNL     1       2.594  16.387  18.617  0.00  0.00    +0.000 C 
ATOM     13  C   UNL     1       1.822  15.185  19.080  0.00  0.00    +0.000 A 
ATOM     14  C   UNL     1       0.446  15.067  18.836  0.00  0.00    +0.000 A 
ATOM     15  C   UNL     1      -0.274  13.981  19.344  0.00  0.00    +0.000 A 
ATOM     16  C   UNL     1       0.388  13.006  20.093  0.00  0.00    +0.000 A 
ATOM     17  C   UNL     1       1.761  13.113  20.340  0.00  0.00    +0.000 A 
ATOM     18  C   UNL     1       2.472  14.200  19.835  0.00  0.00    +0.000 A 
ENDBRANCH   9  16
ENDBRANCH   1   9
BRANCH   6  19
ATOM     19  C   UNL     1       2.467   6.452  20.002  0.00  0.00    +0.000 C 
BRANCH  19  20
ATOM     20  C   UNL     1       1.485   5.540  20.752  0.00  0.00    +0.000 C 
BRANCH  20  21
ATOM     21  O   UNL     1       1.436   4.204  20.211  0.00  0.00    +0.000 OA
BRANCH  21  22
ATOM     22  C   UNL     1       2.056   3.251  20.956  0.00  0.00    +0.000 C 
ATOM     23  O   UNL     1       1.636   2.805  22.015  0.00  0.00    +0.000 OA
ATOM     24  N   UNL     1       3.260   2.872  20.448  0.00  0.00    +0.000 N 
ATOM     25  H   UNL     1       3.778   2.276  21.079  0.00  0.00    +0.000 HD
BRANCH  24  26
ATOM     26  C   UNL     1       3.455   2.612  19.038  0.00  0.00    +0.000 C 
BRANCH  26  27
ATOM     27  C   UNL     1       4.252   3.733  18.406  0.00  0.00    +0.000 A 
ATOM     28  C   UNL     1       4.019   4.112  17.072  0.00  0.00    +0.000 A 
ATOM     29  C   UNL     1       4.748   5.149  16.488  0.00  0.00    +0.000 A 
ATOM     30  C   UNL     1       5.718   5.822  17.227  0.00  0.00    +0.000 A 
ATOM     31  C   UNL     1       5.962   5.455  18.549  0.00  0.00    +0.000 A 
ATOM     32  C   UNL     1       5.235   4.415  19.136  0.00  0.00    +0.000 A 
ENDBRANCH  26  27
ENDBRANCH  24  26
ENDBRANCH  21  22
ENDBRANCH  20  21
ENDBRANCH  19  20
ENDBRANCH   6  19
TORSDOF 8
ENDMDL
MODEL 9
REMARK VINA RESULT:      -7.4      4.661      8.433
REMARK  Name = 
REMARK  9 active torsions:
REMARK  status: ('A' for Active; 'I' for Inactive)
REMARK    1  A    between atoms: C_1  and  C_2
REMARK    2  A    between atoms: C_5  and  S_6
REMARK    3  A    between atoms: S_6  and  N_9
REMARK    4  A    between atoms: N_14  and  C_15
REMARK    5  A    between atoms: C_15  and  C_16
REMARK    6  A    between atoms: C_16  and  O_17
REMARK    7  A    between atoms: O_17  and  C_18
REMARK    8  A    between atoms: N_20  and  C_21
REMARK    9  A    between atoms: C_21  and  C_22
REMARK                            x       y       z     vdW  Elec       q    Type
REMARK                         _______ _______ _______ _____ _____    ______ ____
ROOT
ATOM      1  N   UNL     1       1.037  10.123  19.501  0.00  0.00    +0.000 NA
ATOM      2  C   UNL     1       1.482   9.431  20.718  0.00  0.00    +0.000 C 
ATOM      3  C   UNL     1       1.115   7.960  20.626  0.00  0.00    +0.000 C 
ATOM      4  C   UNL     1       2.117   7.146  19.832  0.00  0.00    +0.000 C 
ATOM      5  O   UNL     1       2.735   6.234  20.387  0.00  0.00    +0.000 OA
ATOM      6  N   UNL     1       2.299   7.434  18.489  0.00  0.00    +0.000 N 
ATOM      7  C   UNL     1       1.595   8.505  17.764  0.00  0.00    +0.000 C 
ATOM      8  C   UNL     1       1.875   9.912  18.311  0.00  0.00    +0.000 C 
ENDROOT
BRANCH   1   9
ATOM      9  S   UNL     1      -0.012  11.432  19.589  0.00  0.00    +0.000 S 
ATOM     10  O   UNL     1      -0.682  11.366  20.866  0.00  0.00    +0.000 OA
ATOM     11  O   UNL     1      -0.774  11.490  18.355  0.00  0.00    +0.000 OA
BRANCH   9  16
ATOM     12  C   UNL     1       4.056  15.929  19.476  0.00  0.00    +0.000 C 
ATOM     13  C   UNL     1       2.978  14.886  19.554  0.00  0.00    +0.000 A 
ATOM     14  C   UNL     1       2.739  14.178  20.742  0.00  0.00    +0.000 A 
ATOM     15  C   UNL     1       1.787  13.153  20.777  0.00  0.00    +0.000 A 
ATOM     16  C   UNL     1       1.068  12.842  19.620  0.00  0.00    +0.000 A 
ATOM     17  C   UNL     1       1.299  13.544  18.432  0.00  0.00    +0.000 A 
ATOM     18  C   UNL     1       2.251  14.561  18.403  0.00  0.00    +0.000 A 
ENDBRANCH   9  16
ENDBRANCH   1   9
BRANCH   6  19
ATOM     19  C   UNL     1       3.161   6.549  17.695  0.00  0.00    +0.000 C 
BRANCH  19  20
ATOM     20  C   UNL     1       4.660   6.792  17.933  0.00  0.00    +0.000 C 
BRANCH  20  21
ATOM     21  O   UNL     1       5.464   5.621  17.688  0.00  0.00    +0.000 OA
BRANCH  21  22
ATOM     22  C   UNL     1       5.769   4.883  18.788  0.00  0.00    +0.000 C 
ATOM     23  O   UNL     1       6.332   5.312  19.786  0.00  0.00    +0.000 OA
ATOM     24  N   UNL     1       5.453   3.566  18.656  0.00  0.00    +0.000 N 
ATOM     25  H   UNL     1       5.814   3.002  19.412  0.00  0.00    +0.000 HD
BRANCH  24  26
ATOM     26  C   UNL     1       4.196   3.127  18.091  0.00  0.00    +0.000 C 
BRANCH  26  27
ATOM     27  C   UNL     1       3.137   3.051  19.170  0.00  0.00    +0.000 A 
ATOM     28  C   UNL     1       3.488   2.733  20.494  0.00  0.00    +0.000 A 
ATOM     29  C   UNL     1       2.515   2.666  21.493  0.00  0.00    +0.000 A 
ATOM     30  C   UNL     1       1.180   2.917  21.184  0.00  0.00    +0.000 A 
ATOM     31  C   UNL     1       0.818   3.230  19.875  0.00  0.00    +0.000 A 
ATOM     32  C   UNL     1       1.790   3.295  18.873  0.00  0.00    +0.000 A 
ENDBRANCH  26  27
ENDBRANCH  24  26
ENDBRANCH  21  22
ENDBRANCH  20  21
ENDBRANCH  19  20
ENDBRANCH   6  19
TORSDOF 8
ENDMDL
