MODEL 1
REMARK VINA RESULT:      -7.9      0.000      0.000
REMARK  Name = 
REMARK  3 active torsions:
REMARK  status: ('A' for Active; 'I' for Inactive)
REMARK    1  A    between atoms: C_1  and  C_2
REMARK    2  A    between atoms: C_3  and  C_4
REMARK    3  A    between atoms: N_19  and  C_20
REMARK                            x       y       z     vdW  Elec       q    Type
REMARK                         _______ _______ _______ _____ _____    ______ ____
ROOT
ATOM      1  C   UNL     1       4.962   7.088  17.181  0.00  0.00    +0.000 C 
ATOM      2  C   UNL     1       4.169   5.858  17.506  0.00  0.00    +0.000 A 
ATOM      3  C   UNL     1       2.902   5.810  18.102  0.00  0.00    +0.000 A 
ATOM      4  C   UNL     1       2.593   4.461  18.209  0.00  0.00    +0.000 A 
ATOM      5  C   UNL     1       1.451   3.818  18.703  0.00  0.00    +0.000 A 
ATOM      6  C   UNL     1       1.418   2.416  18.684  0.00  0.00    +0.000 A 
ATOM      7  C   UNL     1       2.515   1.686  18.188  0.00  0.00    +0.000 A 
ATOM      8  C   UNL     1       3.653   2.350  17.693  0.00  0.00    +0.000 A 
ATOM      9  C   UNL     1       3.658   3.750  17.710  0.00  0.00    +0.000 A 
ATOM     10  N   UNL     1       4.628   4.595  17.286  0.00  0.00    +0.000 N 
ATOM     11  C   UNL     1       5.929   4.243  16.718  0.00  0.00    +0.000 C 
ENDROOT
BRANCH   3  12
ATOM     12  C   UNL     1       2.037   6.942  18.621  0.00  0.00    +0.000 C 
ATOM     13  C   UNL     1       2.096   8.329  17.946  0.00  0.00    +0.000 C 
ATOM     14  C   UNL     1       1.492   9.155  19.041  0.00  0.00    +0.000 A 
ATOM     15  C   UNL     1       0.892  10.415  18.989  0.00  0.00    +0.000 A 
ATOM     16  C   UNL     1       0.394  10.967  20.184  0.00  0.00    +0.000 A 
ATOM     17  C   UNL     1       0.529  10.268  21.403  0.00  0.00    +0.000 A 
ATOM     18  C   UNL     1       1.149   9.008  21.434  0.00  0.00    +0.000 A 
ATOM     19  C   UNL     1       1.609   8.474  20.230  0.00  0.00    +0.000 A 
ATOM     20  N   UNL     1       2.180   7.207  20.035  0.00  0.00    +0.000 N 
ATOM     21  H   UNL     1       2.206   6.487  20.771  0.00  0.00    +0.000 HD
ENDBRANCH   3  12
TORSDOF 1
ENDMDL
MODEL 2
REMARK VINA RESULT:      -7.9      0.805      1.455
REMARK  Name = 
REMARK  3 active torsions:
REMARK  status: ('A' for Active; 'I' for Inactive)
REMARK    1  A    between atoms: C_1  and  C_2
REMARK    2  A    between atoms: C_3  and  C_4
REMARK    3  A    between atoms: N_19  and  C_20
REMARK                            x       y       z     vdW  Elec       q    Type
REMARK                         _______ _______ _______ _____ _____    ______ ____
ROOT
ATOM      1  C   UNL     1       4.993   6.812  17.022  0.00  0.00    +0.000 C 
ATOM      2  C   UNL     1       4.053   5.756  17.522  0.00  0.00    +0.000 A 
ATOM      3  C   UNL     1       3.023   5.925  18.456  0.00  0.00    +0.000 A 
ATOM      4  C   UNL     1       2.447   4.671  18.604  0.00  0.00    +0.000 A 
ATOM      5  C   UNL     1       1.367   4.243  19.386  0.00  0.00    +0.000 A 
ATOM      6  C   UNL     1       1.002   2.890  19.332  0.00  0.00    +0.000 A 
ATOM      7  C   UNL     1       1.718   1.993  18.518  0.00  0.00    +0.000 A 
ATOM      8  C   UNL     1       2.800   2.441  17.737  0.00  0.00    +0.000 A 
ATOM      9  C   UNL     1       3.138   3.799  17.797  0.00  0.00    +0.000 A 
ATOM     10  N   UNL     1       4.125   4.451  17.138  0.00  0.00    +0.000 N 
ATOM     11  C   UNL     1       5.101   3.884  16.209  0.00  0.00    +0.000 C 
ENDROOT
BRANCH   3  12
ATOM     12  C   UNL     1       2.623   7.160  19.238  0.00  0.00    +0.000 C 
ATOM     13  C   UNL     1       1.804   7.018  20.540  0.00  0.00    +0.000 C 
ATOM     14  C   UNL     1       1.284   8.419  20.650  0.00  0.00    +0.000 A 
ATOM     15  C   UNL     1       0.793   9.110  21.760  0.00  0.00    +0.000 A 
ATOM     16  C   UNL     1       0.369  10.441  21.583  0.00  0.00    +0.000 A 
ATOM     17  C   UNL     1       0.416  11.041  20.307  0.00  0.00    +0.000 A 
ATOM     18  C   UNL     1       0.899  10.322  19.202  0.00  0.00    +0.000 A 
ATOM     19  C   UNL     1       1.338   9.014  19.411  0.00  0.00    +0.000 A 
ATOM     20  N   UNL     1       1.926   8.162  18.464  0.00  0.00    +0.000 N 
ATOM     21  H   UNL     1       2.200   8.477  17.523  0.00  0.00    +0.000 HD
ENDBRANCH   3  12
TORSDOF 1
ENDMDL
MODEL 3
REMARK VINA RESULT:      -7.8      0.883      2.758
REMARK  Name = 
REMARK  3 active torsions:
REMARK  status: ('A' for Active; 'I' for Inactive)
REMARK    1  A    between atoms: C_1  and  C_2
REMARK    2  A    between atoms: C_3  and  C_4
REMARK    3  A    between atoms: N_19  and  C_20
REMARK                            x       y       z     vdW  Elec       q    Type
REMARK                         _______ _______ _______ _____ _____    ______ ____
ROOT
ATOM      1  C   UNL     1       1.711   3.354  19.792  0.00  0.00    +0.000 C 
ATOM      2  C   UNL     1       2.677   3.942  18.809  0.00  0.00    +0.000 A 
ATOM      3  C   UNL     1       2.815   5.295  18.474  0.00  0.00    +0.000 A 
ATOM      4  C   UNL     1       3.821   5.340  17.519  0.00  0.00    +0.000 A 
ATOM      5  C   UNL     1       4.397   6.424  16.843  0.00  0.00    +0.000 A 
ATOM      6  C   UNL     1       5.416   6.162  15.915  0.00  0.00    +0.000 A 
ATOM      7  C   UNL     1       5.832   4.840  15.671  0.00  0.00    +0.000 A 
ATOM      8  C   UNL     1       5.244   3.764  16.361  0.00  0.00    +0.000 A 
ATOM      9  C   UNL     1       4.237   4.050  17.292  0.00  0.00    +0.000 A 
ATOM     10  N   UNL     1       3.539   3.188  18.070  0.00  0.00    +0.000 N 
ATOM     11  C   UNL     1       3.656   1.732  18.110  0.00  0.00    +0.000 C 
ENDROOT
BRANCH   3  12
ATOM     12  C   UNL     1       2.015   6.492  18.948  0.00  0.00    +0.000 C 
ATOM     13  C   UNL     1       2.146   7.846  18.218  0.00  0.00    +0.000 C 
ATOM     14  C   UNL     1       1.592   8.746  19.281  0.00  0.00    +0.000 A 
ATOM     15  C   UNL     1       1.060  10.034  19.180  0.00  0.00    +0.000 A 
ATOM     16  C   UNL     1       0.597  10.658  20.353  0.00  0.00    +0.000 A 
ATOM     17  C   UNL     1       0.699  10.002  21.598  0.00  0.00    +0.000 A 
ATOM     18  C   UNL     1       1.250   8.713  21.678  0.00  0.00    +0.000 A 
ATOM     19  C   UNL     1       1.676   8.107  20.496  0.00  0.00    +0.000 A 
ATOM     20  N   UNL     1       2.177   6.804  20.351  0.00  0.00    +0.000 N 
ATOM     21  H   UNL     1       2.167   6.114  21.114  0.00  0.00    +0.000 HD
ENDBRANCH   3  12
TORSDOF 1
ENDMDL
MODEL 4
REMARK VINA RESULT:      -7.7      1.129      3.133
REMARK  Name = 
REMARK  3 active torsions:
REMARK  status: ('A' for Active; 'I' for Inactive)
REMARK    1  A    between atoms: C_1  and  C_2
REMARK    2  A    between atoms: C_3  and  C_4
REMARK    3  A    between atoms: N_19  and  C_20
REMARK                            x       y       z     vdW  Elec       q    Type
REMARK                         _______ _______ _______ _____ _____    ______ ____
ROOT
ATOM      1  C   UNL     1       1.260   4.113  19.984  0.00  0.00    +0.000 C 
ATOM      2  C   UNL     1       2.296   4.598  19.016  0.00  0.00    +0.000 A 
ATOM      3  C   UNL     1       2.795   5.902  18.903  0.00  0.00    +0.000 A 
ATOM      4  C   UNL     1       3.717   5.858  17.866  0.00  0.00    +0.000 A 
ATOM      5  C   UNL     1       4.538   6.856  17.326  0.00  0.00    +0.000 A 
ATOM      6  C   UNL     1       5.386   6.515  16.262  0.00  0.00    +0.000 A 
ATOM      7  C   UNL     1       5.394   5.203  15.753  0.00  0.00    +0.000 A 
ATOM      8  C   UNL     1       4.563   4.213  16.309  0.00  0.00    +0.000 A 
ATOM      9  C   UNL     1       3.734   4.573  17.380  0.00  0.00    +0.000 A 
ATOM     10  N   UNL     1       2.864   3.798  18.070  0.00  0.00    +0.000 N 
ATOM     11  C   UNL     1       2.564   2.385  17.850  0.00  0.00    +0.000 C 
ENDROOT
BRANCH   3  12
ATOM     12  C   UNL     1       2.398   7.154  19.658  0.00  0.00    +0.000 C 
ATOM     13  C   UNL     1       1.529   7.044  20.930  0.00  0.00    +0.000 C 
ATOM     14  C   UNL     1       1.038   8.459  21.008  0.00  0.00    +0.000 A 
ATOM     15  C   UNL     1       0.524   9.172  22.094  0.00  0.00    +0.000 A 
ATOM     16  C   UNL     1       0.139  10.511  21.889  0.00  0.00    +0.000 A 
ATOM     17  C   UNL     1       0.245  11.096  20.610  0.00  0.00    +0.000 A 
ATOM     18  C   UNL     1       0.751  10.355  19.530  0.00  0.00    +0.000 A 
ATOM     19  C   UNL     1       1.151   9.039  19.767  0.00  0.00    +0.000 A 
ATOM     20  N   UNL     1       1.752   8.164  18.850  0.00  0.00    +0.000 N 
ATOM     21  H   UNL     1       2.067   8.463  17.916  0.00  0.00    +0.000 HD
ENDBRANCH   3  12
TORSDOF 1
ENDMDL
MODEL 5
REMARK VINA RESULT:      -7.6      1.482      2.872
REMARK  Name = 
REMARK  3 active torsions:
REMARK  status: ('A' for Active; 'I' for Inactive)
REMARK    1  A    between atoms: C_1  and  C_2
REMARK    2  A    between atoms: C_3  and  C_4
REMARK    3  A    between atoms: N_19  and  C_20
REMARK                            x       y       z     vdW  Elec       q    Type
REMARK                         _______ _______ _______ _____ _____    ______ ____
ROOT
ATOM      1  C   UNL     1       2.162   4.059  21.171  0.00  0.00    +0.000 C 
ATOM      2  C   UNL     1       2.927   4.605  20.002  0.00  0.00    +0.000 A 
ATOM      3  C   UNL     1       2.789   5.876  19.430  0.00  0.00    +0.000 A 
ATOM      4  C   UNL     1       3.694   5.909  18.377  0.00  0.00    +0.000 A 
ATOM      5  C   UNL     1       4.008   6.928  17.470  0.00  0.00    +0.000 A 
ATOM      6  C   UNL     1       4.983   6.671  16.494  0.00  0.00    +0.000 A 
ATOM      7  C   UNL     1       5.613   5.414  16.434  0.00  0.00    +0.000 A 
ATOM      8  C   UNL     1       5.286   4.403  17.356  0.00  0.00    +0.000 A 
ATOM      9  C   UNL     1       4.319   4.686  18.329  0.00  0.00    +0.000 A 
ATOM     10  N   UNL     1       3.852   3.881  19.313  0.00  0.00    +0.000 N 
ATOM     11  C   UNL     1       4.236   2.497  19.587  0.00  0.00    +0.000 C 
ENDROOT
BRANCH   3  12
ATOM     12  C   UNL     1       1.824   6.991  19.779  0.00  0.00    +0.000 C 
ATOM     13  C   UNL     1       1.847   8.310  18.977  0.00  0.00    +0.000 C 
ATOM     14  C   UNL     1       1.117   9.192  19.946  0.00  0.00    +0.000 A 
ATOM     15  C   UNL     1       0.447  10.399  19.732  0.00  0.00    +0.000 A 
ATOM     16  C   UNL     1      -0.168  11.024  20.833  0.00  0.00    +0.000 A 
ATOM     17  C   UNL     1      -0.078  10.452  22.120  0.00  0.00    +0.000 A 
ATOM     18  C   UNL     1       0.614   9.245  22.314  0.00  0.00    +0.000 A 
ATOM     19  C   UNL     1       1.190   8.633  21.200  0.00  0.00    +0.000 A 
ATOM     20  N   UNL     1       1.849   7.395  21.167  0.00  0.00    +0.000 N 
ATOM     21  H   UNL     1       1.866   6.750  21.969  0.00  0.00    +0.000 HD
ENDBRANCH   3  12
TORSDOF 1
ENDMDL
MODEL 6
REMARK VINA RESULT:      -7.5      1.267      1.951
REMARK  Name = 
REMARK  3 active torsions:
REMARK  status: ('A' for Active; 'I' for Inactive)
REMARK    1  A    between atoms: C_1  and  C_2
REMARK    2  A    between atoms: C_3  and  C_4
REMARK    3  A    between atoms: N_19  and  C_20
REMARK                            x       y       z     vdW  Elec       q    Type
REMARK                         _______ _______ _______ _____ _____    ______ ____
ROOT
ATOM      1  C   UNL     1       4.064   7.323  17.451  0.00  0.00    +0.000 C 
ATOM      2  C   UNL     1       3.369   6.193  18.150  0.00  0.00    +0.000 A 
ATOM      3  C   UNL     1       2.491   6.292  19.238  0.00  0.00    +0.000 A 
ATOM      4  C   UNL     1       2.122   4.988  19.537  0.00  0.00    +0.000 A 
ATOM      5  C   UNL     1       1.250   4.482  20.509  0.00  0.00    +0.000 A 
ATOM      6  C   UNL     1       1.067   3.093  20.578  0.00  0.00    +0.000 A 
ATOM      7  C   UNL     1       1.755   2.241  19.694  0.00  0.00    +0.000 A 
ATOM      8  C   UNL     1       2.625   2.768  18.721  0.00  0.00    +0.000 A 
ATOM      9  C   UNL     1       2.783   4.159  18.662  0.00  0.00    +0.000 A 
ATOM     10  N   UNL     1       3.553   4.885  17.817  0.00  0.00    +0.000 N 
ATOM     11  C   UNL     1       4.431   4.384  16.761  0.00  0.00    +0.000 C 
ENDROOT
BRANCH   3  12
ATOM     12  C   UNL     1       2.063   7.517  20.021  0.00  0.00    +0.000 C 
ATOM     13  C   UNL     1       1.091   7.369  21.212  0.00  0.00    +0.000 C 
ATOM     14  C   UNL     1       0.628   8.791  21.322  0.00  0.00    +0.000 A 
ATOM     15  C   UNL     1       0.044   9.465  22.397  0.00  0.00    +0.000 A 
ATOM     16  C   UNL     1      -0.292  10.821  22.230  0.00  0.00    +0.000 A 
ATOM     17  C   UNL     1      -0.068  11.466  20.995  0.00  0.00    +0.000 A 
ATOM     18  C   UNL     1       0.507  10.764  19.923  0.00  0.00    +0.000 A 
ATOM     19  C   UNL     1       0.856   9.428  20.125  0.00  0.00    +0.000 A 
ATOM     20  N   UNL     1       1.509   8.582  19.215  0.00  0.00    +0.000 N 
ATOM     21  H   UNL     1       1.907   8.918  18.327  0.00  0.00    +0.000 HD
ENDBRANCH   3  12
TORSDOF 1
ENDMDL
MODEL 7
REMARK VINA RESULT:      -7.3      2.129      6.577
REMARK  Name = 
REMARK  3 active torsions:
REMARK  status: ('A' for Active; 'I' for Inactive)
REMARK    1  A    between atoms: C_1  and  C_2
REMARK    2  A    between atoms: C_3  and  C_4
REMARK    3  A    between atoms: N_19  and  C_20
REMARK                            x       y       z     vdW  Elec       q    Type
REMARK                         _______ _______ _______ _____ _____    ______ ____
ROOT
ATOM      1  C   UNL     1       4.141   2.237  19.713  0.00  0.00    +0.000 C 
ATOM      2  C   UNL     1       3.646   3.641  19.539  0.00  0.00    +0.000 A 
ATOM      3  C   UNL     1       3.983   4.528  18.508  0.00  0.00    +0.000 A 
ATOM      4  C   UNL     1       3.290   5.698  18.783  0.00  0.00    +0.000 A 
ATOM      5  C   UNL     1       3.225   6.911  18.087  0.00  0.00    +0.000 A 
ATOM      6  C   UNL     1       2.426   7.937  18.613  0.00  0.00    +0.000 A 
ATOM      7  C   UNL     1       1.721   7.743  19.815  0.00  0.00    +0.000 A 
ATOM      8  C   UNL     1       1.795   6.516  20.500  0.00  0.00    +0.000 A 
ATOM      9  C   UNL     1       2.590   5.501  19.950  0.00  0.00    +0.000 A 
ATOM     10  N   UNL     1       2.807   4.251  20.422  0.00  0.00    +0.000 N 
ATOM     11  C   UNL     1       2.273   3.658  21.647  0.00  0.00    +0.000 C 
ENDROOT
BRANCH   3  12
ATOM     12  C   UNL     1       4.954   4.344  17.359  0.00  0.00    +0.000 C 
ATOM     13  C   UNL     1       6.004   5.435  17.055  0.00  0.00    +0.000 C 
ATOM     14  C   UNL     1       6.354   5.047  15.650  0.00  0.00    +0.000 A 
ATOM     15  C   UNL     1       7.487   5.347  14.891  0.00  0.00    +0.000 A 
ATOM     16  C   UNL     1       7.564   4.842  13.579  0.00  0.00    +0.000 A 
ATOM     17  C   UNL     1       6.505   4.078  13.045  0.00  0.00    +0.000 A 
ATOM     18  C   UNL     1       5.368   3.800  13.822  0.00  0.00    +0.000 A 
ATOM     19  C   UNL     1       5.330   4.291  15.128  0.00  0.00    +0.000 A 
ATOM     20  N   UNL     1       4.331   4.060  16.086  0.00  0.00    +0.000 N 
ATOM     21  H   UNL     1       3.564   3.388  15.941  0.00  0.00    +0.000 HD
ENDBRANCH   3  12
TORSDOF 1
ENDMDL
MODEL 8
REMARK VINA RESULT:      -7.3      1.519      1.526
REMARK  Name = 
REMARK  3 active torsions:
REMARK  status: ('A' for Active; 'I' for Inactive)
REMARK    1  A    between atoms: C_1  and  C_2
REMARK    2  A    between atoms: C_3  and  C_4
REMARK    3  A    between atoms: N_19  and  C_20
REMARK                            x       y       z     vdW  Elec       q    Type
REMARK                         _______ _______ _______ _____ _____    ______ ____
ROOT
ATOM      1  C   UNL     1       4.332   7.040  17.421  0.00  0.00    +0.000 C 
ATOM      2  C   UNL     1       3.901   5.972  18.380  0.00  0.00    +0.000 A 
ATOM      3  C   UNL     1       2.822   6.030  19.271  0.00  0.00    +0.000 A 
ATOM      4  C   UNL     1       2.834   4.819  19.949  0.00  0.00    +0.000 A 
ATOM      5  C   UNL     1       1.980   4.311  20.936  0.00  0.00    +0.000 A 
ATOM      6  C   UNL     1       2.242   3.031  21.447  0.00  0.00    +0.000 A 
ATOM      7  C   UNL     1       3.343   2.291  20.978  0.00  0.00    +0.000 A 
ATOM      8  C   UNL     1       4.189   2.816  19.983  0.00  0.00    +0.000 A 
ATOM      9  C   UNL     1       3.901   4.091  19.479  0.00  0.00    +0.000 A 
ATOM     10  N   UNL     1       4.563   4.790  18.526  0.00  0.00    +0.000 N 
ATOM     11  C   UNL     1       5.765   4.385  17.799  0.00  0.00    +0.000 C 
ENDROOT
BRANCH   3  12
ATOM     12  C   UNL     1       1.862   7.170  19.549  0.00  0.00    +0.000 C 
ATOM     13  C   UNL     1       1.876   8.426  18.650  0.00  0.00    +0.000 C 
ATOM     14  C   UNL     1       1.160   9.379  19.560  0.00  0.00    +0.000 A 
ATOM     15  C   UNL     1       0.489  10.568  19.265  0.00  0.00    +0.000 A 
ATOM     16  C   UNL     1      -0.111  11.275  20.325  0.00  0.00    +0.000 A 
ATOM     17  C   UNL     1      -0.005  10.800  21.649  0.00  0.00    +0.000 A 
ATOM     18  C   UNL     1       0.688   9.609  21.923  0.00  0.00    +0.000 A 
ATOM     19  C   UNL     1       1.249   8.915  20.851  0.00  0.00    +0.000 A 
ATOM     20  N   UNL     1       1.906   7.676  20.902  0.00  0.00    +0.000 N 
ATOM     21  H   UNL     1       1.932   7.092  21.750  0.00  0.00    +0.000 HD
ENDBRANCH   3  12
TORSDOF 1
ENDMDL
MODEL 9
REMARK VINA RESULT:      -7.2      2.278      6.276
REMARK  Name = 
REMARK  3 active torsions:
REMARK  status: ('A' for Active; 'I' for Inactive)
REMARK    1  A    between atoms: C_1  and  C_2
REMARK    2  A    between atoms: C_3  and  C_4
REMARK    3  A    between atoms: N_19  and  C_20
REMARK                            x       y       z     vdW  Elec       q    Type
REMARK                         _______ _______ _______ _____ _____    ______ ____
ROOT
ATOM      1  C   UNL     1       3.599   7.620  17.617  0.00  0.00    +0.000 C 
ATOM      2  C   UNL     1       3.496   6.368  18.434  0.00  0.00    +0.000 A 
ATOM      3  C   UNL     1       4.143   5.150  18.188  0.00  0.00    +0.000 A 
ATOM      4  C   UNL     1       3.728   4.298  19.202  0.00  0.00    +0.000 A 
ATOM      5  C   UNL     1       4.066   2.967  19.478  0.00  0.00    +0.000 A 
ATOM      6  C   UNL     1       3.480   2.350  20.593  0.00  0.00    +0.000 A 
ATOM      7  C   UNL     1       2.570   3.058  21.400  0.00  0.00    +0.000 A 
ATOM      8  C   UNL     1       2.244   4.396  21.109  0.00  0.00    +0.000 A 
ATOM      9  C   UNL     1       2.851   4.995  19.998  0.00  0.00    +0.000 A 
ATOM     10  N   UNL     1       2.697   6.257  19.533  0.00  0.00    +0.000 N 
ATOM     11  C   UNL     1       1.835   7.306  20.074  0.00  0.00    +0.000 C 
ENDROOT
BRANCH   3  12
ATOM     12  C   UNL     1       5.045   4.753  17.037  0.00  0.00    +0.000 C 
ATOM     13  C   UNL     1       6.126   5.733  16.531  0.00  0.00    +0.000 C 
ATOM     14  C   UNL     1       6.385   5.129  15.184  0.00  0.00    +0.000 A 
ATOM     15  C   UNL     1       7.491   5.258  14.340  0.00  0.00    +0.000 A 
ATOM     16  C   UNL     1       7.479   4.566  13.114  0.00  0.00    +0.000 A 
ATOM     17  C   UNL     1       6.361   3.788  12.745  0.00  0.00    +0.000 A 
ATOM     18  C   UNL     1       5.254   3.685  13.604  0.00  0.00    +0.000 A 
ATOM     19  C   UNL     1       5.304   4.359  14.824  0.00  0.00    +0.000 A 
ATOM     20  N   UNL     1       4.346   4.320  15.848  0.00  0.00    +0.000 N 
ATOM     21  H   UNL     1       3.543   3.675  15.837  0.00  0.00    +0.000 HD
ENDBRANCH   3  12
TORSDOF 1
ENDMDL
