MODEL 1
REMARK VINA RESULT:      -8.0      0.000      0.000
REMARK  Name = 
REMARK  5 active torsions:
REMARK  status: ('A' for Active; 'I' for Inactive)
REMARK    1  A    between atoms: C_2  and  C_12
REMARK    2  A    between atoms: N_3  and  C_4
REMARK    3  A    between atoms: C_4  and  C_5
REMARK    4  A    between atoms: C_9  and  O_10
REMARK    5  A    between atoms: C_16  and  O_17
REMARK                            x       y       z     vdW  Elec       q    Type
REMARK                         _______ _______ _______ _____ _____    ______ ____
ROOT
ATOM      1  O   UNL     1       7.059   4.687  18.346  0.00  0.00    +0.000 OA
ATOM      2  C   UNL     1       6.114   4.986  17.635  0.00  0.00    +0.000 C 
ATOM      3  N   UNL     1       4.866   5.327  18.120  0.00  0.00    +0.000 N 
ATOM      4  H   UNL     1       4.208   5.714  17.468  0.00  0.00    +0.000 HD
ENDROOT
BRANCH   2   5
ATOM      5  C   UNL     1       6.170   4.962  16.189  0.00  0.00    +0.000 A 
ATOM      6  C   UNL     1       5.236   4.475  15.294  0.00  0.00    +0.000 A 
ATOM      7  C   UNL     1       5.933   4.195  14.101  0.00  0.00    +0.000 A 
ATOM      8  C   UNL     1       5.699   3.331  13.027  0.00  0.00    +0.000 A 
ATOM      9  C   UNL     1       6.610   3.356  11.980  0.00  0.00    +0.000 A 
ATOM     10  C   UNL     1       7.593   4.332  11.886  0.00  0.00    +0.000 A 
ATOM     11  C   UNL     1       7.869   5.162  12.978  0.00  0.00    +0.000 A 
ATOM     12  C   UNL     1       7.091   4.965  14.124  0.00  0.00    +0.000 A 
ATOM     13  N   UNL     1       7.281   5.317  15.447  0.00  0.00    +0.000 N 
ATOM     14  H   UNL     1       8.168   5.596  15.846  0.00  0.00    +0.000 HD
BRANCH   9  15
ATOM     15  O   UNL     1       6.597   2.351  11.057  0.00  0.00    +0.000 OA
ATOM     16  H   UNL     1       6.491   2.792  10.193  0.00  0.00    +0.000 HD
ENDBRANCH   9  15
ENDBRANCH   2   5
BRANCH   3  17
ATOM     17  C   UNL     1       4.523   5.374  19.511  0.00  0.00    +0.000 C 
BRANCH  17  18
ATOM     18  C   UNL     1       3.295   4.524  19.746  0.00  0.00    +0.000 A 
ATOM     19  C   UNL     1       2.270   5.007  20.570  0.00  0.00    +0.000 A 
ATOM     20  C   UNL     1       1.116   4.255  20.786  0.00  0.00    +0.000 A 
ATOM     21  C   UNL     1       0.977   3.005  20.185  0.00  0.00    +0.000 A 
ATOM     22  C   UNL     1       1.994   2.521  19.366  0.00  0.00    +0.000 A 
ATOM     23  C   UNL     1       3.145   3.269  19.137  0.00  0.00    +0.000 A 
BRANCH  22  24
ATOM     24  O   UNL     1       1.893   1.303  18.761  0.00  0.00    +0.000 OA
ATOM     25  H   UNL     1       2.522   0.696  19.187  0.00  0.00    +0.000 HD
ENDBRANCH  22  24
ENDBRANCH  17  18
ENDBRANCH   3  17
TORSDOF 5
ENDMDL
MODEL 2
REMARK VINA RESULT:      -7.8      1.049      1.251
REMARK  Name = 
REMARK  5 active torsions:
REMARK  status: ('A' for Active; 'I' for Inactive)
REMARK    1  A    between atoms: C_2  and  C_12
REMARK    2  A    between atoms: N_3  and  C_4
REMARK    3  A    between atoms: C_4  and  C_5
REMARK    4  A    between atoms: C_9  and  O_10
REMARK    5  A    between atoms: C_16  and  O_17
REMARK                            x       y       z     vdW  Elec       q    Type
REMARK                         _______ _______ _______ _____ _____    ______ ____
ROOT
ATOM      1  O   UNL     1       6.721   4.671  18.549  0.00  0.00    +0.000 OA
ATOM      2  C   UNL     1       5.827   5.003  17.788  0.00  0.00    +0.000 C 
ATOM      3  N   UNL     1       4.566   5.384  18.207  0.00  0.00    +0.000 N 
ATOM      4  H   UNL     1       3.958   5.794  17.521  0.00  0.00    +0.000 HD
ENDROOT
BRANCH   2   5
ATOM      5  C   UNL     1       5.961   4.982  16.348  0.00  0.00    +0.000 A 
ATOM      6  C   UNL     1       5.086   4.478  15.404  0.00  0.00    +0.000 A 
ATOM      7  C   UNL     1       5.852   4.214  14.250  0.00  0.00    +0.000 A 
ATOM      8  C   UNL     1       5.693   3.347  13.164  0.00  0.00    +0.000 A 
ATOM      9  C   UNL     1       6.659   3.391  12.168  0.00  0.00    +0.000 A 
ATOM     10  C   UNL     1       7.626   4.386  12.128  0.00  0.00    +0.000 A 
ATOM     11  C   UNL     1       7.827   5.220  13.234  0.00  0.00    +0.000 A 
ATOM     12  C   UNL     1       6.992   5.006  14.336  0.00  0.00    +0.000 A 
ATOM     13  N   UNL     1       7.103   5.360  15.667  0.00  0.00    +0.000 N 
ATOM     14  H   UNL     1       7.962   5.655  16.114  0.00  0.00    +0.000 HD
BRANCH   9  15
ATOM     15  O   UNL     1       6.715   2.387  11.246  0.00  0.00    +0.000 OA
ATOM     16  H   UNL     1       7.455   2.619  10.653  0.00  0.00    +0.000 HD
ENDBRANCH   9  15
ENDBRANCH   2   5
BRANCH   3  17
ATOM     17  C   UNL     1       4.149   5.437  19.577  0.00  0.00    +0.000 C 
BRANCH  17  18
ATOM     18  C   UNL     1       2.966   4.516  19.769  0.00  0.00    +0.000 A 
ATOM     19  C   UNL     1       2.141   4.216  18.676  0.00  0.00    +0.000 A 
ATOM     20  C   UNL     1       1.056   3.352  18.819  0.00  0.00    +0.000 A 
ATOM     21  C   UNL     1       0.778   2.783  20.060  0.00  0.00    +0.000 A 
ATOM     22  C   UNL     1       1.594   3.078  21.148  0.00  0.00    +0.000 A 
ATOM     23  C   UNL     1       2.685   3.932  21.013  0.00  0.00    +0.000 A 
BRANCH  22  24
ATOM     24  O   UNL     1       1.353   2.540  22.377  0.00  0.00    +0.000 OA
ATOM     25  H   UNL     1       0.580   1.955  22.310  0.00  0.00    +0.000 HD
ENDBRANCH  22  24
ENDBRANCH  17  18
ENDBRANCH   3  17
TORSDOF 5
ENDMDL
MODEL 3
REMARK VINA RESULT:      -7.5      1.668      7.475
REMARK  Name = 
REMARK  5 active torsions:
REMARK  status: ('A' for Active; 'I' for Inactive)
REMARK    1  A    between atoms: C_2  and  C_12
REMARK    2  A    between atoms: N_3  and  C_4
REMARK    3  A    between atoms: C_4  and  C_5
REMARK    4  A    between atoms: C_9  and  O_10
REMARK    5  A    between atoms: C_16  and  O_17
REMARK                            x       y       z     vdW  Elec       q    Type
REMARK                         _______ _______ _______ _____ _____    ______ ____
ROOT
ATOM      1  O   UNL     1       4.955   6.877  16.366  0.00  0.00    +0.000 OA
ATOM      2  C   UNL     1       4.923   5.705  16.707  0.00  0.00    +0.000 C 
ATOM      3  N   UNL     1       5.957   4.815  16.491  0.00  0.00    +0.000 N 
ATOM      4  H   UNL     1       5.901   3.924  16.951  0.00  0.00    +0.000 HD
ENDROOT
BRANCH   2   5
ATOM      5  C   UNL     1       3.769   5.091  17.326  0.00  0.00    +0.000 A 
ATOM      6  C   UNL     1       2.905   5.621  18.266  0.00  0.00    +0.000 A 
ATOM      7  C   UNL     1       2.306   4.527  18.922  0.00  0.00    +0.000 A 
ATOM      8  C   UNL     1       1.718   4.359  20.179  0.00  0.00    +0.000 A 
ATOM      9  C   UNL     1       1.184   3.112  20.471  0.00  0.00    +0.000 A 
ATOM     10  C   UNL     1       1.040   2.130  19.499  0.00  0.00    +0.000 A 
ATOM     11  C   UNL     1       1.673   2.267  18.259  0.00  0.00    +0.000 A 
ATOM     12  C   UNL     1       2.413   3.438  18.062  0.00  0.00    +0.000 A 
ATOM     13  N   UNL     1       3.413   3.765  17.166  0.00  0.00    +0.000 N 
ATOM     14  H   UNL     1       3.944   3.093  16.628  0.00  0.00    +0.000 HD
BRANCH   9  15
ATOM     15  O   UNL     1       0.863   2.805  21.761  0.00  0.00    +0.000 OA
ATOM     16  H   UNL     1       0.617   1.861  21.752  0.00  0.00    +0.000 HD
ENDBRANCH   9  15
ENDBRANCH   2   5
BRANCH   3  17
ATOM     17  C   UNL     1       7.193   5.149  15.845  0.00  0.00    +0.000 C 
BRANCH  17  18
ATOM     18  C   UNL     1       7.095   4.795  14.379  0.00  0.00    +0.000 A 
ATOM     19  C   UNL     1       7.818   5.543  13.440  0.00  0.00    +0.000 A 
ATOM     20  C   UNL     1       7.764   5.225  12.083  0.00  0.00    +0.000 A 
ATOM     21  C   UNL     1       6.981   4.158  11.649  0.00  0.00    +0.000 A 
ATOM     22  C   UNL     1       6.261   3.412  12.578  0.00  0.00    +0.000 A 
ATOM     23  C   UNL     1       6.316   3.716  13.936  0.00  0.00    +0.000 A 
BRANCH  22  24
ATOM     24  O   UNL     1       5.484   2.361  12.191  0.00  0.00    +0.000 OA
ATOM     25  H   UNL     1       5.761   2.087  11.300  0.00  0.00    +0.000 HD
ENDBRANCH  22  24
ENDBRANCH  17  18
ENDBRANCH   3  17
TORSDOF 5
ENDMDL
MODEL 4
REMARK VINA RESULT:      -7.5      5.059      7.546
REMARK  Name = 
REMARK  5 active torsions:
REMARK  status: ('A' for Active; 'I' for Inactive)
REMARK    1  A    between atoms: C_2  and  C_12
REMARK    2  A    between atoms: N_3  and  C_4
REMARK    3  A    between atoms: C_4  and  C_5
REMARK    4  A    between atoms: C_9  and  O_10
REMARK    5  A    between atoms: C_16  and  O_17
REMARK                            x       y       z     vdW  Elec       q    Type
REMARK                         _______ _______ _______ _____ _____    ______ ____
ROOT
ATOM      1  O   UNL     1       2.484   8.964  17.372  0.00  0.00    +0.000 OA
ATOM      2  C   UNL     1       2.086   8.408  18.382  0.00  0.00    +0.000 C 
ATOM      3  N   UNL     1       1.296   9.022  19.336  0.00  0.00    +0.000 N 
ATOM      4  H   UNL     1       0.888   8.437  20.042  0.00  0.00    +0.000 HD
ENDROOT
BRANCH   2   5
ATOM      5  C   UNL     1       2.443   7.051  18.735  0.00  0.00    +0.000 A 
ATOM      6  C   UNL     1       2.881   6.029  17.912  0.00  0.00    +0.000 A 
ATOM      7  C   UNL     1       2.595   4.824  18.585  0.00  0.00    +0.000 A 
ATOM      8  C   UNL     1       2.385   3.508  18.160  0.00  0.00    +0.000 A 
ATOM      9  C   UNL     1       2.160   2.552  19.140  0.00  0.00    +0.000 A 
ATOM     10  C   UNL     1       2.343   2.826  20.489  0.00  0.00    +0.000 A 
ATOM     11  C   UNL     1       2.497   4.147  20.925  0.00  0.00    +0.000 A 
ATOM     12  C   UNL     1       2.485   5.136  19.936  0.00  0.00    +0.000 A 
ATOM     13  N   UNL     1       2.264   6.499  19.989  0.00  0.00    +0.000 N 
ATOM     14  H   UNL     1       1.837   6.982  20.769  0.00  0.00    +0.000 HD
BRANCH   9  15
ATOM     15  O   UNL     1       1.671   1.329  18.783  0.00  0.00    +0.000 OA
ATOM     16  H   UNL     1       2.454   0.762  18.653  0.00  0.00    +0.000 HD
ENDBRANCH   9  15
ENDBRANCH   2   5
BRANCH   3  17
ATOM     17  C   UNL     1       0.846  10.381  19.261  0.00  0.00    +0.000 C 
BRANCH  17  18
ATOM     18  C   UNL     1       0.105  10.726  20.533  0.00  0.00    +0.000 A 
ATOM     19  C   UNL     1      -0.807  11.791  20.532  0.00  0.00    +0.000 A 
ATOM     20  C   UNL     1      -1.521  12.117  21.684  0.00  0.00    +0.000 A 
ATOM     21  C   UNL     1      -1.326  11.386  22.854  0.00  0.00    +0.000 A 
ATOM     22  C   UNL     1      -0.421  10.328  22.860  0.00  0.00    +0.000 A 
ATOM     23  C   UNL     1       0.289   9.989  21.712  0.00  0.00    +0.000 A 
BRANCH  22  24
ATOM     24  O   UNL     1      -0.205   9.591  23.986  0.00  0.00    +0.000 OA
ATOM     25  H   UNL     1       0.477  10.035  24.517  0.00  0.00    +0.000 HD
ENDBRANCH  22  24
ENDBRANCH  17  18
ENDBRANCH   3  17
TORSDOF 5
ENDMDL
MODEL 5
REMARK VINA RESULT:      -7.4      5.729      8.054
REMARK  Name = 
REMARK  5 active torsions:
REMARK  status: ('A' for Active; 'I' for Inactive)
REMARK    1  A    between atoms: C_2  and  C_12
REMARK    2  A    between atoms: N_3  and  C_4
REMARK    3  A    between atoms: C_4  and  C_5
REMARK    4  A    between atoms: C_9  and  O_10
REMARK    5  A    between atoms: C_16  and  O_17
REMARK                            x       y       z     vdW  Elec       q    Type
REMARK                         _______ _______ _______ _____ _____    ______ ____
ROOT
ATOM      1  O   UNL     1       2.426   9.330  17.425  0.00  0.00    +0.000 OA
ATOM      2  C   UNL     1       1.949   8.785  18.406  0.00  0.00    +0.000 C 
ATOM      3  N   UNL     1       1.092   9.410  19.291  0.00  0.00    +0.000 N 
ATOM      4  H   UNL     1       0.627   8.833  19.969  0.00  0.00    +0.000 HD
ENDROOT
BRANCH   2   5
ATOM      5  C   UNL     1       2.271   7.429  18.796  0.00  0.00    +0.000 A 
ATOM      6  C   UNL     1       2.718   6.385  18.008  0.00  0.00    +0.000 A 
ATOM      7  C   UNL     1       2.390   5.197  18.694  0.00  0.00    +0.000 A 
ATOM      8  C   UNL     1       2.170   3.877  18.288  0.00  0.00    +0.000 A 
ATOM      9  C   UNL     1       1.899   2.944  19.279  0.00  0.00    +0.000 A 
ATOM     10  C   UNL     1       2.043   3.242  20.627  0.00  0.00    +0.000 A 
ATOM     11  C   UNL     1       2.206   4.569  21.043  0.00  0.00    +0.000 A 
ATOM     12  C   UNL     1       2.242   5.538  20.035  0.00  0.00    +0.000 A 
ATOM     13  N   UNL     1       2.043   6.905  20.054  0.00  0.00    +0.000 N 
ATOM     14  H   UNL     1       1.600   7.411  20.810  0.00  0.00    +0.000 HD
BRANCH   9  15
ATOM     15  O   UNL     1       1.400   1.723  18.930  0.00  0.00    +0.000 OA
ATOM     16  H   UNL     1       1.020   1.842  18.038  0.00  0.00    +0.000 HD
ENDBRANCH   9  15
ENDBRANCH   2   5
BRANCH   3  17
ATOM     17  C   UNL     1       0.655  10.771  19.172  0.00  0.00    +0.000 C 
BRANCH  17  18
ATOM     18  C   UNL     1      -0.760  10.791  18.641  0.00  0.00    +0.000 A 
ATOM     19  C   UNL     1      -1.136   9.876  17.648  0.00  0.00    +0.000 A 
ATOM     20  C   UNL     1      -2.441   9.856  17.156  0.00  0.00    +0.000 A 
ATOM     21  C   UNL     1      -3.383  10.758  17.647  0.00  0.00    +0.000 A 
ATOM     22  C   UNL     1      -3.014  11.668  18.632  0.00  0.00    +0.000 A 
ATOM     23  C   UNL     1      -1.717  11.689  19.137  0.00  0.00    +0.000 A 
BRANCH  22  24
ATOM     24  O   UNL     1      -3.909  12.565  19.136  0.00  0.00    +0.000 OA
ATOM     25  H   UNL     1      -4.803  12.278  18.888  0.00  0.00    +0.000 HD
ENDBRANCH  22  24
ENDBRANCH  17  18
ENDBRANCH   3  17
TORSDOF 5
ENDMDL
MODEL 6
REMARK VINA RESULT:      -7.4      1.744      7.366
REMARK  Name = 
REMARK  5 active torsions:
REMARK  status: ('A' for Active; 'I' for Inactive)
REMARK    1  A    between atoms: C_2  and  C_12
REMARK    2  A    between atoms: N_3  and  C_4
REMARK    3  A    between atoms: C_4  and  C_5
REMARK    4  A    between atoms: C_9  and  O_10
REMARK    5  A    between atoms: C_16  and  O_17
REMARK                            x       y       z     vdW  Elec       q    Type
REMARK                         _______ _______ _______ _____ _____    ______ ____
ROOT
ATOM      1  O   UNL     1       5.247   6.606  15.180  0.00  0.00    +0.000 OA
ATOM      2  C   UNL     1       5.340   5.498  15.682  0.00  0.00    +0.000 C 
ATOM      3  N   UNL     1       6.035   4.451  15.108  0.00  0.00    +0.000 N 
ATOM      4  H   UNL     1       6.190   3.636  15.672  0.00  0.00    +0.000 HD
ENDROOT
BRANCH   2   5
ATOM      5  C   UNL     1       4.681   5.129  16.916  0.00  0.00    +0.000 A 
ATOM      6  C   UNL     1       4.360   3.867  17.383  0.00  0.00    +0.000 A 
ATOM      7  C   UNL     1       3.311   4.038  18.308  0.00  0.00    +0.000 A 
ATOM      8  C   UNL     1       2.294   3.202  18.780  0.00  0.00    +0.000 A 
ATOM      9  C   UNL     1       1.443   3.718  19.747  0.00  0.00    +0.000 A 
ATOM     10  C   UNL     1       1.701   4.926  20.382  0.00  0.00    +0.000 A 
ATOM     11  C   UNL     1       2.679   5.792  19.880  0.00  0.00    +0.000 A 
ATOM     12  C   UNL     1       3.376   5.356  18.748  0.00  0.00    +0.000 A 
ATOM     13  N   UNL     1       4.122   6.031  17.801  0.00  0.00    +0.000 N 
ATOM     14  H   UNL     1       4.092   7.032  17.652  0.00  0.00    +0.000 HD
BRANCH   9  15
ATOM     15  O   UNL     1       0.278   3.066  20.030  0.00  0.00    +0.000 OA
ATOM     16  H   UNL     1       0.309   2.881  20.988  0.00  0.00    +0.000 HD
ENDBRANCH   9  15
ENDBRANCH   2   5
BRANCH   3  17
ATOM     17  C   UNL     1       6.731   4.531  13.857  0.00  0.00    +0.000 C 
BRANCH  17  18
ATOM     18  C   UNL     1       6.019   3.670  12.839  0.00  0.00    +0.000 A 
ATOM     19  C   UNL     1       4.755   4.057  12.372  0.00  0.00    +0.000 A 
ATOM     20  C   UNL     1       4.085   3.294  11.417  0.00  0.00    +0.000 A 
ATOM     21  C   UNL     1       4.667   2.129  10.923  0.00  0.00    +0.000 A 
ATOM     22  C   UNL     1       5.922   1.741  11.384  0.00  0.00    +0.000 A 
ATOM     23  C   UNL     1       6.603   2.500  12.330  0.00  0.00    +0.000 A 
BRANCH  22  24
ATOM     24  O   UNL     1       6.523   0.607  10.923  0.00  0.00    +0.000 OA
ATOM     25  H   UNL     1       7.415   0.837  10.613  0.00  0.00    +0.000 HD
ENDBRANCH  22  24
ENDBRANCH  17  18
ENDBRANCH   3  17
TORSDOF 5
ENDMDL
MODEL 7
REMARK VINA RESULT:      -7.3      1.564      2.076
REMARK  Name = 
REMARK  5 active torsions:
REMARK  status: ('A' for Active; 'I' for Inactive)
REMARK    1  A    between atoms: C_2  and  C_12
REMARK    2  A    between atoms: N_3  and  C_4
REMARK    3  A    between atoms: C_4  and  C_5
REMARK    4  A    between atoms: C_9  and  O_10
REMARK    5  A    between atoms: C_16  and  O_17
REMARK                            x       y       z     vdW  Elec       q    Type
REMARK                         _______ _______ _______ _____ _____    ______ ____
ROOT
ATOM      1  O   UNL     1       5.926   4.133  19.065  0.00  0.00    +0.000 OA
ATOM      2  C   UNL     1       5.495   4.634  18.039  0.00  0.00    +0.000 C 
ATOM      3  N   UNL     1       4.381   5.449  17.993  0.00  0.00    +0.000 N 
ATOM      4  H   UNL     1       4.205   5.941  17.135  0.00  0.00    +0.000 HD
ENDROOT
BRANCH   2   5
ATOM      5  C   UNL     1       6.068   4.385  16.734  0.00  0.00    +0.000 A 
ATOM      6  C   UNL     1       7.292   4.790  16.234  0.00  0.00    +0.000 A 
ATOM      7  C   UNL     1       7.175   4.774  14.829  0.00  0.00    +0.000 A 
ATOM      8  C   UNL     1       7.840   5.444  13.798  0.00  0.00    +0.000 A 
ATOM      9  C   UNL     1       7.470   5.136  12.496  0.00  0.00    +0.000 A 
ATOM     10  C   UNL     1       6.634   4.066  12.205  0.00  0.00    +0.000 A 
ATOM     11  C   UNL     1       5.923   3.428  13.228  0.00  0.00    +0.000 A 
ATOM     12  C   UNL     1       6.128   3.910  14.525  0.00  0.00    +0.000 A 
ATOM     13  N   UNL     1       5.390   3.791  15.687  0.00  0.00    +0.000 N 
ATOM     14  H   UNL     1       4.420   3.504  15.725  0.00  0.00    +0.000 HD
BRANCH   9  15
ATOM     15  O   UNL     1       7.869   5.949  11.476  0.00  0.00    +0.000 OA
ATOM     16  H   UNL     1       8.128   5.350  10.751  0.00  0.00    +0.000 HD
ENDBRANCH   9  15
ENDBRANCH   2   5
BRANCH   3  17
ATOM     17  C   UNL     1       3.592   5.810  19.134  0.00  0.00    +0.000 C 
BRANCH  17  18
ATOM     18  C   UNL     1       2.607   4.700  19.424  0.00  0.00    +0.000 A 
ATOM     19  C   UNL     1       1.837   4.172  18.379  0.00  0.00    +0.000 A 
ATOM     20  C   UNL     1       0.937   3.133  18.613  0.00  0.00    +0.000 A 
ATOM     21  C   UNL     1       0.792   2.614  19.898  0.00  0.00    +0.000 A 
ATOM     22  C   UNL     1       1.554   3.136  20.939  0.00  0.00    +0.000 A 
ATOM     23  C   UNL     1       2.462   4.167  20.714  0.00  0.00    +0.000 A 
BRANCH  22  24
ATOM     24  O   UNL     1       1.439   2.654  22.209  0.00  0.00    +0.000 OA
ATOM     25  H   UNL     1       0.590   2.954  22.576  0.00  0.00    +0.000 HD
ENDBRANCH  22  24
ENDBRANCH  17  18
ENDBRANCH   3  17
TORSDOF 5
ENDMDL
MODEL 8
REMARK VINA RESULT:      -7.3      5.586      7.322
REMARK  Name = 
REMARK  5 active torsions:
REMARK  status: ('A' for Active; 'I' for Inactive)
REMARK    1  A    between atoms: C_2  and  C_12
REMARK    2  A    between atoms: N_3  and  C_4
REMARK    3  A    between atoms: C_4  and  C_5
REMARK    4  A    between atoms: C_9  and  O_10
REMARK    5  A    between atoms: C_16  and  O_17
REMARK                            x       y       z     vdW  Elec       q    Type
REMARK                         _______ _______ _______ _____ _____    ______ ____
ROOT
ATOM      1  O   UNL     1       8.386   6.764  18.926  0.00  0.00    +0.000 OA
ATOM      2  C   UNL     1       8.091   7.717  18.222  0.00  0.00    +0.000 C 
ATOM      3  N   UNL     1       7.386   7.607  17.039  0.00  0.00    +0.000 N 
ATOM      4  H   UNL     1       7.052   8.457  16.621  0.00  0.00    +0.000 HD
ENDROOT
BRANCH   2   5
ATOM      5  C   UNL     1       8.497   9.074  18.514  0.00  0.00    +0.000 A 
ATOM      6  C   UNL     1       8.465  10.184  17.690  0.00  0.00    +0.000 A 
ATOM      7  C   UNL     1       9.408  11.095  18.208  0.00  0.00    +0.000 A 
ATOM      8  C   UNL     1      10.144  12.144  17.650  0.00  0.00    +0.000 A 
ATOM      9  C   UNL     1      10.969  12.866  18.501  0.00  0.00    +0.000 A 
ATOM     10  C   UNL     1      10.920  12.708  19.880  0.00  0.00    +0.000 A 
ATOM     11  C   UNL     1      10.231  11.627  20.441  0.00  0.00    +0.000 A 
ATOM     12  C   UNL     1       9.593  10.761  19.547  0.00  0.00    +0.000 A 
ATOM     13  N   UNL     1       9.137   9.463  19.675  0.00  0.00    +0.000 N 
ATOM     14  H   UNL     1       9.411   8.829  20.415  0.00  0.00    +0.000 HD
BRANCH   9  15
ATOM     15  O   UNL     1      11.913  13.697  17.972  0.00  0.00    +0.000 OA
ATOM     16  H   UNL     1      12.672  13.654  18.585  0.00  0.00    +0.000 HD
ENDBRANCH   9  15
ENDBRANCH   2   5
BRANCH   3  17
ATOM     17  C   UNL     1       6.913   6.371  16.489  0.00  0.00    +0.000 C 
BRANCH  17  18
ATOM     18  C   UNL     1       5.808   5.830  17.367  0.00  0.00    +0.000 A 
ATOM     19  C   UNL     1       4.610   6.547  17.488  0.00  0.00    +0.000 A 
ATOM     20  C   UNL     1       3.566   6.061  18.273  0.00  0.00    +0.000 A 
ATOM     21  C   UNL     1       3.710   4.853  18.953  0.00  0.00    +0.000 A 
ATOM     22  C   UNL     1       4.898   4.138  18.836  0.00  0.00    +0.000 A 
ATOM     23  C   UNL     1       5.943   4.610  18.047  0.00  0.00    +0.000 A 
BRANCH  22  24
ATOM     24  O   UNL     1       5.075   2.952  19.486  0.00  0.00    +0.000 OA
ATOM     25  H   UNL     1       4.654   3.015  20.360  0.00  0.00    +0.000 HD
ENDBRANCH  22  24
ENDBRANCH  17  18
ENDBRANCH   3  17
TORSDOF 5
ENDMDL
MODEL 9
REMARK VINA RESULT:      -7.3      5.521      9.256
REMARK  Name = 
REMARK  5 active torsions:
REMARK  status: ('A' for Active; 'I' for Inactive)
REMARK    1  A    between atoms: C_2  and  C_12
REMARK    2  A    between atoms: N_3  and  C_4
REMARK    3  A    between atoms: C_4  and  C_5
REMARK    4  A    between atoms: C_9  and  O_10
REMARK    5  A    between atoms: C_16  and  O_17
REMARK                            x       y       z     vdW  Elec       q    Type
REMARK                         _______ _______ _______ _____ _____    ______ ____
ROOT
ATOM      1  O   UNL     1       2.089   9.497  17.379  0.00  0.00    +0.000 OA
ATOM      2  C   UNL     1       1.813   8.864  18.385  0.00  0.00    +0.000 C 
ATOM      3  N   UNL     1       2.345   7.624  18.680  0.00  0.00    +0.000 N 
ATOM      4  H   UNL     1       2.183   7.261  19.603  0.00  0.00    +0.000 HD
ENDROOT
BRANCH   2   5
ATOM      5  C   UNL     1       0.847   9.313  19.364  0.00  0.00    +0.000 A 
ATOM      6  C   UNL     1      -0.082  10.331  19.261  0.00  0.00    +0.000 A 
ATOM      7  C   UNL     1      -0.399  10.719  20.579  0.00  0.00    +0.000 A 
ATOM      8  C   UNL     1      -0.893  11.898  21.145  0.00  0.00    +0.000 A 
ATOM      9  C   UNL     1      -1.123  11.898  22.514  0.00  0.00    +0.000 A 
ATOM     10  C   UNL     1      -1.075  10.732  23.266  0.00  0.00    +0.000 A 
ATOM     11  C   UNL     1      -0.530   9.564  22.722  0.00  0.00    +0.000 A 
ATOM     12  C   UNL     1      -0.078   9.643  21.400  0.00  0.00    +0.000 A 
ATOM     13  N   UNL     1       0.793   8.859  20.668  0.00  0.00    +0.000 N 
ATOM     14  H   UNL     1       1.443   8.195  21.069  0.00  0.00    +0.000 HD
BRANCH   9  15
ATOM     15  O   UNL     1      -1.325  13.084  23.159  0.00  0.00    +0.000 OA
ATOM     16  H   UNL     1      -2.257  13.319  22.987  0.00  0.00    +0.000 HD
ENDBRANCH   9  15
ENDBRANCH   2   5
BRANCH   3  17
ATOM     17  C   UNL     1       3.281   6.925  17.850  0.00  0.00    +0.000 C 
BRANCH  17  18
ATOM     18  C   UNL     1       3.160   5.441  18.110  0.00  0.00    +0.000 A 
ATOM     19  C   UNL     1       1.939   4.796  17.865  0.00  0.00    +0.000 A 
ATOM     20  C   UNL     1       1.805   3.424  18.074  0.00  0.00    +0.000 A 
ATOM     21  C   UNL     1       2.889   2.681  18.538  0.00  0.00    +0.000 A 
ATOM     22  C   UNL     1       4.102   3.317  18.782  0.00  0.00    +0.000 A 
ATOM     23  C   UNL     1       4.249   4.684  18.567  0.00  0.00    +0.000 A 
BRANCH  22  24
ATOM     24  O   UNL     1       5.185   2.623  19.236  0.00  0.00    +0.000 OA
ATOM     25  H   UNL     1       5.989   3.073  18.928  0.00  0.00    +0.000 HD
ENDBRANCH  22  24
ENDBRANCH  17  18
ENDBRANCH   3  17
TORSDOF 5
ENDMDL
