MODEL 1
REMARK VINA RESULT:      -8.3      0.000      0.000
REMARK  Name = 
REMARK  7 active torsions:
REMARK  status: ('A' for Active; 'I' for Inactive)
REMARK    1  A    between atoms: C_1  and  N_2
REMARK    2  A    between atoms: N_2  and  C_3
REMARK    3  A    between atoms: N_2  and  C_17
REMARK    4  A    between atoms: C_5  and  C_6
REMARK    5  A    between atoms: N_29  and  C_30
REMARK    6  A    between atoms: C_30  and  C_31
REMARK    7  A    between atoms: C_31  and  O_33
REMARK                            x       y       z     vdW  Elec       q    Type
REMARK                         _______ _______ _______ _____ _____    ______ ____
ROOT
ATOM      1  C   UNL     1       1.341   9.321  17.949  0.00  0.00    +0.000 C 
ATOM      2  C   UNL     1      -0.203   9.455  17.888  0.00  0.00    +0.000 C 
ATOM      3  C   UNL     1      -0.816  10.133  19.131  0.00  0.00    +0.000 C 
ATOM      4  C   UNL     1       0.024  11.302  19.554  0.00  0.00    +0.000 A 
ATOM      5  C   UNL     1       1.277  11.599  19.058  0.00  0.00    +0.000 A 
ATOM      6  C   UNL     1       1.757  12.745  19.741  0.00  0.00    +0.000 A 
ATOM      7  C   UNL     1       2.941  13.498  19.639  0.00  0.00    +0.000 A 
ATOM      8  C   UNL     1       3.155  14.534  20.539  0.00  0.00    +0.000 A 
ATOM      9  F   UNL     1       4.284  15.250  20.449  0.00  0.00    +0.000 F 
ATOM     10  C   UNL     1       2.231  14.838  21.526  0.00  0.00    +0.000 A 
ATOM     11  C   UNL     1       1.035  14.115  21.634  0.00  0.00    +0.000 A 
ATOM     12  C   UNL     1       0.810  13.070  20.719  0.00  0.00    +0.000 A 
ATOM     13  N   UNL     1      -0.251  12.180  20.575  0.00  0.00    +0.000 N 
ATOM     14  C   UNL     1       1.970  10.745  18.034  0.00  0.00    +0.000 C 
ENDROOT
BRANCH   1  16
ATOM     15  C   UNL     1       1.641   8.815  20.438  0.00  0.00    +0.000 C 
ATOM     16  N   UNL     1       1.740   8.378  19.045  0.00  0.00    +0.000 N 
BRANCH  16  17
ATOM     17  C   UNL     1       2.542   7.267  18.743  0.00  0.00    +0.000 A 
ATOM     18  N   UNL     1       3.483   7.435  17.787  0.00  0.00    +0.000 NA
ATOM     19  C   UNL     1       4.360   6.433  17.537  0.00  0.00    +0.000 A 
ATOM     20  N   UNL     1       4.365   5.265  18.209  0.00  0.00    +0.000 NA
ATOM     21  C   UNL     1       3.417   5.069  19.118  0.00  0.00    +0.000 A 
ATOM     22  C   UNL     1       3.442   3.850  19.786  0.00  0.00    +0.000 A 
ATOM     23  C   UNL     1       2.492   3.515  20.750  0.00  0.00    +0.000 A 
ATOM     24  C   UNL     1       1.462   4.397  21.016  0.00  0.00    +0.000 A 
ATOM     25  C   UNL     1       1.408   5.612  20.332  0.00  0.00    +0.000 A 
ATOM     26  C   UNL     1       2.424   6.014  19.414  0.00  0.00    +0.000 A 
BRANCH  19  27
ATOM     27  C   UNL     1       5.411   6.596  16.434  0.00  0.00    +0.000 C 
ATOM     28  F   UNL     1       6.442   7.434  16.754  0.00  0.00    +0.000 F 
ATOM     29  F   UNL     1       6.006   5.412  16.082  0.00  0.00    +0.000 F 
ATOM     30  F   UNL     1       4.888   7.095  15.272  0.00  0.00    +0.000 F 
ENDBRANCH  19  27
ENDBRANCH  16  17
ENDBRANCH   1  16
BRANCH  13  31
ATOM     31  C   UNL     1      -1.453  12.154  21.401  0.00  0.00    +0.000 C 
BRANCH  31  32
ATOM     32  C   UNL     1      -1.282  11.439  22.719  0.00  0.00    +0.000 C 
ATOM     33  O   UNL     1      -0.252  10.843  23.020  0.00  0.00    +0.000 OA
BRANCH  32  34
ATOM     34  O   UNL     1      -2.365  11.402  23.527  0.00  0.00    +0.000 OA
ATOM     35  H   UNL     1      -3.228  11.505  23.077  0.00  0.00    +0.000 HD
ENDBRANCH  32  34
ENDBRANCH  31  32
ENDBRANCH  13  31
TORSDOF 6
ENDMDL
MODEL 2
REMARK VINA RESULT:      -8.2      4.766      8.846
REMARK  Name = 
REMARK  7 active torsions:
REMARK  status: ('A' for Active; 'I' for Inactive)
REMARK    1  A    between atoms: C_1  and  N_2
REMARK    2  A    between atoms: N_2  and  C_3
REMARK    3  A    between atoms: N_2  and  C_17
REMARK    4  A    between atoms: C_5  and  C_6
REMARK    5  A    between atoms: N_29  and  C_30
REMARK    6  A    between atoms: C_30  and  C_31
REMARK    7  A    between atoms: C_31  and  O_33
REMARK                            x       y       z     vdW  Elec       q    Type
REMARK                         _______ _______ _______ _____ _____    ______ ____
ROOT
ATOM      1  C   UNL     1      -1.485  13.179  22.387  0.00  0.00    +0.000 C 
ATOM      2  C   UNL     1      -1.438  11.628  22.364  0.00  0.00    +0.000 C 
ATOM      3  C   UNL     1      -0.967  11.042  21.018  0.00  0.00    +0.000 C 
ATOM      4  C   UNL     1       0.184  11.837  20.477  0.00  0.00    +0.000 A 
ATOM      5  C   UNL     1       0.620  13.046  20.981  0.00  0.00    +0.000 A 
ATOM      6  C   UNL     1       1.694  13.496  20.172  0.00  0.00    +0.000 A 
ATOM      7  C   UNL     1       2.524  14.630  20.222  0.00  0.00    +0.000 A 
ATOM      8  C   UNL     1       3.445  14.832  19.201  0.00  0.00    +0.000 A 
ATOM      9  F   UNL     1       4.234  15.913  19.242  0.00  0.00    +0.000 F 
ATOM     10  C   UNL     1       3.559  13.942  18.144  0.00  0.00    +0.000 A 
ATOM     11  C   UNL     1       2.757  12.795  18.084  0.00  0.00    +0.000 A 
ATOM     12  C   UNL     1       1.829  12.582  19.120  0.00  0.00    +0.000 A 
ATOM     13  N   UNL     1       0.903  11.565  19.337  0.00  0.00    +0.000 N 
ATOM     14  C   UNL     1      -0.049  13.732  22.139  0.00  0.00    +0.000 C 
ENDROOT
BRANCH   1  16
ATOM     15  C   UNL     1      -2.382  15.006  20.838  0.00  0.00    +0.000 C 
ATOM     16  N   UNL     1      -2.537  13.683  21.445  0.00  0.00    +0.000 N 
BRANCH  16  17
ATOM     17  C   UNL     1      -3.807  13.086  21.444  0.00  0.00    +0.000 A 
ATOM     18  N   UNL     1      -4.522  13.168  22.588  0.00  0.00    +0.000 NA
ATOM     19  C   UNL     1      -5.797  12.712  22.607  0.00  0.00    +0.000 A 
ATOM     20  N   UNL     1      -6.415  12.191  21.530  0.00  0.00    +0.000 NA
ATOM     21  C   UNL     1      -5.710  12.061  20.413  0.00  0.00    +0.000 A 
ATOM     22  C   UNL     1      -6.373  11.510  19.321  0.00  0.00    +0.000 A 
ATOM     23  C   UNL     1      -5.739  11.305  18.097  0.00  0.00    +0.000 A 
ATOM     24  C   UNL     1      -4.396  11.610  17.973  0.00  0.00    +0.000 A 
ATOM     25  C   UNL     1      -3.712  12.138  19.068  0.00  0.00    +0.000 A 
ATOM     26  C   UNL     1      -4.366  12.445  20.299  0.00  0.00    +0.000 A 
BRANCH  19  27
ATOM     27  C   UNL     1      -6.609  12.768  23.906  0.00  0.00    +0.000 C 
ATOM     28  F   UNL     1      -7.806  12.109  23.854  0.00  0.00    +0.000 F 
ATOM     29  F   UNL     1      -5.946  12.224  24.975  0.00  0.00    +0.000 F 
ATOM     30  F   UNL     1      -6.917  14.046  24.285  0.00  0.00    +0.000 F 
ENDBRANCH  19  27
ENDBRANCH  16  17
ENDBRANCH   1  16
BRANCH  13  31
ATOM     31  C   UNL     1       0.695  10.409  18.473  0.00  0.00    +0.000 C 
BRANCH  31  32
ATOM     32  C   UNL     1       1.552   9.216  18.820  0.00  0.00    +0.000 C 
ATOM     33  O   UNL     1       1.478   8.642  19.903  0.00  0.00    +0.000 OA
BRANCH  32  34
ATOM     34  O   UNL     1       2.486   8.862  17.909  0.00  0.00    +0.000 OA
ATOM     35  H   UNL     1       2.911   9.604  17.434  0.00  0.00    +0.000 HD
ENDBRANCH  32  34
ENDBRANCH  31  32
ENDBRANCH  13  31
TORSDOF 6
ENDMDL
MODEL 3
REMARK VINA RESULT:      -8.0      3.315      4.354
REMARK  Name = 
REMARK  7 active torsions:
REMARK  status: ('A' for Active; 'I' for Inactive)
REMARK    1  A    between atoms: C_1  and  N_2
REMARK    2  A    between atoms: N_2  and  C_3
REMARK    3  A    between atoms: N_2  and  C_17
REMARK    4  A    between atoms: C_5  and  C_6
REMARK    5  A    between atoms: N_29  and  C_30
REMARK    6  A    between atoms: C_30  and  C_31
REMARK    7  A    between atoms: C_31  and  O_33
REMARK                            x       y       z     vdW  Elec       q    Type
REMARK                         _______ _______ _______ _____ _____    ______ ____
ROOT
ATOM      1  C   UNL     1       2.262   8.967  18.777  0.00  0.00    +0.000 C 
ATOM      2  C   UNL     1       1.535   8.952  17.407  0.00  0.00    +0.000 C 
ATOM      3  C   UNL     1       0.011   9.165  17.512  0.00  0.00    +0.000 C 
ATOM      4  C   UNL     1      -0.298  10.236  18.515  0.00  0.00    +0.000 A 
ATOM      5  C   UNL     1       0.616  10.794  19.386  0.00  0.00    +0.000 A 
ATOM      6  C   UNL     1      -0.072  11.731  20.200  0.00  0.00    +0.000 A 
ATOM      7  C   UNL     1       0.344  12.598  21.226  0.00  0.00    +0.000 A 
ATOM      8  C   UNL     1      -0.614  13.339  21.906  0.00  0.00    +0.000 A 
ATOM      9  F   UNL     1      -0.223  14.162  22.888  0.00  0.00    +0.000 F 
ATOM     10  C   UNL     1      -1.961  13.239  21.594  0.00  0.00    +0.000 A 
ATOM     11  C   UNL     1      -2.396  12.397  20.562  0.00  0.00    +0.000 A 
ATOM     12  C   UNL     1      -1.428  11.652  19.864  0.00  0.00    +0.000 A 
ATOM     13  N   UNL     1      -1.541  10.739  18.818  0.00  0.00    +0.000 N 
ATOM     14  C   UNL     1       2.053  10.359  19.447  0.00  0.00    +0.000 C 
ENDROOT
BRANCH   1  16
ATOM     15  C   UNL     1       1.330   8.008  20.958  0.00  0.00    +0.000 C 
ATOM     16  N   UNL     1       1.841   7.788  19.604  0.00  0.00    +0.000 N 
BRANCH  16  17
ATOM     17  C   UNL     1       2.279   6.503  19.250  0.00  0.00    +0.000 A 
ATOM     18  N   UNL     1       1.646   5.460  19.832  0.00  0.00    +0.000 NA
ATOM     19  C   UNL     1       1.949   4.199  19.440  0.00  0.00    +0.000 A 
ATOM     20  N   UNL     1       2.844   3.916  18.474  0.00  0.00    +0.000 NA
ATOM     21  C   UNL     1       3.506   4.928  17.927  0.00  0.00    +0.000 A 
ATOM     22  C   UNL     1       4.431   4.603  16.941  0.00  0.00    +0.000 A 
ATOM     23  C   UNL     1       5.203   5.572  16.302  0.00  0.00    +0.000 A 
ATOM     24  C   UNL     1       5.087   6.893  16.694  0.00  0.00    +0.000 A 
ATOM     25  C   UNL     1       4.184   7.230  17.702  0.00  0.00    +0.000 A 
ATOM     26  C   UNL     1       3.316   6.267  18.299  0.00  0.00    +0.000 A 
BRANCH  19  27
ATOM     27  C   UNL     1       1.264   3.005  20.114  0.00  0.00    +0.000 C 
ATOM     28  F   UNL     1       1.054   3.157  21.456  0.00  0.00    +0.000 F 
ATOM     29  F   UNL     1       0.030   2.727  19.586  0.00  0.00    +0.000 F 
ATOM     30  F   UNL     1       1.978   1.844  19.990  0.00  0.00    +0.000 F 
ENDBRANCH  19  27
ENDBRANCH  16  17
ENDBRANCH   1  16
BRANCH  13  31
ATOM     31  C   UNL     1      -2.785  10.345  18.167  0.00  0.00    +0.000 C 
BRANCH  31  32
ATOM     32  C   UNL     1      -3.237  11.287  17.078  0.00  0.00    +0.000 C 
ATOM     33  O   UNL     1      -4.387  11.709  17.003  0.00  0.00    +0.000 OA
BRANCH  32  34
ATOM     34  O   UNL     1      -2.329  11.573  16.118  0.00  0.00    +0.000 OA
ATOM     35  H   UNL     1      -1.767  12.355  16.291  0.00  0.00    +0.000 HD
ENDBRANCH  32  34
ENDBRANCH  31  32
ENDBRANCH  13  31
TORSDOF 6
ENDMDL
MODEL 4
REMARK VINA RESULT:      -7.9      4.879      8.093
REMARK  Name = 
REMARK  7 active torsions:
REMARK  status: ('A' for Active; 'I' for Inactive)
REMARK    1  A    between atoms: C_1  and  N_2
REMARK    2  A    between atoms: N_2  and  C_3
REMARK    3  A    between atoms: N_2  and  C_17
REMARK    4  A    between atoms: C_5  and  C_6
REMARK    5  A    between atoms: N_29  and  C_30
REMARK    6  A    between atoms: C_30  and  C_31
REMARK    7  A    between atoms: C_31  and  O_33
REMARK                            x       y       z     vdW  Elec       q    Type
REMARK                         _______ _______ _______ _____ _____    ______ ____
ROOT
ATOM      1  C   UNL     1       0.946  11.658  20.477  0.00  0.00    +0.000 C 
ATOM      2  C   UNL     1       0.046  11.848  21.726  0.00  0.00    +0.000 C 
ATOM      3  C   UNL     1      -1.312  12.510  21.417  0.00  0.00    +0.000 C 
ATOM      4  C   UNL     1      -1.890  11.948  20.153  0.00  0.00    +0.000 A 
ATOM      5  C   UNL     1      -1.218  11.129  19.268  0.00  0.00    +0.000 A 
ATOM      6  C   UNL     1      -2.087  10.852  18.182  0.00  0.00    +0.000 A 
ATOM      7  C   UNL     1      -1.952  10.071  17.021  0.00  0.00    +0.000 A 
ATOM      8  C   UNL     1      -2.977  10.082  16.083  0.00  0.00    +0.000 A 
ATOM      9  F   UNL     1      -2.851   9.343  14.973  0.00  0.00    +0.000 F 
ATOM     10  C   UNL     1      -4.121  10.842  16.271  0.00  0.00    +0.000 A 
ATOM     11  C   UNL     1      -4.286  11.612  17.430  0.00  0.00    +0.000 A 
ATOM     12  C   UNL     1      -3.254  11.597  18.387  0.00  0.00    +0.000 A 
ATOM     13  N   UNL     1      -3.116  12.249  19.609  0.00  0.00    +0.000 N 
ATOM     14  C   UNL     1       0.216  10.724  19.465  0.00  0.00    +0.000 C 
ENDROOT
BRANCH   1  16
ATOM     15  C   UNL     1       1.561  13.144  18.488  0.00  0.00    +0.000 C 
ATOM     16  N   UNL     1       1.368  12.989  19.930  0.00  0.00    +0.000 N 
BRANCH  16  17
ATOM     17  C   UNL     1       1.932  13.943  20.791  0.00  0.00    +0.000 A 
ATOM     18  N   UNL     1       3.112  13.622  21.369  0.00  0.00    +0.000 NA
ATOM     19  C   UNL     1       3.757  14.550  22.116  0.00  0.00    +0.000 A 
ATOM     20  N   UNL     1       3.298  15.801  22.306  0.00  0.00    +0.000 NA
ATOM     21  C   UNL     1       2.119  16.115  21.783  0.00  0.00    +0.000 A 
ATOM     22  C   UNL     1       1.667  17.411  22.005  0.00  0.00    +0.000 A 
ATOM     23  C   UNL     1       0.437  17.859  21.526  0.00  0.00    +0.000 A 
ATOM     24  C   UNL     1      -0.385  16.976  20.850  0.00  0.00    +0.000 A 
ATOM     25  C   UNL     1       0.044  15.664  20.645  0.00  0.00    +0.000 A 
ATOM     26  C   UNL     1       1.338  15.215  21.043  0.00  0.00    +0.000 A 
BRANCH  19  27
ATOM     27  C   UNL     1       5.079  14.190  22.805  0.00  0.00    +0.000 C 
ATOM     28  F   UNL     1       6.157  14.908  22.371  0.00  0.00    +0.000 F 
ATOM     29  F   UNL     1       5.044  14.378  24.162  0.00  0.00    +0.000 F 
ATOM     30  F   UNL     1       5.427  12.878  22.632  0.00  0.00    +0.000 F 
ENDBRANCH  19  27
ENDBRANCH  16  17
ENDBRANCH   1  16
BRANCH  13  31
ATOM     31  C   UNL     1      -4.101  13.145  20.207  0.00  0.00    +0.000 C 
BRANCH  31  32
ATOM     32  C   UNL     1      -5.037  12.471  21.181  0.00  0.00    +0.000 C 
ATOM     33  O   UNL     1      -4.796  12.388  22.381  0.00  0.00    +0.000 OA
BRANCH  32  34
ATOM     34  O   UNL     1      -6.125  11.871  20.648  0.00  0.00    +0.000 OA
ATOM     35  H   UNL     1      -5.992  11.465  19.768  0.00  0.00    +0.000 HD
ENDBRANCH  32  34
ENDBRANCH  31  32
ENDBRANCH  13  31
TORSDOF 6
ENDMDL
MODEL 5
REMARK VINA RESULT:      -7.9      4.034      8.544
REMARK  Name = 
REMARK  7 active torsions:
REMARK  status: ('A' for Active; 'I' for Inactive)
REMARK    1  A    between atoms: C_1  and  N_2
REMARK    2  A    between atoms: N_2  and  C_3
REMARK    3  A    between atoms: N_2  and  C_17
REMARK    4  A    between atoms: C_5  and  C_6
REMARK    5  A    between atoms: N_29  and  C_30
REMARK    6  A    between atoms: C_30  and  C_31
REMARK    7  A    between atoms: C_31  and  O_33
REMARK                            x       y       z     vdW  Elec       q    Type
REMARK                         _______ _______ _______ _____ _____    ______ ____
ROOT
ATOM      1  C   UNL     1       1.736   8.305  18.029  0.00  0.00    +0.000 C 
ATOM      2  C   UNL     1       3.119   8.556  17.373  0.00  0.00    +0.000 C 
ATOM      3  C   UNL     1       4.232   7.626  17.897  0.00  0.00    +0.000 C 
ATOM      4  C   UNL     1       3.714   6.226  18.046  0.00  0.00    +0.000 A 
ATOM      5  C   UNL     1       2.387   5.857  17.951  0.00  0.00    +0.000 A 
ATOM      6  C   UNL     1       2.302   4.463  18.197  0.00  0.00    +0.000 A 
ATOM      7  C   UNL     1       1.229   3.554  18.209  0.00  0.00    +0.000 A 
ATOM      8  C   UNL     1       1.469   2.239  18.588  0.00  0.00    +0.000 A 
ATOM      9  F   UNL     1       0.450   1.371  18.606  0.00  0.00    +0.000 F 
ATOM     10  C   UNL     1       2.737   1.811  18.951  0.00  0.00    +0.000 A 
ATOM     11  C   UNL     1       3.825   2.693  18.926  0.00  0.00    +0.000 A 
ATOM     12  C   UNL     1       3.588   4.024  18.534  0.00  0.00    +0.000 A 
ATOM     13  N   UNL     1       4.439   5.120  18.420  0.00  0.00    +0.000 N 
ATOM     14  C   UNL     1       1.283   6.848  17.712  0.00  0.00    +0.000 C 
ENDROOT
BRANCH   1  16
ATOM     15  C   UNL     1       1.889   7.594  20.481  0.00  0.00    +0.000 C 
ATOM     16  N   UNL     1       1.776   8.660  19.486  0.00  0.00    +0.000 N 
BRANCH  16  17
ATOM     17  C   UNL     1       1.334   9.926  19.901  0.00  0.00    +0.000 A 
ATOM     18  N   UNL     1       1.670  10.977  19.119  0.00  0.00    +0.000 NA
ATOM     19  C   UNL     1       1.173  12.203  19.409  0.00  0.00    +0.000 A 
ATOM     20  N   UNL     1       0.333  12.441  20.434  0.00  0.00    +0.000 NA
ATOM     21  C   UNL     1       0.032  11.427  21.237  0.00  0.00    +0.000 A 
ATOM     22  C   UNL     1      -0.828  11.707  22.293  0.00  0.00    +0.000 A 
ATOM     23  C   UNL     1      -1.206  10.734  23.217  0.00  0.00    +0.000 A 
ATOM     24  C   UNL     1      -0.673   9.463  23.114  0.00  0.00    +0.000 A 
ATOM     25  C   UNL     1       0.214   9.176  22.076  0.00  0.00    +0.000 A 
ATOM     26  C   UNL     1       0.538  10.130  21.066  0.00  0.00    +0.000 A 
BRANCH  19  27
ATOM     27  C   UNL     1       1.571  13.410  18.552  0.00  0.00    +0.000 C 
ATOM     28  F   UNL     1       2.224  13.091  17.394  0.00  0.00    +0.000 F 
ATOM     29  F   UNL     1       0.497  14.167  18.162  0.00  0.00    +0.000 F 
ATOM     30  F   UNL     1       2.403  14.276  19.208  0.00  0.00    +0.000 F 
ENDBRANCH  19  27
ENDBRANCH  16  17
ENDBRANCH   1  16
BRANCH  13  31
ATOM     31  C   UNL     1       5.873   5.112  18.691  0.00  0.00    +0.000 C 
BRANCH  31  32
ATOM     32  C   UNL     1       6.711   4.560  17.564  0.00  0.00    +0.000 C 
ATOM     33  O   UNL     1       6.285   4.442  16.419  0.00  0.00    +0.000 OA
BRANCH  32  34
ATOM     34  O   UNL     1       7.940   4.105  17.898  0.00  0.00    +0.000 OA
ATOM     35  H   UNL     1       8.046   3.132  17.882  0.00  0.00    +0.000 HD
ENDBRANCH  32  34
ENDBRANCH  31  32
ENDBRANCH  13  31
TORSDOF 6
ENDMDL
MODEL 6
REMARK VINA RESULT:      -7.9      2.521      3.192
REMARK  Name = 
REMARK  7 active torsions:
REMARK  status: ('A' for Active; 'I' for Inactive)
REMARK    1  A    between atoms: C_1  and  N_2
REMARK    2  A    between atoms: N_2  and  C_3
REMARK    3  A    between atoms: N_2  and  C_17
REMARK    4  A    between atoms: C_5  and  C_6
REMARK    5  A    between atoms: N_29  and  C_30
REMARK    6  A    between atoms: C_30  and  C_31
REMARK    7  A    between atoms: C_31  and  O_33
REMARK                            x       y       z     vdW  Elec       q    Type
REMARK                         _______ _______ _______ _____ _____    ______ ____
ROOT
ATOM      1  C   UNL     1       2.335   9.268  18.907  0.00  0.00    +0.000 C 
ATOM      2  C   UNL     1       1.715   9.401  17.492  0.00  0.00    +0.000 C 
ATOM      3  C   UNL     1       0.174   9.450  17.493  0.00  0.00    +0.000 C 
ATOM      4  C   UNL     1      -0.320  10.315  18.615  0.00  0.00    +0.000 A 
ATOM      5  C   UNL     1       0.464  10.813  19.636  0.00  0.00    +0.000 A 
ATOM      6  C   UNL     1      -0.377  11.540  20.517  0.00  0.00    +0.000 A 
ATOM      7  C   UNL     1      -0.131  12.270  21.694  0.00  0.00    +0.000 A 
ATOM      8  C   UNL     1      -1.210  12.800  22.391  0.00  0.00    +0.000 A 
ATOM      9  F   UNL     1      -0.981  13.491  23.515  0.00  0.00    +0.000 F 
ATOM     10  C   UNL     1      -2.512  12.624  21.950  0.00  0.00    +0.000 A 
ATOM     11  C   UNL     1      -2.779  11.919  20.770  0.00  0.00    +0.000 A 
ATOM     12  C   UNL     1      -1.689  11.388  20.056  0.00  0.00    +0.000 A 
ATOM     13  N   UNL     1      -1.628  10.645  18.879  0.00  0.00    +0.000 N 
ATOM     14  C   UNL     1       1.931  10.510  19.757  0.00  0.00    +0.000 C 
ENDROOT
BRANCH   1  16
ATOM     15  C   UNL     1       1.394   7.891  20.847  0.00  0.00    +0.000 C 
ATOM     16  N   UNL     1       1.984   7.939  19.508  0.00  0.00    +0.000 N 
BRANCH  16  17
ATOM     17  C   UNL     1       2.550   6.769  18.979  0.00  0.00    +0.000 A 
ATOM     18  N   UNL     1       3.429   6.922  17.963  0.00  0.00    +0.000 NA
ATOM     19  C   UNL     1       4.092   5.838  17.493  0.00  0.00    +0.000 A 
ATOM     20  N   UNL     1       3.943   4.599  17.998  0.00  0.00    +0.000 NA
ATOM     21  C   UNL     1       3.049   4.427  18.964  0.00  0.00    +0.000 A 
ATOM     22  C   UNL     1       2.910   3.134  19.458  0.00  0.00    +0.000 A 
ATOM     23  C   UNL     1       1.994   2.819  20.459  0.00  0.00    +0.000 A 
ATOM     24  C   UNL     1       1.160   3.808  20.946  0.00  0.00    +0.000 A 
ATOM     25  C   UNL     1       1.269   5.104  20.440  0.00  0.00    +0.000 A 
ATOM     26  C   UNL     1       2.265   5.467  19.485  0.00  0.00    +0.000 A 
BRANCH  19  27
ATOM     27  C   UNL     1       5.066   5.990  16.319  0.00  0.00    +0.000 C 
ATOM     28  F   UNL     1       4.796   7.045  15.492  0.00  0.00    +0.000 F 
ATOM     29  F   UNL     1       6.364   6.170  16.720  0.00  0.00    +0.000 F 
ATOM     30  F   UNL     1       5.091   4.891  15.504  0.00  0.00    +0.000 F 
ENDBRANCH  19  27
ENDBRANCH  16  17
ENDBRANCH   1  16
BRANCH  13  31
ATOM     31  C   UNL     1      -2.773  10.244  18.070  0.00  0.00    +0.000 C 
BRANCH  31  32
ATOM     32  C   UNL     1      -3.218  11.283  17.070  0.00  0.00    +0.000 C 
ATOM     33  O   UNL     1      -4.341  11.777  17.085  0.00  0.00    +0.000 OA
BRANCH  32  34
ATOM     34  O   UNL     1      -2.341  11.581  16.084  0.00  0.00    +0.000 OA
ATOM     35  H   UNL     1      -1.809  12.389  16.226  0.00  0.00    +0.000 HD
ENDBRANCH  32  34
ENDBRANCH  31  32
ENDBRANCH  13  31
TORSDOF 6
ENDMDL
MODEL 7
REMARK VINA RESULT:      -7.9      6.367      8.222
REMARK  Name = 
REMARK  7 active torsions:
REMARK  status: ('A' for Active; 'I' for Inactive)
REMARK    1  A    between atoms: C_1  and  N_2
REMARK    2  A    between atoms: N_2  and  C_3
REMARK    3  A    between atoms: N_2  and  C_17
REMARK    4  A    between atoms: C_5  and  C_6
REMARK    5  A    between atoms: N_29  and  C_30
REMARK    6  A    between atoms: C_30  and  C_31
REMARK    7  A    between atoms: C_31  and  O_33
REMARK                            x       y       z     vdW  Elec       q    Type
REMARK                         _______ _______ _______ _____ _____    ______ ____
ROOT
ATOM      1  C   UNL     1       0.059  11.467  20.167  0.00  0.00    +0.000 C 
ATOM      2  C   UNL     1       1.335  12.236  20.598  0.00  0.00    +0.000 C 
ATOM      3  C   UNL     1       1.046  13.615  21.225  0.00  0.00    +0.000 C 
ATOM      4  C   UNL     1      -0.129  13.530  22.153  0.00  0.00    +0.000 A 
ATOM      5  C   UNL     1      -0.974  12.445  22.265  0.00  0.00    +0.000 A 
ATOM      6  C   UNL     1      -1.982  12.771  23.209  0.00  0.00    +0.000 A 
ATOM      7  C   UNL     1      -3.075  12.056  23.730  0.00  0.00    +0.000 A 
ATOM      8  C   UNL     1      -3.951  12.707  24.591  0.00  0.00    +0.000 A 
ATOM      9  F   UNL     1      -4.997  12.032  25.086  0.00  0.00    +0.000 F 
ATOM     10  C   UNL     1      -3.766  14.035  24.943  0.00  0.00    +0.000 A 
ATOM     11  C   UNL     1      -2.672  14.760  24.453  0.00  0.00    +0.000 A 
ATOM     12  C   UNL     1      -1.777  14.103  23.587  0.00  0.00    +0.000 A 
ATOM     13  N   UNL     1      -0.627  14.543  22.938  0.00  0.00    +0.000 N 
ATOM     14  C   UNL     1      -0.825  11.207  21.425  0.00  0.00    +0.000 C 
ENDROOT
BRANCH   1  16
ATOM     15  C   UNL     1       0.050  13.303  18.386  0.00  0.00    +0.000 C 
ATOM     16  N   UNL     1      -0.626  12.182  19.041  0.00  0.00    +0.000 N 
BRANCH  16  17
ATOM     17  C   UNL     1      -2.012  12.041  18.873  0.00  0.00    +0.000 A 
ATOM     18  N   UNL     1      -2.802  12.606  19.814  0.00  0.00    +0.000 NA
ATOM     19  C   UNL     1      -4.145  12.600  19.641  0.00  0.00    +0.000 A 
ATOM     20  N   UNL     1      -4.753  12.075  18.560  0.00  0.00    +0.000 NA
ATOM     21  C   UNL     1      -3.993  11.476  17.652  0.00  0.00    +0.000 A 
ATOM     22  C   UNL     1      -4.651  10.933  16.553  0.00  0.00    +0.000 A 
ATOM     23  C   UNL     1      -3.969  10.263  15.539  0.00  0.00    +0.000 A 
ATOM     24  C   UNL     1      -2.602  10.085  15.649  0.00  0.00    +0.000 A 
ATOM     25  C   UNL     1      -1.933  10.598  16.760  0.00  0.00    +0.000 A 
ATOM     26  C   UNL     1      -2.598  11.371  17.759  0.00  0.00    +0.000 A 
BRANCH  19  27
ATOM     27  C   UNL     1      -5.055  13.207  20.715  0.00  0.00    +0.000 C 
ATOM     28  F   UNL     1      -4.459  14.164  21.487  0.00  0.00    +0.000 F 
ATOM     29  F   UNL     1      -6.170  13.810  20.194  0.00  0.00    +0.000 F 
ATOM     30  F   UNL     1      -5.529  12.276  21.598  0.00  0.00    +0.000 F 
ENDBRANCH  19  27
ENDBRANCH  16  17
ENDBRANCH   1  16
BRANCH  13  31
ATOM     31  C   UNL     1      -0.055  15.881  23.041  0.00  0.00    +0.000 C 
BRANCH  31  32
ATOM     32  C   UNL     1      -0.571  16.854  22.009  0.00  0.00    +0.000 C 
ATOM     33  O   UNL     1      -1.600  16.656  21.370  0.00  0.00    +0.000 OA
BRANCH  32  34
ATOM     34  O   UNL     1       0.214  17.923  21.748  0.00  0.00    +0.000 OA
ATOM     35  H   UNL     1       0.733  18.258  22.507  0.00  0.00    +0.000 HD
ENDBRANCH  32  34
ENDBRANCH  31  32
ENDBRANCH  13  31
TORSDOF 6
ENDMDL
MODEL 8
REMARK VINA RESULT:      -7.9      0.987      1.339
REMARK  Name = 
REMARK  7 active torsions:
REMARK  status: ('A' for Active; 'I' for Inactive)
REMARK    1  A    between atoms: C_1  and  N_2
REMARK    2  A    between atoms: N_2  and  C_3
REMARK    3  A    between atoms: N_2  and  C_17
REMARK    4  A    between atoms: C_5  and  C_6
REMARK    5  A    between atoms: N_29  and  C_30
REMARK    6  A    between atoms: C_30  and  C_31
REMARK    7  A    between atoms: C_31  and  O_33
REMARK                            x       y       z     vdW  Elec       q    Type
REMARK                         _______ _______ _______ _____ _____    ______ ____
ROOT
ATOM      1  C   UNL     1       1.389   9.305  17.910  0.00  0.00    +0.000 C 
ATOM      2  C   UNL     1      -0.152   9.394  17.758  0.00  0.00    +0.000 C 
ATOM      3  C   UNL     1      -0.861  10.019  18.976  0.00  0.00    +0.000 C 
ATOM      4  C   UNL     1      -0.087  11.200  19.481  0.00  0.00    +0.000 A 
ATOM      5  C   UNL     1       1.184  11.549  19.071  0.00  0.00    +0.000 A 
ATOM      6  C   UNL     1       1.585  12.690  19.811  0.00  0.00    +0.000 A 
ATOM      7  C   UNL     1       2.748  13.481  19.802  0.00  0.00    +0.000 A 
ATOM      8  C   UNL     1       2.873  14.499  20.739  0.00  0.00    +0.000 A 
ATOM      9  F   UNL     1       3.981  15.252  20.737  0.00  0.00    +0.000 F 
ATOM     10  C   UNL     1       1.880  14.747  21.675  0.00  0.00    +0.000 A 
ATOM     11  C   UNL     1       0.704  13.986  21.689  0.00  0.00    +0.000 A 
ATOM     12  C   UNL     1       0.569  12.959  20.736  0.00  0.00    +0.000 A 
ATOM     13  N   UNL     1      -0.452  12.042  20.505  0.00  0.00    +0.000 N 
ATOM     14  C   UNL     1       1.965  10.745  18.070  0.00  0.00    +0.000 C 
ENDROOT
BRANCH   1  16
ATOM     15  C   UNL     1       1.616   8.765  20.400  0.00  0.00    +0.000 C 
ATOM     16  N   UNL     1       1.751   8.345  19.005  0.00  0.00    +0.000 N 
BRANCH  16  17
ATOM     17  C   UNL     1       2.553   7.232  18.711  0.00  0.00    +0.000 A 
ATOM     18  N   UNL     1       3.503   7.397  17.763  0.00  0.00    +0.000 NA
ATOM     19  C   UNL     1       4.379   6.393  17.522  0.00  0.00    +0.000 A 
ATOM     20  N   UNL     1       4.375   5.226  18.195  0.00  0.00    +0.000 NA
ATOM     21  C   UNL     1       3.419   5.032  19.095  0.00  0.00    +0.000 A 
ATOM     22  C   UNL     1       3.435   3.814  19.765  0.00  0.00    +0.000 A 
ATOM     23  C   UNL     1       2.476   3.482  20.720  0.00  0.00    +0.000 A 
ATOM     24  C   UNL     1       1.445   4.367  20.976  0.00  0.00    +0.000 A 
ATOM     25  C   UNL     1       1.400   5.581  20.291  0.00  0.00    +0.000 A 
ATOM     26  C   UNL     1       2.425   5.980  19.382  0.00  0.00    +0.000 A 
BRANCH  19  27
ATOM     27  C   UNL     1       5.441   6.552  16.428  0.00  0.00    +0.000 C 
ATOM     28  F   UNL     1       6.078   5.393  16.084  0.00  0.00    +0.000 F 
ATOM     29  F   UNL     1       4.931   7.044  15.255  0.00  0.00    +0.000 F 
ATOM     30  F   UNL     1       6.438   7.421  16.779  0.00  0.00    +0.000 F 
ENDBRANCH  19  27
ENDBRANCH  16  17
ENDBRANCH   1  16
BRANCH  13  31
ATOM     31  C   UNL     1      -1.701  11.956  21.253  0.00  0.00    +0.000 C 
BRANCH  31  32
ATOM     32  C   UNL     1      -2.739  12.971  20.842  0.00  0.00    +0.000 C 
ATOM     33  O   UNL     1      -3.208  13.793  21.624  0.00  0.00    +0.000 OA
BRANCH  32  34
ATOM     34  O   UNL     1      -3.206  12.872  19.577  0.00  0.00    +0.000 OA
ATOM     35  H   UNL     1      -4.009  13.396  19.383  0.00  0.00    +0.000 HD
ENDBRANCH  32  34
ENDBRANCH  31  32
ENDBRANCH  13  31
TORSDOF 6
ENDMDL
MODEL 9
REMARK VINA RESULT:      -7.8      2.257      3.190
REMARK  Name = 
REMARK  7 active torsions:
REMARK  status: ('A' for Active; 'I' for Inactive)
REMARK    1  A    between atoms: C_1  and  N_2
REMARK    2  A    between atoms: N_2  and  C_3
REMARK    3  A    between atoms: N_2  and  C_17
REMARK    4  A    between atoms: C_5  and  C_6
REMARK    5  A    between atoms: N_29  and  C_30
REMARK    6  A    between atoms: C_30  and  C_31
REMARK    7  A    between atoms: C_31  and  O_33
REMARK                            x       y       z     vdW  Elec       q    Type
REMARK                         _______ _______ _______ _____ _____    ______ ____
ROOT
ATOM      1  C   UNL     1       1.467   9.124  18.224  0.00  0.00    +0.000 C 
ATOM      2  C   UNL     1      -0.070   9.212  18.034  0.00  0.00    +0.000 C 
ATOM      3  C   UNL     1      -0.792   9.970  19.166  0.00  0.00    +0.000 C 
ATOM      4  C   UNL     1      -0.012  11.191  19.556  0.00  0.00    +0.000 A 
ATOM      5  C   UNL     1       1.270  11.481  19.135  0.00  0.00    +0.000 A 
ATOM      6  C   UNL     1       1.671  12.691  19.758  0.00  0.00    +0.000 A 
ATOM      7  C   UNL     1       2.843  13.464  19.685  0.00  0.00    +0.000 A 
ATOM      8  C   UNL     1       2.965  14.574  20.512  0.00  0.00    +0.000 A 
ATOM      9  F   UNL     1       4.082  15.311  20.451  0.00  0.00    +0.000 F 
ATOM     10  C   UNL     1       1.959  14.931  21.397  0.00  0.00    +0.000 A 
ATOM     11  C   UNL     1       0.774  14.188  21.470  0.00  0.00    +0.000 A 
ATOM     12  C   UNL     1       0.643  13.067  20.630  0.00  0.00    +0.000 A 
ATOM     13  N   UNL     1      -0.385  12.140  20.477  0.00  0.00    +0.000 N 
ATOM     14  C   UNL     1       2.058  10.567  18.240  0.00  0.00    +0.000 C 
ENDROOT
BRANCH   1  16
ATOM     15  C   UNL     1       1.915   8.918  20.734  0.00  0.00    +0.000 C 
ATOM     16  N   UNL     1       1.798   8.283  19.421  0.00  0.00    +0.000 N 
BRANCH  16  17
ATOM     17  C   UNL     1       2.356   7.008  19.237  0.00  0.00    +0.000 A 
ATOM     18  N   UNL     1       1.938   6.033  20.074  0.00  0.00    +0.000 NA
ATOM     19  C   UNL     1       2.355   4.760  19.868  0.00  0.00    +0.000 A 
ATOM     20  N   UNL     1       3.158   4.397  18.850  0.00  0.00    +0.000 NA
ATOM     21  C   UNL     1       3.613   5.352  18.048  0.00  0.00    +0.000 A 
ATOM     22  C   UNL     1       4.448   4.948  17.013  0.00  0.00    +0.000 A 
ATOM     23  C   UNL     1       5.006   5.855  16.114  0.00  0.00    +0.000 A 
ATOM     24  C   UNL     1       4.764   7.206  16.282  0.00  0.00    +0.000 A 
ATOM     25  C   UNL     1       3.951   7.629  17.334  0.00  0.00    +0.000 A 
ATOM     26  C   UNL     1       3.294   6.709  18.205  0.00  0.00    +0.000 A 
BRANCH  19  27
ATOM     27  C   UNL     1       1.917   3.649  20.829  0.00  0.00    +0.000 C 
ATOM     28  F   UNL     1       2.484   2.430  20.580  0.00  0.00    +0.000 F 
ATOM     29  F   UNL     1       2.216   3.924  22.138  0.00  0.00    +0.000 F 
ATOM     30  F   UNL     1       0.567   3.429  20.806  0.00  0.00    +0.000 F 
ENDBRANCH  19  27
ENDBRANCH  16  17
ENDBRANCH   1  16
BRANCH  13  31
ATOM     31  C   UNL     1      -1.648  12.148  21.208  0.00  0.00    +0.000 C 
BRANCH  31  32
ATOM     32  C   UNL     1      -1.537  11.681  22.639  0.00  0.00    +0.000 C 
ATOM     33  O   UNL     1      -0.537  11.118  23.075  0.00  0.00    +0.000 OA
BRANCH  32  34
ATOM     34  O   UNL     1      -2.642  11.826  23.404  0.00  0.00    +0.000 OA
ATOM     35  H   UNL     1      -3.446  12.117  22.930  0.00  0.00    +0.000 HD
ENDBRANCH  32  34
ENDBRANCH  31  32
ENDBRANCH  13  31
TORSDOF 6
ENDMDL
