MODEL 1
REMARK VINA RESULT:      -7.7      0.000      0.000
REMARK  Name = 
REMARK  14 active torsions:
REMARK  status: ('A' for Active; 'I' for Inactive)
REMARK    1  A    between atoms: C_1  and  C_2
REMARK    2  A    between atoms: C_2  and  C_3
REMARK    3  A    between atoms: C_2  and  N_4
REMARK    4  A    between atoms: N_4  and  C_5
REMARK    5  A    between atoms: C_8  and  C_9
REMARK    6  A    between atoms: N_11  and  C_12
REMARK    7  A    between atoms: N_11  and  C_13
REMARK    8  A    between atoms: C_13  and  C_14
REMARK    9  A    between atoms: C_14  and  N_15
REMARK   10  A    between atoms: N_15  and  C_16
REMARK   11  A    between atoms: N_15  and  C_17
REMARK   12  A    between atoms: C_19  and  N_20
REMARK   13  A    between atoms: C_23  and  O_24
REMARK   14  A    between atoms: O_24  and  C_25
REMARK                            x       y       z     vdW  Elec       q    Type
REMARK                         _______ _______ _______ _____ _____    ______ ____
ROOT
ATOM      1  C   UNL     1       2.793   4.523  20.101  0.00  0.00    +0.000 A 
ATOM      2  N   UNL     1       1.748   4.810  20.917  0.00  0.00    +0.000 NA
ATOM      3  C   UNL     1       1.383   6.113  20.989  0.00  0.00    +0.000 A 
ATOM      4  C   UNL     1       2.006   7.107  20.256  0.00  0.00    +0.000 A 
ATOM      5  N   UNL     1       3.075   6.839  19.467  0.00  0.00    +0.000 NA
ATOM      6  C   UNL     1       3.458   5.541  19.343  0.00  0.00    +0.000 A 
ENDROOT
BRANCH   6   7
ATOM      7  N   UNL     1       4.483   5.275  18.443  0.00  0.00    +0.000 N 
ATOM      8  C   UNL     1       5.829   5.080  18.955  0.00  0.00    +0.000 C 
ATOM      9  C   UNL     1       6.747   6.155  18.395  0.00  0.00    +0.000 C 
ATOM     10  C   UNL     1       6.745   6.151  16.863  0.00  0.00    +0.000 C 
ATOM     11  C   UNL     1       5.309   6.332  16.368  0.00  0.00    +0.000 C 
ATOM     12  C   UNL     1       4.338   5.330  16.989  0.00  0.00    +0.000 C 
BRANCH  10  13
ATOM     13  O   UNL     1       7.271   4.929  16.316  0.00  0.00    +0.000 OA
BRANCH  13  14
ATOM     14  C   UNL     1       7.237   4.809  14.948  0.00  0.00    +0.000 A 
ATOM     15  C   UNL     1       7.990   5.595  14.075  0.00  0.00    +0.000 A 
ATOM     16  C   UNL     1       7.917   5.399  12.699  0.00  0.00    +0.000 A 
ATOM     17  C   UNL     1       7.085   4.416  12.188  0.00  0.00    +0.000 A 
ATOM     18  F   UNL     1       7.013   4.249  10.860  0.00  0.00    +0.000 F 
ATOM     19  C   UNL     1       6.335   3.611  13.029  0.00  0.00    +0.000 A 
ATOM     20  C   UNL     1       6.420   3.802  14.406  0.00  0.00    +0.000 A 
ATOM     21  F   UNL     1       5.691   3.012  15.214  0.00  0.00    +0.000 F 
ENDBRANCH  13  14
ENDBRANCH  10  13
ENDBRANCH   6   7
BRANCH   4  22
ATOM     22  C   UNL     1       1.486   8.508  20.353  0.00  0.00    +0.000 C 
ATOM     23  O   UNL     1       1.180   8.899  21.477  0.00  0.00    +0.000 OA
ATOM     24  N   UNL     1       1.339   9.321  19.212  0.00  0.00    +0.000 N 
ATOM     25  C   UNL     1       1.631   8.929  17.840  0.00  0.00    +0.000 C 
BRANCH  24  26
ATOM     26  C   UNL     1       0.882  10.707  19.396  0.00  0.00    +0.000 C 
BRANCH  26  27
ATOM     27  C   UNL     1       1.706  11.784  18.639  0.00  0.00    +0.000 C 
BRANCH  27  28
ATOM     28  N   UNL     1       1.062  13.102  18.464  0.00  0.00    +0.000 NA
ATOM     29  C   UNL     1      -0.398  12.982  18.421  0.00  0.00    +0.000 C 
ATOM     30  C   UNL     1       1.445  13.998  19.558  0.00  0.00    +0.000 C 
ENDBRANCH  27  28
ENDBRANCH  26  27
ENDBRANCH  24  26
ENDBRANCH   4  22
BRANCH   1  31
ATOM     31  N   UNL     1       3.205   3.203  19.995  0.00  0.00    +0.000 N 
ATOM     32  H   UNL     1       3.682   2.857  20.819  0.00  0.00    +0.000 HD
BRANCH  31  34
ATOM     33  C   UNL     1       1.344   2.955  18.520  0.00  0.00    +0.000 C 
ATOM     34  C   UNL     1       2.572   2.257  19.103  0.00  0.00    +0.000 C 
ATOM     35  C   UNL     1       3.504   1.807  17.988  0.00  0.00    +0.000 C 
ENDBRANCH  31  34
ENDBRANCH   1  31
TORSDOF 9
ENDMDL
MODEL 2
REMARK VINA RESULT:      -7.5      1.013      1.162
REMARK  Name = 
REMARK  14 active torsions:
REMARK  status: ('A' for Active; 'I' for Inactive)
REMARK    1  A    between atoms: C_1  and  C_2
REMARK    2  A    between atoms: C_2  and  C_3
REMARK    3  A    between atoms: C_2  and  N_4
REMARK    4  A    between atoms: N_4  and  C_5
REMARK    5  A    between atoms: C_8  and  C_9
REMARK    6  A    between atoms: N_11  and  C_12
REMARK    7  A    between atoms: N_11  and  C_13
REMARK    8  A    between atoms: C_13  and  C_14
REMARK    9  A    between atoms: C_14  and  N_15
REMARK   10  A    between atoms: N_15  and  C_16
REMARK   11  A    between atoms: N_15  and  C_17
REMARK   12  A    between atoms: C_19  and  N_20
REMARK   13  A    between atoms: C_23  and  O_24
REMARK   14  A    between atoms: O_24  and  C_25
REMARK                            x       y       z     vdW  Elec       q    Type
REMARK                         _______ _______ _______ _____ _____    ______ ____
ROOT
ATOM      1  C   UNL     1       2.833   4.351  19.929  0.00  0.00    +0.000 A 
ATOM      2  N   UNL     1       1.780   4.613  20.742  0.00  0.00    +0.000 NA
ATOM      3  C   UNL     1       1.436   5.917  20.876  0.00  0.00    +0.000 A 
ATOM      4  C   UNL     1       2.088   6.936  20.206  0.00  0.00    +0.000 A 
ATOM      5  N   UNL     1       3.165   6.691  19.421  0.00  0.00    +0.000 NA
ATOM      6  C   UNL     1       3.528   5.394  19.235  0.00  0.00    +0.000 A 
ENDROOT
BRANCH   6   7
ATOM      7  N   UNL     1       4.563   5.158  18.339  0.00  0.00    +0.000 N 
ATOM      8  C   UNL     1       5.894   4.898  18.862  0.00  0.00    +0.000 C 
ATOM      9  C   UNL     1       6.848   5.981  18.384  0.00  0.00    +0.000 C 
ATOM     10  C   UNL     1       6.874   6.069  16.854  0.00  0.00    +0.000 C 
ATOM     11  C   UNL     1       5.453   6.316  16.346  0.00  0.00    +0.000 C 
ATOM     12  C   UNL     1       4.447   5.304  16.888  0.00  0.00    +0.000 C 
BRANCH  10  13
ATOM     13  O   UNL     1       7.381   4.870  16.243  0.00  0.00    +0.000 OA
BRANCH  13  14
ATOM     14  C   UNL     1       7.331   4.816  14.872  0.00  0.00    +0.000 A 
ATOM     15  C   UNL     1       8.116   5.604  14.029  0.00  0.00    +0.000 A 
ATOM     16  C   UNL     1       8.024   5.477  12.646  0.00  0.00    +0.000 A 
ATOM     17  C   UNL     1       7.140   4.562  12.098  0.00  0.00    +0.000 A 
ATOM     18  F   UNL     1       7.050   4.461  10.764  0.00  0.00    +0.000 F 
ATOM     19  C   UNL     1       6.357   3.755  12.907  0.00  0.00    +0.000 A 
ATOM     20  C   UNL     1       6.461   3.877  14.291  0.00  0.00    +0.000 A 
ATOM     21  F   UNL     1       5.699   3.087  15.068  0.00  0.00    +0.000 F 
ENDBRANCH  13  14
ENDBRANCH  10  13
ENDBRANCH   6   7
BRANCH   4  22
ATOM     22  C   UNL     1       1.591   8.340  20.369  0.00  0.00    +0.000 C 
ATOM     23  O   UNL     1       1.344   8.702  21.517  0.00  0.00    +0.000 OA
ATOM     24  N   UNL     1       1.398   9.187  19.260  0.00  0.00    +0.000 N 
ATOM     25  C   UNL     1       1.618   8.832  17.865  0.00  0.00    +0.000 C 
BRANCH  24  26
ATOM     26  C   UNL     1       0.968  10.572  19.505  0.00  0.00    +0.000 C 
BRANCH  26  27
ATOM     27  C   UNL     1      -0.543  10.848  19.277  0.00  0.00    +0.000 C 
BRANCH  27  28
ATOM     28  N   UNL     1      -1.272  11.482  20.395  0.00  0.00    +0.000 NA
ATOM     29  C   UNL     1      -0.373  11.793  21.510  0.00  0.00    +0.000 C 
ATOM     30  C   UNL     1      -1.925  12.711  19.938  0.00  0.00    +0.000 C 
ENDBRANCH  27  28
ENDBRANCH  26  27
ENDBRANCH  24  26
ENDBRANCH   4  22
BRANCH   1  31
ATOM     31  N   UNL     1       3.225   3.030  19.760  0.00  0.00    +0.000 N 
ATOM     32  H   UNL     1       3.804   2.678  20.513  0.00  0.00    +0.000 HD
BRANCH  31  34
ATOM     33  C   UNL     1       1.010   2.241  19.346  0.00  0.00    +0.000 C 
ATOM     34  C   UNL     1       2.478   2.093  18.951  0.00  0.00    +0.000 C 
ATOM     35  C   UNL     1       2.655   2.352  17.462  0.00  0.00    +0.000 C 
ENDBRANCH  31  34
ENDBRANCH   1  31
TORSDOF 9
ENDMDL
MODEL 3
REMARK VINA RESULT:      -7.4      0.639      1.016
REMARK  Name = 
REMARK  14 active torsions:
REMARK  status: ('A' for Active; 'I' for Inactive)
REMARK    1  A    between atoms: C_1  and  C_2
REMARK    2  A    between atoms: C_2  and  C_3
REMARK    3  A    between atoms: C_2  and  N_4
REMARK    4  A    between atoms: N_4  and  C_5
REMARK    5  A    between atoms: C_8  and  C_9
REMARK    6  A    between atoms: N_11  and  C_12
REMARK    7  A    between atoms: N_11  and  C_13
REMARK    8  A    between atoms: C_13  and  C_14
REMARK    9  A    between atoms: C_14  and  N_15
REMARK   10  A    between atoms: N_15  and  C_16
REMARK   11  A    between atoms: N_15  and  C_17
REMARK   12  A    between atoms: C_19  and  N_20
REMARK   13  A    between atoms: C_23  and  O_24
REMARK   14  A    between atoms: O_24  and  C_25
REMARK                            x       y       z     vdW  Elec       q    Type
REMARK                         _______ _______ _______ _____ _____    ______ ____
ROOT
ATOM      1  C   UNL     1       2.543   4.797  19.974  0.00  0.00    +0.000 A 
ATOM      2  N   UNL     1       1.484   5.131  20.753  0.00  0.00    +0.000 NA
ATOM      3  C   UNL     1       1.205   6.453  20.851  0.00  0.00    +0.000 A 
ATOM      4  C   UNL     1       1.927   7.423  20.179  0.00  0.00    +0.000 A 
ATOM      5  N   UNL     1       3.010   7.105  19.429  0.00  0.00    +0.000 NA
ATOM      6  C   UNL     1       3.309   5.788  19.278  0.00  0.00    +0.000 A 
ENDROOT
BRANCH   6   7
ATOM      7  N   UNL     1       4.354   5.479  18.416  0.00  0.00    +0.000 N 
ATOM      8  C   UNL     1       5.678   5.258  18.973  0.00  0.00    +0.000 C 
ATOM      9  C   UNL     1       6.641   6.298  18.422  0.00  0.00    +0.000 C 
ATOM     10  C   UNL     1       6.685   6.265  16.891  0.00  0.00    +0.000 C 
ATOM     11  C   UNL     1       5.270   6.474  16.348  0.00  0.00    +0.000 C 
ATOM     12  C   UNL     1       4.254   5.510  16.957  0.00  0.00    +0.000 C 
BRANCH  10  13
ATOM     13  O   UNL     1       7.195   5.020  16.383  0.00  0.00    +0.000 OA
BRANCH  13  14
ATOM     14  C   UNL     1       7.190   4.871  15.018  0.00  0.00    +0.000 A 
ATOM     15  C   UNL     1       7.986   5.616  14.146  0.00  0.00    +0.000 A 
ATOM     16  C   UNL     1       7.941   5.392  12.773  0.00  0.00    +0.000 A 
ATOM     17  C   UNL     1       7.092   4.422  12.263  0.00  0.00    +0.000 A 
ATOM     18  F   UNL     1       7.048   4.228  10.938  0.00  0.00    +0.000 F 
ATOM     19  C   UNL     1       6.300   3.657  13.102  0.00  0.00    +0.000 A 
ATOM     20  C   UNL     1       6.357   3.876  14.477  0.00  0.00    +0.000 A 
ATOM     21  F   UNL     1       5.586   3.125  15.283  0.00  0.00    +0.000 F 
ENDBRANCH  13  14
ENDBRANCH  10  13
ENDBRANCH   6   7
BRANCH   4  22
ATOM     22  C   UNL     1       1.499   8.853  20.300  0.00  0.00    +0.000 C 
ATOM     23  O   UNL     1       1.357   9.286  21.440  0.00  0.00    +0.000 OA
ATOM     24  N   UNL     1       1.255   9.649  19.162  0.00  0.00    +0.000 N 
ATOM     25  C   UNL     1       1.352   9.211  17.777  0.00  0.00    +0.000 C 
BRANCH  24  26
ATOM     26  C   UNL     1       0.901  11.062  19.362  0.00  0.00    +0.000 C 
BRANCH  26  27
ATOM     27  C   UNL     1       1.977  12.087  18.912  0.00  0.00    +0.000 C 
BRANCH  27  28
ATOM     28  N   UNL     1       1.873  13.444  19.485  0.00  0.00    +0.000 NA
ATOM     29  C   UNL     1       2.835  13.642  20.572  0.00  0.00    +0.000 C 
ATOM     30  C   UNL     1       2.101  14.450  18.444  0.00  0.00    +0.000 C 
ENDBRANCH  27  28
ENDBRANCH  26  27
ENDBRANCH  24  26
ENDBRANCH   4  22
BRANCH   1  31
ATOM     31  N   UNL     1       2.868   3.455  19.842  0.00  0.00    +0.000 N 
ATOM     32  H   UNL     1       3.019   2.984  20.727  0.00  0.00    +0.000 HD
BRANCH  31  34
ATOM     33  C   UNL     1       3.555   1.579  18.534  0.00  0.00    +0.000 C 
ATOM     34  C   UNL     1       2.498   2.672  18.684  0.00  0.00    +0.000 C 
ATOM     35  C   UNL     1       1.114   2.055  18.828  0.00  0.00    +0.000 C 
ENDBRANCH  31  34
ENDBRANCH   1  31
TORSDOF 9
ENDMDL
MODEL 4
REMARK VINA RESULT:      -7.4      4.047      7.110
REMARK  Name = 
REMARK  14 active torsions:
REMARK  status: ('A' for Active; 'I' for Inactive)
REMARK    1  A    between atoms: C_1  and  C_2
REMARK    2  A    between atoms: C_2  and  C_3
REMARK    3  A    between atoms: C_2  and  N_4
REMARK    4  A    between atoms: N_4  and  C_5
REMARK    5  A    between atoms: C_8  and  C_9
REMARK    6  A    between atoms: N_11  and  C_12
REMARK    7  A    between atoms: N_11  and  C_13
REMARK    8  A    between atoms: C_13  and  C_14
REMARK    9  A    between atoms: C_14  and  N_15
REMARK   10  A    between atoms: N_15  and  C_16
REMARK   11  A    between atoms: N_15  and  C_17
REMARK   12  A    between atoms: C_19  and  N_20
REMARK   13  A    between atoms: C_23  and  O_24
REMARK   14  A    between atoms: O_24  and  C_25
REMARK                            x       y       z     vdW  Elec       q    Type
REMARK                         _______ _______ _______ _____ _____    ______ ____
ROOT
ATOM      1  C   UNL     1      -0.623  11.630  18.381  0.00  0.00    +0.000 A 
ATOM      2  N   UNL     1      -0.821  12.967  18.490  0.00  0.00    +0.000 NA
ATOM      3  C   UNL     1       0.015  13.632  19.323  0.00  0.00    +0.000 A 
ATOM      4  C   UNL     1       1.040  13.006  20.011  0.00  0.00    +0.000 A 
ATOM      5  N   UNL     1       1.223  11.665  19.941  0.00  0.00    +0.000 NA
ATOM      6  C   UNL     1       0.425  10.963  19.093  0.00  0.00    +0.000 A 
ENDROOT
BRANCH   6   7
ATOM      7  N   UNL     1       0.703   9.609  18.952  0.00  0.00    +0.000 N 
ATOM      8  C   UNL     1       0.516   8.734  20.097  0.00  0.00    +0.000 C 
ATOM      9  C   UNL     1       1.848   8.110  20.484  0.00  0.00    +0.000 C 
ATOM     10  C   UNL     1       2.469   7.343  19.311  0.00  0.00    +0.000 C 
ATOM     11  C   UNL     1       2.623   8.293  18.122  0.00  0.00    +0.000 C 
ATOM     12  C   UNL     1       1.325   9.015  17.769  0.00  0.00    +0.000 C 
BRANCH  10  13
ATOM     13  O   UNL     1       1.668   6.220  18.904  0.00  0.00    +0.000 OA
BRANCH  13  14
ATOM     14  C   UNL     1       2.298   5.000  18.879  0.00  0.00    +0.000 A 
ATOM     15  C   UNL     1       3.501   4.753  18.215  0.00  0.00    +0.000 A 
ATOM     16  C   UNL     1       4.090   3.493  18.255  0.00  0.00    +0.000 A 
ATOM     17  C   UNL     1       3.474   2.468  18.956  0.00  0.00    +0.000 A 
ATOM     18  F   UNL     1       4.046   1.256  18.972  0.00  0.00    +0.000 F 
ATOM     19  C   UNL     1       2.288   2.684  19.636  0.00  0.00    +0.000 A 
ATOM     20  C   UNL     1       1.708   3.950  19.605  0.00  0.00    +0.000 A 
ATOM     21  F   UNL     1       0.557   4.151  20.272  0.00  0.00    +0.000 F 
ENDBRANCH  13  14
ENDBRANCH  10  13
ENDBRANCH   6   7
BRANCH   4  22
ATOM     22  C   UNL     1       1.952  13.839  20.858  0.00  0.00    +0.000 C 
ATOM     23  O   UNL     1       1.597  14.030  22.018  0.00  0.00    +0.000 OA
ATOM     24  N   UNL     1       3.143  14.386  20.341  0.00  0.00    +0.000 N 
ATOM     25  C   UNL     1       3.621  14.251  18.972  0.00  0.00    +0.000 C 
BRANCH  24  26
ATOM     26  C   UNL     1       4.019  15.139  21.251  0.00  0.00    +0.000 C 
BRANCH  26  27
ATOM     27  C   UNL     1       4.926  14.273  22.168  0.00  0.00    +0.000 C 
BRANCH  27  28
ATOM     28  N   UNL     1       4.728  14.429  23.624  0.00  0.00    +0.000 NA
ATOM     29  C   UNL     1       5.708  13.648  24.383  0.00  0.00    +0.000 C 
ATOM     30  C   UNL     1       4.834  15.842  23.998  0.00  0.00    +0.000 C 
ENDBRANCH  27  28
ENDBRANCH  26  27
ENDBRANCH  24  26
ENDBRANCH   4  22
BRANCH   1  31
ATOM     31  N   UNL     1      -1.455  10.905  17.539  0.00  0.00    +0.000 N 
ATOM     32  H   UNL     1      -1.360   9.901  17.638  0.00  0.00    +0.000 HD
BRANCH  31  34
ATOM     33  C   UNL     1      -2.853  10.858  15.604  0.00  0.00    +0.000 C 
ATOM     34  C   UNL     1      -2.686  11.444  17.005  0.00  0.00    +0.000 C 
ATOM     35  C   UNL     1      -3.888  11.096  17.872  0.00  0.00    +0.000 C 
ENDBRANCH  31  34
ENDBRANCH   1  31
TORSDOF 9
ENDMDL
MODEL 5
REMARK VINA RESULT:      -7.3      3.988      7.001
REMARK  Name = 
REMARK  14 active torsions:
REMARK  status: ('A' for Active; 'I' for Inactive)
REMARK    1  A    between atoms: C_1  and  C_2
REMARK    2  A    between atoms: C_2  and  C_3
REMARK    3  A    between atoms: C_2  and  N_4
REMARK    4  A    between atoms: N_4  and  C_5
REMARK    5  A    between atoms: C_8  and  C_9
REMARK    6  A    between atoms: N_11  and  C_12
REMARK    7  A    between atoms: N_11  and  C_13
REMARK    8  A    between atoms: C_13  and  C_14
REMARK    9  A    between atoms: C_14  and  N_15
REMARK   10  A    between atoms: N_15  and  C_16
REMARK   11  A    between atoms: N_15  and  C_17
REMARK   12  A    between atoms: C_19  and  N_20
REMARK   13  A    between atoms: C_23  and  O_24
REMARK   14  A    between atoms: O_24  and  C_25
REMARK                            x       y       z     vdW  Elec       q    Type
REMARK                         _______ _______ _______ _____ _____    ______ ____
ROOT
ATOM      1  C   UNL     1      -0.810  11.613  19.142  0.00  0.00    +0.000 A 
ATOM      2  N   UNL     1      -1.017  12.926  19.414  0.00  0.00    +0.000 NA
ATOM      3  C   UNL     1       0.032  13.600  19.945  0.00  0.00    +0.000 A 
ATOM      4  C   UNL     1       1.262  13.011  20.175  0.00  0.00    +0.000 A 
ATOM      5  N   UNL     1       1.469  11.692  19.943  0.00  0.00    +0.000 NA
ATOM      6  C   UNL     1       0.453  10.983  19.383  0.00  0.00    +0.000 A 
ENDROOT
BRANCH   6   7
ATOM      7  N   UNL     1       0.724   9.661  19.051  0.00  0.00    +0.000 N 
ATOM      8  C   UNL     1       0.550   8.636  20.066  0.00  0.00    +0.000 C 
ATOM      9  C   UNL     1       1.885   7.962  20.342  0.00  0.00    +0.000 C 
ATOM     10  C   UNL     1       2.485   7.364  19.064  0.00  0.00    +0.000 C 
ATOM     11  C   UNL     1       2.625   8.469  18.016  0.00  0.00    +0.000 C 
ATOM     12  C   UNL     1       1.325   9.236  17.787  0.00  0.00    +0.000 C 
BRANCH  10  13
ATOM     13  O   UNL     1       1.673   6.310  18.517  0.00  0.00    +0.000 OA
BRANCH  13  14
ATOM     14  C   UNL     1       2.234   5.057  18.498  0.00  0.00    +0.000 A 
ATOM     15  C   UNL     1       3.269   4.676  17.642  0.00  0.00    +0.000 A 
ATOM     16  C   UNL     1       3.802   3.391  17.698  0.00  0.00    +0.000 A 
ATOM     17  C   UNL     1       3.297   2.477  18.608  0.00  0.00    +0.000 A 
ATOM     18  F   UNL     1       3.809   1.238  18.639  0.00  0.00    +0.000 F 
ATOM     19  C   UNL     1       2.280   2.828  19.480  0.00  0.00    +0.000 A 
ATOM     20  C   UNL     1       1.758   4.118  19.430  0.00  0.00    +0.000 A 
ATOM     21  F   UNL     1       0.773   4.450  20.284  0.00  0.00    +0.000 F 
ENDBRANCH  13  14
ENDBRANCH  10  13
ENDBRANCH   6   7
BRANCH   4  22
ATOM     22  C   UNL     1       2.379  13.858  20.703  0.00  0.00    +0.000 C 
ATOM     23  O   UNL     1       2.493  13.912  21.924  0.00  0.00    +0.000 OA
ATOM     24  N   UNL     1       3.237  14.569  19.840  0.00  0.00    +0.000 N 
ATOM     25  C   UNL     1       3.151  14.602  18.387  0.00  0.00    +0.000 C 
BRANCH  24  26
ATOM     26  C   UNL     1       4.350  15.328  20.431  0.00  0.00    +0.000 C 
BRANCH  26  27
ATOM     27  C   UNL     1       5.766  14.917  19.944  0.00  0.00    +0.000 C 
BRANCH  27  28
ATOM     28  N   UNL     1       6.645  16.010  19.480  0.00  0.00    +0.000 NA
ATOM     29  C   UNL     1       5.869  17.106  18.892  0.00  0.00    +0.000 C 
ATOM     30  C   UNL     1       7.443  16.523  20.597  0.00  0.00    +0.000 C 
ENDBRANCH  27  28
ENDBRANCH  26  27
ENDBRANCH  24  26
ENDBRANCH   4  22
BRANCH   1  31
ATOM     31  N   UNL     1      -1.855  10.879  18.598  0.00  0.00    +0.000 N 
ATOM     32  H   UNL     1      -2.360  10.324  19.279  0.00  0.00    +0.000 HD
BRANCH  31  34
ATOM     33  C   UNL     1      -2.312  10.106  16.386  0.00  0.00    +0.000 C 
ATOM     34  C   UNL     1      -2.518  11.257  17.370  0.00  0.00    +0.000 C 
ATOM     35  C   UNL     1      -4.003  11.519  17.576  0.00  0.00    +0.000 C 
ENDBRANCH  31  34
ENDBRANCH   1  31
TORSDOF 9
ENDMDL
MODEL 6
REMARK VINA RESULT:      -7.3      0.910      1.256
REMARK  Name = 
REMARK  14 active torsions:
REMARK  status: ('A' for Active; 'I' for Inactive)
REMARK    1  A    between atoms: C_1  and  C_2
REMARK    2  A    between atoms: C_2  and  C_3
REMARK    3  A    between atoms: C_2  and  N_4
REMARK    4  A    between atoms: N_4  and  C_5
REMARK    5  A    between atoms: C_8  and  C_9
REMARK    6  A    between atoms: N_11  and  C_12
REMARK    7  A    between atoms: N_11  and  C_13
REMARK    8  A    between atoms: C_13  and  C_14
REMARK    9  A    between atoms: C_14  and  N_15
REMARK   10  A    between atoms: N_15  and  C_16
REMARK   11  A    between atoms: N_15  and  C_17
REMARK   12  A    between atoms: C_19  and  N_20
REMARK   13  A    between atoms: C_23  and  O_24
REMARK   14  A    between atoms: O_24  and  C_25
REMARK                            x       y       z     vdW  Elec       q    Type
REMARK                         _______ _______ _______ _____ _____    ______ ____
ROOT
ATOM      1  C   UNL     1       2.761   4.923  20.111  0.00  0.00    +0.000 A 
ATOM      2  N   UNL     1       1.700   5.273  20.879  0.00  0.00    +0.000 NA
ATOM      3  C   UNL     1       1.290   6.561  20.785  0.00  0.00    +0.000 A 
ATOM      4  C   UNL     1       1.887   7.476  19.937  0.00  0.00    +0.000 A 
ATOM      5  N   UNL     1       2.972   7.149  19.194  0.00  0.00    +0.000 NA
ATOM      6  C   UNL     1       3.399   5.860  19.234  0.00  0.00    +0.000 A 
ENDROOT
BRANCH   6   7
ATOM      7  N   UNL     1       4.441   5.519  18.381  0.00  0.00    +0.000 N 
ATOM      8  C   UNL     1       5.755   5.268  18.948  0.00  0.00    +0.000 C 
ATOM      9  C   UNL     1       6.748   6.280  18.398  0.00  0.00    +0.000 C 
ATOM     10  C   UNL     1       6.801   6.238  16.867  0.00  0.00    +0.000 C 
ATOM     11  C   UNL     1       5.396   6.479  16.314  0.00  0.00    +0.000 C 
ATOM     12  C   UNL     1       4.352   5.545  16.921  0.00  0.00    +0.000 C 
BRANCH  10  13
ATOM     13  O   UNL     1       7.283   4.977  16.369  0.00  0.00    +0.000 OA
BRANCH  13  14
ATOM     14  C   UNL     1       7.203   4.788  15.011  0.00  0.00    +0.000 A 
ATOM     15  C   UNL     1       7.967   5.490  14.077  0.00  0.00    +0.000 A 
ATOM     16  C   UNL     1       7.846   5.227  12.716  0.00  0.00    +0.000 A 
ATOM     17  C   UNL     1       6.954   4.260  12.280  0.00  0.00    +0.000 A 
ATOM     18  F   UNL     1       6.836   4.028  10.965  0.00  0.00    +0.000 F 
ATOM     19  C   UNL     1       6.192   3.537  13.182  0.00  0.00    +0.000 A 
ATOM     20  C   UNL     1       6.325   3.795  14.544  0.00  0.00    +0.000 A 
ATOM     21  F   UNL     1       5.583   3.084  15.412  0.00  0.00    +0.000 F 
ENDBRANCH  13  14
ENDBRANCH  10  13
ENDBRANCH   6   7
BRANCH   4  22
ATOM     22  C   UNL     1       1.319   8.860  19.856  0.00  0.00    +0.000 C 
ATOM     23  O   UNL     1       1.115   9.301  18.728  0.00  0.00    +0.000 OA
ATOM     24  N   UNL     1       1.054   9.618  21.014  0.00  0.00    +0.000 N 
ATOM     25  C   UNL     1       1.306   9.197  22.385  0.00  0.00    +0.000 C 
BRANCH  24  26
ATOM     26  C   UNL     1       0.438  10.944  20.856  0.00  0.00    +0.000 C 
BRANCH  26  27
ATOM     27  C   UNL     1       1.430  12.111  20.598  0.00  0.00    +0.000 C 
BRANCH  27  28
ATOM     28  N   UNL     1       1.074  13.048  19.513  0.00  0.00    +0.000 NA
ATOM     29  C   UNL     1       2.120  13.100  18.488  0.00  0.00    +0.000 C 
ATOM     30  C   UNL     1      -0.193  12.647  18.897  0.00  0.00    +0.000 C 
ENDBRANCH  27  28
ENDBRANCH  26  27
ENDBRANCH  24  26
ENDBRANCH   4  22
BRANCH   1  31
ATOM     31  N   UNL     1       3.218   3.614  20.173  0.00  0.00    +0.000 N 
ATOM     32  H   UNL     1       3.695   3.390  21.039  0.00  0.00    +0.000 HD
BRANCH  31  34
ATOM     33  C   UNL     1       1.501   3.165  18.576  0.00  0.00    +0.000 C 
ATOM     34  C   UNL     1       2.629   2.544  19.398  0.00  0.00    +0.000 C 
ATOM     35  C   UNL     1       3.644   1.872  18.484  0.00  0.00    +0.000 C 
ENDBRANCH  31  34
ENDBRANCH   1  31
TORSDOF 9
ENDMDL
MODEL 7
REMARK VINA RESULT:      -7.2      4.286      7.104
REMARK  Name = 
REMARK  14 active torsions:
REMARK  status: ('A' for Active; 'I' for Inactive)
REMARK    1  A    between atoms: C_1  and  C_2
REMARK    2  A    between atoms: C_2  and  C_3
REMARK    3  A    between atoms: C_2  and  N_4
REMARK    4  A    between atoms: N_4  and  C_5
REMARK    5  A    between atoms: C_8  and  C_9
REMARK    6  A    between atoms: N_11  and  C_12
REMARK    7  A    between atoms: N_11  and  C_13
REMARK    8  A    between atoms: C_13  and  C_14
REMARK    9  A    between atoms: C_14  and  N_15
REMARK   10  A    between atoms: N_15  and  C_16
REMARK   11  A    between atoms: N_15  and  C_17
REMARK   12  A    between atoms: C_19  and  N_20
REMARK   13  A    between atoms: C_23  and  O_24
REMARK   14  A    between atoms: O_24  and  C_25
REMARK                            x       y       z     vdW  Elec       q    Type
REMARK                         _______ _______ _______ _____ _____    ______ ____
ROOT
ATOM      1  C   UNL     1      -0.599  11.695  18.605  0.00  0.00    +0.000 A 
ATOM      2  N   UNL     1      -0.727  13.041  18.499  0.00  0.00    +0.000 NA
ATOM      3  C   UNL     1       0.420  13.759  18.559  0.00  0.00    +0.000 A 
ATOM      4  C   UNL     1       1.665  13.172  18.690  0.00  0.00    +0.000 A 
ATOM      5  N   UNL     1       1.803  11.831  18.836  0.00  0.00    +0.000 NA
ATOM      6  C   UNL     1       0.681  11.069  18.752  0.00  0.00    +0.000 A 
ENDROOT
BRANCH   6   7
ATOM      7  N   UNL     1       0.857   9.692  18.792  0.00  0.00    +0.000 N 
ATOM      8  C   UNL     1       0.577   8.986  20.031  0.00  0.00    +0.000 C 
ATOM      9  C   UNL     1       1.847   8.322  20.537  0.00  0.00    +0.000 C 
ATOM     10  C   UNL     1       2.435   7.367  19.491  0.00  0.00    +0.000 C 
ATOM     11  C   UNL     1       2.689   8.143  18.197  0.00  0.00    +0.000 C 
ATOM     12  C   UNL     1       1.458   8.907  17.714  0.00  0.00    +0.000 C 
BRANCH  10  13
ATOM     13  O   UNL     1       1.559   6.263  19.203  0.00  0.00    +0.000 OA
BRANCH  13  14
ATOM     14  C   UNL     1       2.161   5.045  19.002  0.00  0.00    +0.000 A 
ATOM     15  C   UNL     1       3.142   4.509  19.840  0.00  0.00    +0.000 A 
ATOM     16  C   UNL     1       3.690   3.256  19.582  0.00  0.00    +0.000 A 
ATOM     17  C   UNL     1       3.264   2.533  18.480  0.00  0.00    +0.000 A 
ATOM     18  F   UNL     1       3.812   1.334  18.235  0.00  0.00    +0.000 F 
ATOM     19  C   UNL     1       2.283   3.030  17.638  0.00  0.00    +0.000 A 
ATOM     20  C   UNL     1       1.728   4.280  17.906  0.00  0.00    +0.000 A 
ATOM     21  F   UNL     1       0.774   4.752  17.084  0.00  0.00    +0.000 F 
ENDBRANCH  13  14
ENDBRANCH  10  13
ENDBRANCH   6   7
BRANCH   4  22
ATOM     22  C   UNL     1       2.880  14.048  18.681  0.00  0.00    +0.000 C 
ATOM     23  O   UNL     1       3.333  14.343  17.578  0.00  0.00    +0.000 OA
ATOM     24  N   UNL     1       3.479  14.490  19.878  0.00  0.00    +0.000 N 
ATOM     25  C   UNL     1       3.043  14.155  21.226  0.00  0.00    +0.000 C 
BRANCH  24  26
ATOM     26  C   UNL     1       4.632  15.400  19.787  0.00  0.00    +0.000 C 
BRANCH  26  27
ATOM     27  C   UNL     1       5.974  14.826  20.317  0.00  0.00    +0.000 C 
BRANCH  27  28
ATOM     28  N   UNL     1       7.161  15.034  19.463  0.00  0.00    +0.000 NA
ATOM     29  C   UNL     1       8.278  14.184  19.882  0.00  0.00    +0.000 C 
ATOM     30  C   UNL     1       6.831  14.750  18.064  0.00  0.00    +0.000 C 
ENDBRANCH  27  28
ENDBRANCH  26  27
ENDBRANCH  24  26
ENDBRANCH   4  22
BRANCH   1  31
ATOM     31  N   UNL     1      -1.746  10.916  18.549  0.00  0.00    +0.000 N 
ATOM     32  H   UNL     1      -2.052  10.576  19.454  0.00  0.00    +0.000 HD
BRANCH  31  34
ATOM     33  C   UNL     1      -2.602   9.738  16.657  0.00  0.00    +0.000 C 
ATOM     34  C   UNL     1      -2.711  11.023  17.477  0.00  0.00    +0.000 C 
ATOM     35  C   UNL     1      -4.130  11.201  17.998  0.00  0.00    +0.000 C 
ENDBRANCH  31  34
ENDBRANCH   1  31
TORSDOF 9
ENDMDL
MODEL 8
REMARK VINA RESULT:      -7.1      1.623      1.943
REMARK  Name = 
REMARK  14 active torsions:
REMARK  status: ('A' for Active; 'I' for Inactive)
REMARK    1  A    between atoms: C_1  and  C_2
REMARK    2  A    between atoms: C_2  and  C_3
REMARK    3  A    between atoms: C_2  and  N_4
REMARK    4  A    between atoms: N_4  and  C_5
REMARK    5  A    between atoms: C_8  and  C_9
REMARK    6  A    between atoms: N_11  and  C_12
REMARK    7  A    between atoms: N_11  and  C_13
REMARK    8  A    between atoms: C_13  and  C_14
REMARK    9  A    between atoms: C_14  and  N_15
REMARK   10  A    between atoms: N_15  and  C_16
REMARK   11  A    between atoms: N_15  and  C_17
REMARK   12  A    between atoms: C_19  and  N_20
REMARK   13  A    between atoms: C_23  and  O_24
REMARK   14  A    between atoms: O_24  and  C_25
REMARK                            x       y       z     vdW  Elec       q    Type
REMARK                         _______ _______ _______ _____ _____    ______ ____
ROOT
ATOM      1  C   UNL     1       2.720   4.973  20.080  0.00  0.00    +0.000 A 
ATOM      2  N   UNL     1       1.668   5.345  20.850  0.00  0.00    +0.000 NA
ATOM      3  C   UNL     1       1.295   6.645  20.769  0.00  0.00    +0.000 A 
ATOM      4  C   UNL     1       1.918   7.552  19.931  0.00  0.00    +0.000 A 
ATOM      5  N   UNL     1       2.995   7.202  19.186  0.00  0.00    +0.000 NA
ATOM      6  C   UNL     1       3.385   5.901  19.214  0.00  0.00    +0.000 A 
ENDROOT
BRANCH   6   7
ATOM      7  N   UNL     1       4.419   5.540  18.358  0.00  0.00    +0.000 N 
ATOM      8  C   UNL     1       5.723   5.239  18.925  0.00  0.00    +0.000 C 
ATOM      9  C   UNL     1       6.749   6.228  18.392  0.00  0.00    +0.000 C 
ATOM     10  C   UNL     1       6.805   6.206  16.861  0.00  0.00    +0.000 C 
ATOM     11  C   UNL     1       5.410   6.500  16.308  0.00  0.00    +0.000 C 
ATOM     12  C   UNL     1       4.335   5.590  16.899  0.00  0.00    +0.000 C 
BRANCH  10  13
ATOM     13  O   UNL     1       7.249   4.938  16.346  0.00  0.00    +0.000 OA
BRANCH  13  14
ATOM     14  C   UNL     1       7.204   4.786  14.982  0.00  0.00    +0.000 A 
ATOM     15  C   UNL     1       7.983   5.521  14.086  0.00  0.00    +0.000 A 
ATOM     16  C   UNL     1       7.898   5.294  12.716  0.00  0.00    +0.000 A 
ATOM     17  C   UNL     1       7.026   4.331  12.232  0.00  0.00    +0.000 A 
ATOM     18  F   UNL     1       6.943   4.134  10.909  0.00  0.00    +0.000 F 
ATOM     19  C   UNL     1       6.250   3.575  13.095  0.00  0.00    +0.000 A 
ATOM     20  C   UNL     1       6.348   3.798  14.467  0.00  0.00    +0.000 A 
ATOM     21  F   UNL     1       5.592   3.056  15.297  0.00  0.00    +0.000 F 
ENDBRANCH  13  14
ENDBRANCH  10  13
ENDBRANCH   6   7
BRANCH   4  22
ATOM     22  C   UNL     1       1.390   8.952  19.864  0.00  0.00    +0.000 C 
ATOM     23  O   UNL     1       1.210   9.414  18.740  0.00  0.00    +0.000 OA
ATOM     24  N   UNL     1       1.133   9.700  21.030  0.00  0.00    +0.000 N 
ATOM     25  C   UNL     1       1.358   9.254  22.398  0.00  0.00    +0.000 C 
BRANCH  24  26
ATOM     26  C   UNL     1       0.555  11.045  20.884  0.00  0.00    +0.000 C 
BRANCH  26  27
ATOM     27  C   UNL     1      -0.989  11.123  21.029  0.00  0.00    +0.000 C 
BRANCH  27  28
ATOM     28  N   UNL     1      -1.520  12.273  21.789  0.00  0.00    +0.000 NA
ATOM     29  C   UNL     1      -2.553  12.984  21.030  0.00  0.00    +0.000 C 
ATOM     30  C   UNL     1      -2.078  11.819  23.065  0.00  0.00    +0.000 C 
ENDBRANCH  27  28
ENDBRANCH  26  27
ENDBRANCH  24  26
ENDBRANCH   4  22
BRANCH   1  31
ATOM     31  N   UNL     1       3.140   3.651  20.128  0.00  0.00    +0.000 N 
ATOM     32  H   UNL     1       4.068   3.533  20.518  0.00  0.00    +0.000 HD
BRANCH  31  34
ATOM     33  C   UNL     1       1.598   2.527  21.563  0.00  0.00    +0.000 C 
ATOM     34  C   UNL     1       2.217   2.540  20.166  0.00  0.00    +0.000 C 
ATOM     35  C   UNL     1       1.131   2.660  19.107  0.00  0.00    +0.000 C 
ENDBRANCH  31  34
ENDBRANCH   1  31
TORSDOF 9
ENDMDL
MODEL 9
REMARK VINA RESULT:      -7.0      4.087      7.206
REMARK  Name = 
REMARK  14 active torsions:
REMARK  status: ('A' for Active; 'I' for Inactive)
REMARK    1  A    between atoms: C_1  and  C_2
REMARK    2  A    between atoms: C_2  and  C_3
REMARK    3  A    between atoms: C_2  and  N_4
REMARK    4  A    between atoms: N_4  and  C_5
REMARK    5  A    between atoms: C_8  and  C_9
REMARK    6  A    between atoms: N_11  and  C_12
REMARK    7  A    between atoms: N_11  and  C_13
REMARK    8  A    between atoms: C_13  and  C_14
REMARK    9  A    between atoms: C_14  and  N_15
REMARK   10  A    between atoms: N_15  and  C_16
REMARK   11  A    between atoms: N_15  and  C_17
REMARK   12  A    between atoms: C_19  and  N_20
REMARK   13  A    between atoms: C_23  and  O_24
REMARK   14  A    between atoms: O_24  and  C_25
REMARK                            x       y       z     vdW  Elec       q    Type
REMARK                         _______ _______ _______ _____ _____    ______ ____
ROOT
ATOM      1  C   UNL     1      -0.661  11.742  18.711  0.00  0.00    +0.000 A 
ATOM      2  N   UNL     1      -0.818  13.089  18.689  0.00  0.00    +0.000 NA
ATOM      3  C   UNL     1       0.317  13.826  18.763  0.00  0.00    +0.000 A 
ATOM      4  C   UNL     1       1.577  13.258  18.825  0.00  0.00    +0.000 A 
ATOM      5  N   UNL     1       1.744  11.915  18.885  0.00  0.00    +0.000 NA
ATOM      6  C   UNL     1       0.635  11.136  18.785  0.00  0.00    +0.000 A 
ENDROOT
BRANCH   6   7
ATOM      7  N   UNL     1       0.839   9.762  18.736  0.00  0.00    +0.000 N 
ATOM      8  C   UNL     1       0.593   8.976  19.933  0.00  0.00    +0.000 C 
ATOM      9  C   UNL     1       1.884   8.307  20.378  0.00  0.00    +0.000 C 
ATOM     10  C   UNL     1       2.473   7.432  19.266  0.00  0.00    +0.000 C 
ATOM     11  C   UNL     1       2.691   8.291  18.019  0.00  0.00    +0.000 C 
ATOM     12  C   UNL     1       1.438   9.058  17.603  0.00  0.00    +0.000 C 
BRANCH  10  13
ATOM     13  O   UNL     1       1.615   6.330  18.923  0.00  0.00    +0.000 OA
BRANCH  13  14
ATOM     14  C   UNL     1       2.211   5.095  18.846  0.00  0.00    +0.000 A 
ATOM     15  C   UNL     1       2.934   4.642  17.741  0.00  0.00    +0.000 A 
ATOM     16  C   UNL     1       3.529   3.384  17.747  0.00  0.00    +0.000 A 
ATOM     17  C   UNL     1       3.399   2.568  18.859  0.00  0.00    +0.000 A 
ATOM     18  F   UNL     1       3.964   1.352  18.844  0.00  0.00    +0.000 F 
ATOM     19  C   UNL     1       2.700   2.993  19.976  0.00  0.00    +0.000 A 
ATOM     20  C   UNL     1       2.116   4.258  19.971  0.00  0.00    +0.000 A 
ATOM     21  F   UNL     1       1.443   4.663  21.063  0.00  0.00    +0.000 F 
ENDBRANCH  13  14
ENDBRANCH  10  13
ENDBRANCH   6   7
BRANCH   4  22
ATOM     22  C   UNL     1       2.773  14.159  18.837  0.00  0.00    +0.000 C 
ATOM     23  O   UNL     1       3.243  14.458  17.742  0.00  0.00    +0.000 OA
ATOM     24  N   UNL     1       3.339  14.618  20.043  0.00  0.00    +0.000 N 
ATOM     25  C   UNL     1       2.881  14.281  21.384  0.00  0.00    +0.000 C 
BRANCH  24  26
ATOM     26  C   UNL     1       4.474  15.550  19.972  0.00  0.00    +0.000 C 
BRANCH  26  27
ATOM     27  C   UNL     1       5.878  14.897  20.092  0.00  0.00    +0.000 C 
BRANCH  27  28
ATOM     28  N   UNL     1       6.882  15.308  19.089  0.00  0.00    +0.000 NA
ATOM     29  C   UNL     1       8.246  15.137  19.597  0.00  0.00    +0.000 C 
ATOM     30  C   UNL     1       6.717  14.526  17.862  0.00  0.00    +0.000 C 
ENDBRANCH  27  28
ENDBRANCH  26  27
ENDBRANCH  24  26
ENDBRANCH   4  22
BRANCH   1  31
ATOM     31  N   UNL     1      -1.794  10.944  18.638  0.00  0.00    +0.000 N 
ATOM     32  H   UNL     1      -2.040  10.506  19.518  0.00  0.00    +0.000 HD
BRANCH  31  34
ATOM     33  C   UNL     1      -2.981   9.799  16.912  0.00  0.00    +0.000 C 
ATOM     34  C   UNL     1      -2.819  11.134  17.637  0.00  0.00    +0.000 C 
ATOM     35  C   UNL     1      -4.144  11.569  18.248  0.00  0.00    +0.000 C 
ENDBRANCH  31  34
ENDBRANCH   1  31
TORSDOF 9
ENDMDL
