MODEL 1
REMARK VINA RESULT:      -9.1      0.000      0.000
REMARK  Name = 
REMARK  7 active torsions:
REMARK  status: ('A' for Active; 'I' for Inactive)
REMARK    1  A    between atoms: C_1  and  C_2
REMARK    2  A    between atoms: N_4  and  C_5
REMARK    3  A    between atoms: C_8  and  C_9
REMARK    4  A    between atoms: N_13  and  C_14
REMARK    5  A    between atoms: N_18  and  C_19
REMARK    6  A    between atoms: C_19  and  C_20
REMARK    7  A    between atoms: C_19  and  C_21
REMARK                            x       y       z     vdW  Elec       q    Type
REMARK                         _______ _______ _______ _____ _____    ______ ____
ROOT
ATOM      1  C   UNL     1       2.492   6.173  19.691  0.00  0.00    +0.000 A 
ATOM      2  C   UNL     1       1.941   5.182  20.477  0.00  0.00    +0.000 A 
ATOM      3  S   UNL     1       2.919   3.780  20.430  0.00  0.00    +0.000 S 
ATOM      4  C   UNL     1       4.018   4.584  19.358  0.00  0.00    +0.000 A 
ATOM      5  N   UNL     1       5.130   3.909  18.952  0.00  0.00    +0.000 N 
ATOM      6  N   UNL     1       3.668   5.812  19.045  0.00  0.00    +0.000 NA
ATOM      7  H   UNL     1       5.181   2.974  19.340  0.00  0.00    +0.000 HD
ENDROOT
BRANCH   5   8
ATOM      8  C   UNL     1       5.915   4.180  17.876  0.00  0.00    +0.000 A 
ATOM      9  C   UNL     1       5.775   4.095  16.519  0.00  0.00    +0.000 A 
ATOM     10  C   UNL     1       7.057   4.283  15.988  0.00  0.00    +0.000 A 
ATOM     11  N   UNL     1       7.933   4.720  16.880  0.00  0.00    +0.000 NA
ATOM     12  N   UNL     1       7.154   4.822  18.000  0.00  0.00    +0.000 N 
ATOM     13  C   UNL     1       7.045   4.323  14.512  0.00  0.00    +0.000 C 
ATOM     14  C   UNL     1       5.562   4.762  14.297  0.00  0.00    +0.000 C 
ATOM     15  C   UNL     1       4.761   4.041  15.448  0.00  0.00    +0.000 C 
BRANCH  12  16
ATOM     16  C   UNL     1       7.433   5.911  18.941  0.00  0.00    +0.000 C 
ATOM     17  C   UNL     1       8.376   5.467  20.055  0.00  0.00    +0.000 C 
ATOM     18  C   UNL     1       7.979   7.150  18.215  0.00  0.00    +0.000 C 
ENDBRANCH  12  16
ENDBRANCH   5   8
BRANCH   1  22
ATOM     19  C   UNL     1       1.041  10.174  19.245  0.00  0.00    +0.000 A 
ATOM     20  C   UNL     1       1.626   9.496  18.169  0.00  0.00    +0.000 A 
ATOM     21  C   UNL     1       2.089   8.187  18.339  0.00  0.00    +0.000 A 
ATOM     22  C   UNL     1       1.960   7.524  19.569  0.00  0.00    +0.000 A 
ATOM     23  C   UNL     1       1.354   8.198  20.633  0.00  0.00    +0.000 A 
ATOM     24  C   UNL     1       0.914   9.512  20.472  0.00  0.00    +0.000 A 
ATOM     25  F   UNL     1       0.311  10.096  21.518  0.00  0.00    +0.000 F 
BRANCH  19  29
ATOM     26  C   UNL     1       0.714  15.149  18.954  0.00  0.00    +0.000 C 
ATOM     27  C   UNL     1       0.441  13.697  18.965  0.00  0.00    +0.000 A 
ATOM     28  C   UNL     1       1.265  12.660  19.350  0.00  0.00    +0.000 A 
ATOM     29  N   UNL     1       0.573  11.499  19.079  0.00  0.00    +0.000 N 
ATOM     30  C   UNL     1      -0.656  11.903  18.609  0.00  0.00    +0.000 A 
ATOM     31  N   UNL     1      -0.762  13.210  18.533  0.00  0.00    +0.000 NA
ENDBRANCH  19  29
ENDBRANCH   1  22
TORSDOF 4
ENDMDL
MODEL 2
REMARK VINA RESULT:      -9.1      0.927      1.276
REMARK  Name = 
REMARK  7 active torsions:
REMARK  status: ('A' for Active; 'I' for Inactive)
REMARK    1  A    between atoms: C_1  and  C_2
REMARK    2  A    between atoms: N_4  and  C_5
REMARK    3  A    between atoms: C_8  and  C_9
REMARK    4  A    between atoms: N_13  and  C_14
REMARK    5  A    between atoms: N_18  and  C_19
REMARK    6  A    between atoms: C_19  and  C_20
REMARK    7  A    between atoms: C_19  and  C_21
REMARK                            x       y       z     vdW  Elec       q    Type
REMARK                         _______ _______ _______ _____ _____    ______ ____
ROOT
ATOM      1  C   UNL     1       2.542   6.002  19.880  0.00  0.00    +0.000 A 
ATOM      2  C   UNL     1       2.024   4.974  20.640  0.00  0.00    +0.000 A 
ATOM      3  S   UNL     1       3.020   3.589  20.515  0.00  0.00    +0.000 S 
ATOM      4  C   UNL     1       4.080   4.448  19.447  0.00  0.00    +0.000 A 
ATOM      5  N   UNL     1       5.190   3.804  18.988  0.00  0.00    +0.000 N 
ATOM      6  N   UNL     1       3.706   5.682  19.190  0.00  0.00    +0.000 NA
ATOM      7  H   UNL     1       5.263   2.856  19.338  0.00  0.00    +0.000 HD
ENDROOT
BRANCH   5   8
ATOM      8  C   UNL     1       5.943   4.127  17.904  0.00  0.00    +0.000 A 
ATOM      9  C   UNL     1       5.777   4.074  16.548  0.00  0.00    +0.000 A 
ATOM     10  C   UNL     1       7.041   4.314  15.996  0.00  0.00    +0.000 A 
ATOM     11  N   UNL     1       7.923   4.753  16.881  0.00  0.00    +0.000 NA
ATOM     12  N   UNL     1       7.166   4.802  18.019  0.00  0.00    +0.000 N 
ATOM     13  C   UNL     1       6.996   4.392  14.522  0.00  0.00    +0.000 C 
ATOM     14  C   UNL     1       5.497   4.793  14.350  0.00  0.00    +0.000 C 
ATOM     15  C   UNL     1       4.742   4.018  15.497  0.00  0.00    +0.000 C 
BRANCH  12  16
ATOM     16  C   UNL     1       7.433   5.873  18.983  0.00  0.00    +0.000 C 
ATOM     17  C   UNL     1       8.382   5.416  20.087  0.00  0.00    +0.000 C 
ATOM     18  C   UNL     1       7.965   7.134  18.284  0.00  0.00    +0.000 C 
ENDBRANCH  12  16
ENDBRANCH   5   8
BRANCH   1  22
ATOM     19  C   UNL     1       0.806   9.911  19.790  0.00  0.00    +0.000 A 
ATOM     20  C   UNL     1       0.750   9.125  20.947  0.00  0.00    +0.000 A 
ATOM     21  C   UNL     1       1.330   7.852  20.952  0.00  0.00    +0.000 A 
ATOM     22  C   UNL     1       1.989   7.349  19.822  0.00  0.00    +0.000 A 
ATOM     23  C   UNL     1       2.062   8.147  18.677  0.00  0.00    +0.000 A 
ATOM     24  C   UNL     1       1.464   9.408  18.661  0.00  0.00    +0.000 A 
ATOM     25  F   UNL     1       1.595  10.142  17.547  0.00  0.00    +0.000 F 
BRANCH  19  29
ATOM     26  C   UNL     1       0.054  14.842  19.520  0.00  0.00    +0.000 C 
ATOM     27  C   UNL     1      -0.095  13.379  19.668  0.00  0.00    +0.000 A 
ATOM     28  C   UNL     1       0.882  12.409  19.741  0.00  0.00    +0.000 A 
ATOM     29  N   UNL     1       0.220  11.200  19.778  0.00  0.00    +0.000 N 
ATOM     30  C   UNL     1      -1.120  11.513  19.794  0.00  0.00    +0.000 A 
ATOM     31  N   UNL     1      -1.336  12.807  19.732  0.00  0.00    +0.000 NA
ENDBRANCH  19  29
ENDBRANCH   1  22
TORSDOF 4
ENDMDL
MODEL 3
REMARK VINA RESULT:      -8.7      1.061      1.248
REMARK  Name = 
REMARK  7 active torsions:
REMARK  status: ('A' for Active; 'I' for Inactive)
REMARK    1  A    between atoms: C_1  and  C_2
REMARK    2  A    between atoms: N_4  and  C_5
REMARK    3  A    between atoms: C_8  and  C_9
REMARK    4  A    between atoms: N_13  and  C_14
REMARK    5  A    between atoms: N_18  and  C_19
REMARK    6  A    between atoms: C_19  and  C_20
REMARK    7  A    between atoms: C_19  and  C_21
REMARK                            x       y       z     vdW  Elec       q    Type
REMARK                         _______ _______ _______ _____ _____    ______ ____
ROOT
ATOM      1  C   UNL     1       2.663   5.633  19.952  0.00  0.00    +0.000 A 
ATOM      2  C   UNL     1       2.263   4.535  20.685  0.00  0.00    +0.000 A 
ATOM      3  S   UNL     1       3.324   3.222  20.407  0.00  0.00    +0.000 S 
ATOM      4  C   UNL     1       4.251   4.203  19.320  0.00  0.00    +0.000 A 
ATOM      5  N   UNL     1       5.358   3.656  18.745  0.00  0.00    +0.000 N 
ATOM      6  N   UNL     1       3.788   5.424  19.164  0.00  0.00    +0.000 NA
ATOM      7  H   UNL     1       5.511   2.696  19.032  0.00  0.00    +0.000 HD
ENDROOT
BRANCH   5   8
ATOM      8  C   UNL     1       6.008   4.083  17.631  0.00  0.00    +0.000 A 
ATOM      9  C   UNL     1       5.793   4.004  16.284  0.00  0.00    +0.000 A 
ATOM     10  C   UNL     1       6.983   4.427  15.679  0.00  0.00    +0.000 A 
ATOM     11  N   UNL     1       7.829   4.991  16.527  0.00  0.00    +0.000 NA
ATOM     12  N   UNL     1       7.123   4.930  17.697  0.00  0.00    +0.000 N 
ATOM     13  C   UNL     1       6.864   4.495  14.209  0.00  0.00    +0.000 C 
ATOM     14  C   UNL     1       5.316   4.672  14.103  0.00  0.00    +0.000 C 
ATOM     15  C   UNL     1       4.733   3.797  15.278  0.00  0.00    +0.000 C 
BRANCH  12  16
ATOM     16  C   UNL     1       7.272   6.031  18.654  0.00  0.00    +0.000 C 
ATOM     17  C   UNL     1       8.153   5.636  19.836  0.00  0.00    +0.000 C 
ATOM     18  C   UNL     1       7.802   7.299  17.968  0.00  0.00    +0.000 C 
ENDBRANCH  12  16
ENDBRANCH   5   8
BRANCH   1  22
ATOM     19  C   UNL     1       0.919   9.538  20.064  0.00  0.00    +0.000 A 
ATOM     20  C   UNL     1       1.615   9.093  18.934  0.00  0.00    +0.000 A 
ATOM     21  C   UNL     1       2.172   7.810  18.920  0.00  0.00    +0.000 A 
ATOM     22  C   UNL     1       2.030   6.944  20.014  0.00  0.00    +0.000 A 
ATOM     23  C   UNL     1       1.314   7.386  21.131  0.00  0.00    +0.000 A 
ATOM     24  C   UNL     1       0.779   8.675  21.156  0.00  0.00    +0.000 A 
ATOM     25  F   UNL     1       0.074   9.032  22.239  0.00  0.00    +0.000 F 
BRANCH  19  29
ATOM     26  C   UNL     1      -2.255  13.393  20.206  0.00  0.00    +0.000 C 
ATOM     27  C   UNL     1      -1.058  12.528  20.135  0.00  0.00    +0.000 A 
ATOM     28  C   UNL     1      -0.983  11.158  20.000  0.00  0.00    +0.000 A 
ATOM     29  N   UNL     1       0.355  10.837  20.083  0.00  0.00    +0.000 N 
ATOM     30  C   UNL     1       1.017  12.039  20.194  0.00  0.00    +0.000 A 
ATOM     31  N   UNL     1       0.197  13.064  20.225  0.00  0.00    +0.000 NA
ENDBRANCH  19  29
ENDBRANCH   1  22
TORSDOF 4
ENDMDL
MODEL 4
REMARK VINA RESULT:      -8.4      3.502      9.995
REMARK  Name = 
REMARK  7 active torsions:
REMARK  status: ('A' for Active; 'I' for Inactive)
REMARK    1  A    between atoms: C_1  and  C_2
REMARK    2  A    between atoms: N_4  and  C_5
REMARK    3  A    between atoms: C_8  and  C_9
REMARK    4  A    between atoms: N_13  and  C_14
REMARK    5  A    between atoms: N_18  and  C_19
REMARK    6  A    between atoms: C_19  and  C_20
REMARK    7  A    between atoms: C_19  and  C_21
REMARK                            x       y       z     vdW  Elec       q    Type
REMARK                         _______ _______ _______ _____ _____    ______ ____
ROOT
ATOM      1  C   UNL     1       0.438  10.060  20.156  0.00  0.00    +0.000 A 
ATOM      2  C   UNL     1       0.816  11.028  21.063  0.00  0.00    +0.000 A 
ATOM      3  S   UNL     1      -0.360  12.269  21.125  0.00  0.00    +0.000 S 
ATOM      4  C   UNL     1      -1.301  11.436  19.932  0.00  0.00    +0.000 A 
ATOM      5  N   UNL     1      -2.491  11.983  19.554  0.00  0.00    +0.000 N 
ATOM      6  N   UNL     1      -0.763  10.315  19.504  0.00  0.00    +0.000 NA
ATOM      7  H   UNL     1      -2.689  12.852  20.037  0.00  0.00    +0.000 HD
ENDROOT
BRANCH   5   8
ATOM      8  C   UNL     1      -3.200  11.721  18.426  0.00  0.00    +0.000 A 
ATOM      9  C   UNL     1      -2.938  11.124  17.224  0.00  0.00    +0.000 A 
ATOM     10  C   UNL     1      -4.034  11.414  16.403  0.00  0.00    +0.000 A 
ATOM     11  N   UNL     1      -5.060  11.929  17.064  0.00  0.00    +0.000 NA
ATOM     12  N   UNL     1      -4.582  11.937  18.346  0.00  0.00    +0.000 N 
ATOM     13  C   UNL     1      -3.940  10.740  15.093  0.00  0.00    +0.000 C 
ATOM     14  C   UNL     1      -3.003   9.558  15.500  0.00  0.00    +0.000 C 
ATOM     15  C   UNL     1      -2.018  10.178  16.563  0.00  0.00    +0.000 C 
BRANCH  12  16
ATOM     16  C   UNL     1      -5.525  11.683  19.438  0.00  0.00    +0.000 C 
ATOM     17  C   UNL     1      -6.018  12.980  20.072  0.00  0.00    +0.000 C 
ATOM     18  C   UNL     1      -6.702  10.814  18.969  0.00  0.00    +0.000 C 
ENDBRANCH  12  16
ENDBRANCH   5   8
BRANCH   1  22
ATOM     19  C   UNL     1       2.625   6.428  19.581  0.00  0.00    +0.000 A 
ATOM     20  C   UNL     1       1.903   6.655  20.759  0.00  0.00    +0.000 A 
ATOM     21  C   UNL     1       1.192   7.848  20.921  0.00  0.00    +0.000 A 
ATOM     22  C   UNL     1       1.169   8.823  19.913  0.00  0.00    +0.000 A 
ATOM     23  C   UNL     1       1.873   8.582  18.730  0.00  0.00    +0.000 A 
ATOM     24  C   UNL     1       2.603   7.402  18.576  0.00  0.00    +0.000 A 
ATOM     25  F   UNL     1       3.231   7.210  17.407  0.00  0.00    +0.000 F 
BRANCH  19  29
ATOM     26  C   UNL     1       3.905   1.679  18.709  0.00  0.00    +0.000 C 
ATOM     27  C   UNL     1       3.896   3.121  19.036  0.00  0.00    +0.000 A 
ATOM     28  C   UNL     1       2.820   3.962  19.226  0.00  0.00    +0.000 A 
ATOM     29  N   UNL     1       3.348   5.222  19.413  0.00  0.00    +0.000 N 
ATOM     30  C   UNL     1       4.714   5.057  19.393  0.00  0.00    +0.000 A 
ATOM     31  N   UNL     1       5.069   3.812  19.173  0.00  0.00    +0.000 NA
ENDBRANCH  19  29
ENDBRANCH   1  22
TORSDOF 4
ENDMDL
MODEL 5
REMARK VINA RESULT:      -8.4      3.450      9.916
REMARK  Name = 
REMARK  7 active torsions:
REMARK  status: ('A' for Active; 'I' for Inactive)
REMARK    1  A    between atoms: C_1  and  C_2
REMARK    2  A    between atoms: N_4  and  C_5
REMARK    3  A    between atoms: C_8  and  C_9
REMARK    4  A    between atoms: N_13  and  C_14
REMARK    5  A    between atoms: N_18  and  C_19
REMARK    6  A    between atoms: C_19  and  C_20
REMARK    7  A    between atoms: C_19  and  C_21
REMARK                            x       y       z     vdW  Elec       q    Type
REMARK                         _______ _______ _______ _____ _____    ______ ____
ROOT
ATOM      1  C   UNL     1       0.465  10.072  20.147  0.00  0.00    +0.000 A 
ATOM      2  C   UNL     1       0.854  11.051  21.038  0.00  0.00    +0.000 A 
ATOM      3  S   UNL     1      -0.315  12.298  21.093  0.00  0.00    +0.000 S 
ATOM      4  C   UNL     1      -1.269  11.454  19.918  0.00  0.00    +0.000 A 
ATOM      5  N   UNL     1      -2.459  12.001  19.543  0.00  0.00    +0.000 N 
ATOM      6  N   UNL     1      -0.740  10.324  19.501  0.00  0.00    +0.000 NA
ATOM      7  H   UNL     1      -2.651  12.877  20.015  0.00  0.00    +0.000 HD
ENDROOT
BRANCH   5   8
ATOM      8  C   UNL     1      -3.178  11.727  18.423  0.00  0.00    +0.000 A 
ATOM      9  C   UNL     1      -2.927  11.117  17.226  0.00  0.00    +0.000 A 
ATOM     10  C   UNL     1      -4.031  11.400  16.411  0.00  0.00    +0.000 A 
ATOM     11  N   UNL     1      -5.050  11.922  17.075  0.00  0.00    +0.000 NA
ATOM     12  N   UNL     1      -4.561  11.944  18.353  0.00  0.00    +0.000 N 
ATOM     13  C   UNL     1      -3.948  10.712  15.107  0.00  0.00    +0.000 C 
ATOM     14  C   UNL     1      -3.009   9.534  15.519  0.00  0.00    +0.000 C 
ATOM     15  C   UNL     1      -2.014  10.163  16.567  0.00  0.00    +0.000 C 
BRANCH  12  16
ATOM     16  C   UNL     1      -5.495  11.702  19.456  0.00  0.00    +0.000 C 
ATOM     17  C   UNL     1      -5.956  13.006  20.102  0.00  0.00    +0.000 C 
ATOM     18  C   UNL     1      -6.694  10.858  18.998  0.00  0.00    +0.000 C 
ENDBRANCH  12  16
ENDBRANCH   5   8
BRANCH   1  22
ATOM     19  C   UNL     1       2.548   6.427  19.324  0.00  0.00    +0.000 A 
ATOM     20  C   UNL     1       2.534   7.474  18.395  0.00  0.00    +0.000 A 
ATOM     21  C   UNL     1       1.850   8.658  18.689  0.00  0.00    +0.000 A 
ATOM     22  C   UNL     1       1.189   8.829  19.914  0.00  0.00    +0.000 A 
ATOM     23  C   UNL     1       1.225   7.789  20.848  0.00  0.00    +0.000 A 
ATOM     24  C   UNL     1       1.887   6.598  20.546  0.00  0.00    +0.000 A 
ATOM     25  F   UNL     1       1.916   5.649  21.493  0.00  0.00    +0.000 F 
BRANCH  19  29
ATOM     26  C   UNL     1       3.694   1.743  18.022  0.00  0.00    +0.000 C 
ATOM     27  C   UNL     1       3.727   3.153  18.464  0.00  0.00    +0.000 A 
ATOM     28  C   UNL     1       2.678   3.995  18.765  0.00  0.00    +0.000 A 
ATOM     29  N   UNL     1       3.238   5.226  19.030  0.00  0.00    +0.000 N 
ATOM     30  C   UNL     1       4.599   5.040  18.941  0.00  0.00    +0.000 A 
ATOM     31  N   UNL     1       4.918   3.810  18.607  0.00  0.00    +0.000 NA
ENDBRANCH  19  29
ENDBRANCH   1  22
TORSDOF 4
ENDMDL
MODEL 6
REMARK VINA RESULT:      -8.1      3.448      9.845
REMARK  Name = 
REMARK  7 active torsions:
REMARK  status: ('A' for Active; 'I' for Inactive)
REMARK    1  A    between atoms: C_1  and  C_2
REMARK    2  A    between atoms: N_4  and  C_5
REMARK    3  A    between atoms: C_8  and  C_9
REMARK    4  A    between atoms: N_13  and  C_14
REMARK    5  A    between atoms: N_18  and  C_19
REMARK    6  A    between atoms: C_19  and  C_20
REMARK    7  A    between atoms: C_19  and  C_21
REMARK                            x       y       z     vdW  Elec       q    Type
REMARK                         _______ _______ _______ _____ _____    ______ ____
ROOT
ATOM      1  C   UNL     1       0.513  10.063  19.961  0.00  0.00    +0.000 A 
ATOM      2  C   UNL     1       0.798  10.912  21.009  0.00  0.00    +0.000 A 
ATOM      3  S   UNL     1      -0.491  12.011  21.245  0.00  0.00    +0.000 S 
ATOM      4  C   UNL     1      -1.350  11.286  19.927  0.00  0.00    +0.000 A 
ATOM      5  N   UNL     1      -2.588  11.768  19.623  0.00  0.00    +0.000 N 
ATOM      6  N   UNL     1      -0.708  10.299  19.340  0.00  0.00    +0.000 NA
ATOM      7  H   UNL     1      -2.868  12.530  20.229  0.00  0.00    +0.000 HD
ENDROOT
BRANCH   5   8
ATOM      8  C   UNL     1      -3.271  11.615  18.458  0.00  0.00    +0.000 A 
ATOM      9  C   UNL     1      -3.001  11.078  17.231  0.00  0.00    +0.000 A 
ATOM     10  C   UNL     1      -4.051  11.480  16.395  0.00  0.00    +0.000 A 
ATOM     11  N   UNL     1      -5.068  12.011  17.055  0.00  0.00    +0.000 NA
ATOM     12  N   UNL     1      -4.635  11.915  18.349  0.00  0.00    +0.000 N 
ATOM     13  C   UNL     1      -3.948  10.882  15.050  0.00  0.00    +0.000 C 
ATOM     14  C   UNL     1      -3.094   9.626  15.411  0.00  0.00    +0.000 C 
ATOM     15  C   UNL     1      -2.113  10.122  16.541  0.00  0.00    +0.000 C 
BRANCH  12  16
ATOM     16  C   UNL     1      -5.629  11.650  19.394  0.00  0.00    +0.000 C 
ATOM     17  C   UNL     1      -6.190  12.942  19.980  0.00  0.00    +0.000 C 
ATOM     18  C   UNL     1      -6.754  10.741  18.876  0.00  0.00    +0.000 C 
ENDBRANCH  12  16
ENDBRANCH   5   8
BRANCH   1  22
ATOM     19  C   UNL     1       2.944   6.819  18.593  0.00  0.00    +0.000 A 
ATOM     20  C   UNL     1       2.738   7.950  17.794  0.00  0.00    +0.000 A 
ATOM     21  C   UNL     1       1.943   9.000  18.266  0.00  0.00    +0.000 A 
ATOM     22  C   UNL     1       1.359   8.953  19.540  0.00  0.00    +0.000 A 
ATOM     23  C   UNL     1       1.587   7.831  20.342  0.00  0.00    +0.000 A 
ATOM     24  C   UNL     1       2.360   6.772  19.864  0.00  0.00    +0.000 A 
ATOM     25  F   UNL     1       2.572   5.737  20.689  0.00  0.00    +0.000 F 
BRANCH  19  29
ATOM     26  C   UNL     1       6.148   4.014  15.981  0.00  0.00    +0.000 C 
ATOM     27  C   UNL     1       5.156   4.525  16.951  0.00  0.00    +0.000 A 
ATOM     28  C   UNL     1       4.481   5.727  16.952  0.00  0.00    +0.000 A 
ATOM     29  N   UNL     1       3.747   5.753  18.119  0.00  0.00    +0.000 N 
ATOM     30  C   UNL     1       3.967   4.535  18.721  0.00  0.00    +0.000 A 
ATOM     31  N   UNL     1       4.802   3.781  18.043  0.00  0.00    +0.000 NA
ENDBRANCH  19  29
ENDBRANCH   1  22
TORSDOF 4
ENDMDL
MODEL 7
REMARK VINA RESULT:      -8.0      1.102      1.238
REMARK  Name = 
REMARK  7 active torsions:
REMARK  status: ('A' for Active; 'I' for Inactive)
REMARK    1  A    between atoms: C_1  and  C_2
REMARK    2  A    between atoms: N_4  and  C_5
REMARK    3  A    between atoms: C_8  and  C_9
REMARK    4  A    between atoms: N_13  and  C_14
REMARK    5  A    between atoms: N_18  and  C_19
REMARK    6  A    between atoms: C_19  and  C_20
REMARK    7  A    between atoms: C_19  and  C_21
REMARK                            x       y       z     vdW  Elec       q    Type
REMARK                         _______ _______ _______ _____ _____    ______ ____
ROOT
ATOM      1  C   UNL     1       2.887   5.889  19.389  0.00  0.00    +0.000 A 
ATOM      2  C   UNL     1       2.614   4.810  20.204  0.00  0.00    +0.000 A 
ATOM      3  S   UNL     1       3.738   3.553  19.916  0.00  0.00    +0.000 S 
ATOM      4  C   UNL     1       4.518   4.528  18.714  0.00  0.00    +0.000 A 
ATOM      5  N   UNL     1       5.616   4.020  18.087  0.00  0.00    +0.000 N 
ATOM      6  N   UNL     1       3.965   5.707  18.531  0.00  0.00    +0.000 NA
ATOM      7  H   UNL     1       5.852   3.089  18.411  0.00  0.00    +0.000 HD
ENDROOT
BRANCH   5   8
ATOM      8  C   UNL     1       6.156   4.424  16.908  0.00  0.00    +0.000 A 
ATOM      9  C   UNL     1       6.049   4.038  15.601  0.00  0.00    +0.000 A 
ATOM     10  C   UNL     1       7.075   4.704  14.918  0.00  0.00    +0.000 A 
ATOM     11  N   UNL     1       7.652   5.653  15.639  0.00  0.00    +0.000 NA
ATOM     12  N   UNL     1       6.939   5.582  16.804  0.00  0.00    +0.000 N 
ATOM     13  C   UNL     1       7.019   4.463  13.463  0.00  0.00    +0.000 C 
ATOM     14  C   UNL     1       5.503   4.111  13.337  0.00  0.00    +0.000 C 
ATOM     15  C   UNL     1       5.165   3.323  14.660  0.00  0.00    +0.000 C 
BRANCH  12  16
ATOM     16  C   UNL     1       6.681   6.826  17.535  0.00  0.00    +0.000 C 
ATOM     17  C   UNL     1       7.951   7.653  17.709  0.00  0.00    +0.000 C 
ATOM     18  C   UNL     1       5.572   7.649  16.862  0.00  0.00    +0.000 C 
ENDBRANCH  12  16
ENDBRANCH   5   8
BRANCH   1  22
ATOM     19  C   UNL     1       0.896   9.675  19.422  0.00  0.00    +0.000 A 
ATOM     20  C   UNL     1       1.460   9.169  18.245  0.00  0.00    +0.000 A 
ATOM     21  C   UNL     1       2.102   7.926  18.259  0.00  0.00    +0.000 A 
ATOM     22  C   UNL     1       2.175   7.160  19.431  0.00  0.00    +0.000 A 
ATOM     23  C   UNL     1       1.590   7.660  20.598  0.00  0.00    +0.000 A 
ATOM     24  C   UNL     1       0.970   8.910  20.591  0.00  0.00    +0.000 A 
ATOM     25  F   UNL     1       0.397   9.323  21.731  0.00  0.00    +0.000 F 
BRANCH  19  29
ATOM     26  C   UNL     1      -0.153  14.535  18.932  0.00  0.00    +0.000 C 
ATOM     27  C   UNL     1      -0.199  13.082  19.202  0.00  0.00    +0.000 A 
ATOM     28  C   UNL     1       0.829  12.163  19.189  0.00  0.00    +0.000 A 
ATOM     29  N   UNL     1       0.246  10.933  19.413  0.00  0.00    +0.000 N 
ATOM     30  C   UNL     1      -1.091  11.190  19.616  0.00  0.00    +0.000 A 
ATOM     31  N   UNL     1      -1.383  12.465  19.499  0.00  0.00    +0.000 NA
ENDBRANCH  19  29
ENDBRANCH   1  22
TORSDOF 4
ENDMDL
MODEL 8
REMARK VINA RESULT:      -7.9      3.759     10.407
REMARK  Name = 
REMARK  7 active torsions:
REMARK  status: ('A' for Active; 'I' for Inactive)
REMARK    1  A    between atoms: C_1  and  C_2
REMARK    2  A    between atoms: N_4  and  C_5
REMARK    3  A    between atoms: C_8  and  C_9
REMARK    4  A    between atoms: N_13  and  C_14
REMARK    5  A    between atoms: N_18  and  C_19
REMARK    6  A    between atoms: C_19  and  C_20
REMARK    7  A    between atoms: C_19  and  C_21
REMARK                            x       y       z     vdW  Elec       q    Type
REMARK                         _______ _______ _______ _____ _____    ______ ____
ROOT
ATOM      1  C   UNL     1       0.468  11.528  19.073  0.00  0.00    +0.000 A 
ATOM      2  C   UNL     1       1.101  12.661  18.605  0.00  0.00    +0.000 A 
ATOM      3  S   UNL     1       0.126  14.039  18.884  0.00  0.00    +0.000 S 
ATOM      4  C   UNL     1      -1.085  13.034  19.609  0.00  0.00    +0.000 A 
ATOM      5  N   UNL     1      -2.206  13.632  20.103  0.00  0.00    +0.000 N 
ATOM      6  N   UNL     1      -0.786  11.753  19.627  0.00  0.00    +0.000 NA
ATOM      7  H   UNL     1      -2.197  14.637  19.976  0.00  0.00    +0.000 HD
ENDROOT
BRANCH   5   8
ATOM      8  C   UNL     1      -3.402  13.048  20.375  0.00  0.00    +0.000 A 
ATOM      9  C   UNL     1      -4.369  12.417  19.644  0.00  0.00    +0.000 A 
ATOM     10  C   UNL     1      -5.471  12.284  20.499  0.00  0.00    +0.000 A 
ATOM     11  N   UNL     1      -5.187  12.555  21.763  0.00  0.00    +0.000 NA
ATOM     12  N   UNL     1      -3.853  12.849  21.686  0.00  0.00    +0.000 N 
ATOM     13  C   UNL     1      -6.568  11.518  19.874  0.00  0.00    +0.000 C 
ATOM     14  C   UNL     1      -5.731  10.710  18.832  0.00  0.00    +0.000 C 
ATOM     15  C   UNL     1      -4.597  11.704  18.372  0.00  0.00    +0.000 C 
BRANCH  12  16
ATOM     16  C   UNL     1      -2.993  12.462  22.809  0.00  0.00    +0.000 C 
ATOM     17  C   UNL     1      -1.947  13.531  23.112  0.00  0.00    +0.000 C 
ATOM     18  C   UNL     1      -3.822  12.129  24.058  0.00  0.00    +0.000 C 
ENDBRANCH  12  16
ENDBRANCH   5   8
BRANCH   1  22
ATOM     19  C   UNL     1       2.139   7.592  18.921  0.00  0.00    +0.000 A 
ATOM     20  C   UNL     1       2.241   8.460  17.827  0.00  0.00    +0.000 A 
ATOM     21  C   UNL     1       1.691   9.744  17.904  0.00  0.00    +0.000 A 
ATOM     22  C   UNL     1       1.051  10.192  19.068  0.00  0.00    +0.000 A 
ATOM     23  C   UNL     1       0.972   9.329  20.165  0.00  0.00    +0.000 A 
ATOM     24  C   UNL     1       1.499   8.040  20.082  0.00  0.00    +0.000 A 
ATOM     25  F   UNL     1       1.423   7.268  21.177  0.00  0.00    +0.000 F 
BRANCH  19  29
ATOM     26  C   UNL     1       3.050   2.818  17.766  0.00  0.00    +0.000 C 
ATOM     27  C   UNL     1       3.076   4.182  18.337  0.00  0.00    +0.000 A 
ATOM     28  C   UNL     1       2.156   5.199  18.201  0.00  0.00    +0.000 A 
ATOM     29  N   UNL     1       2.693   6.291  18.848  0.00  0.00    +0.000 N 
ATOM     30  C   UNL     1       3.876   5.850  19.397  0.00  0.00    +0.000 A 
ATOM     31  N   UNL     1       4.128   4.594  19.109  0.00  0.00    +0.000 NA
ENDBRANCH  19  29
ENDBRANCH   1  22
TORSDOF 4
ENDMDL
MODEL 9
REMARK VINA RESULT:      -7.9      4.004     10.657
REMARK  Name = 
REMARK  7 active torsions:
REMARK  status: ('A' for Active; 'I' for Inactive)
REMARK    1  A    between atoms: C_1  and  C_2
REMARK    2  A    between atoms: N_4  and  C_5
REMARK    3  A    between atoms: C_8  and  C_9
REMARK    4  A    between atoms: N_13  and  C_14
REMARK    5  A    between atoms: N_18  and  C_19
REMARK    6  A    between atoms: C_19  and  C_20
REMARK    7  A    between atoms: C_19  and  C_21
REMARK                            x       y       z     vdW  Elec       q    Type
REMARK                         _______ _______ _______ _____ _____    ______ ____
ROOT
ATOM      1  C   UNL     1       0.127  11.502  19.293  0.00  0.00    +0.000 A 
ATOM      2  C   UNL     1       0.746  12.599  18.731  0.00  0.00    +0.000 A 
ATOM      3  S   UNL     1      -0.235  13.988  18.913  0.00  0.00    +0.000 S 
ATOM      4  C   UNL     1      -1.430  13.036  19.729  0.00  0.00    +0.000 A 
ATOM      5  N   UNL     1      -2.549  13.664  20.188  0.00  0.00    +0.000 N 
ATOM      6  N   UNL     1      -1.123  11.762  19.843  0.00  0.00    +0.000 NA
ATOM      7  H   UNL     1      -2.549  14.657  19.984  0.00  0.00    +0.000 HD
ENDROOT
BRANCH   5   8
ATOM      8  C   UNL     1      -3.738  13.096  20.520  0.00  0.00    +0.000 A 
ATOM      9  C   UNL     1      -4.738  12.456  19.842  0.00  0.00    +0.000 A 
ATOM     10  C   UNL     1      -5.807  12.351  20.741  0.00  0.00    +0.000 A 
ATOM     11  N   UNL     1      -5.472  12.648  21.987  0.00  0.00    +0.000 NA
ATOM     12  N   UNL     1      -4.140  12.929  21.852  0.00  0.00    +0.000 N 
ATOM     13  C   UNL     1      -6.932  11.580  20.176  0.00  0.00    +0.000 C 
ATOM     14  C   UNL     1      -6.142  10.743  19.121  0.00  0.00    +0.000 C 
ATOM     15  C   UNL     1      -5.020  11.718  18.596  0.00  0.00    +0.000 C 
BRANCH  12  16
ATOM     16  C   UNL     1      -3.239  12.561  22.949  0.00  0.00    +0.000 C 
ATOM     17  C   UNL     1      -2.240  13.673  23.256  0.00  0.00    +0.000 C 
ATOM     18  C   UNL     1      -4.026  12.161  24.206  0.00  0.00    +0.000 C 
ENDBRANCH  12  16
ENDBRANCH   5   8
BRANCH   1  22
ATOM     19  C   UNL     1       1.909   7.634  19.699  0.00  0.00    +0.000 A 
ATOM     20  C   UNL     1       1.245   8.237  20.773  0.00  0.00    +0.000 A 
ATOM     21  C   UNL     1       0.666   9.500  20.614  0.00  0.00    +0.000 A 
ATOM     22  C   UNL     1       0.719  10.174  19.385  0.00  0.00    +0.000 A 
ATOM     23  C   UNL     1       1.363   9.557  18.309  0.00  0.00    +0.000 A 
ATOM     24  C   UNL     1       1.962   8.307  18.473  0.00  0.00    +0.000 A 
ATOM     25  F   UNL     1       2.537   7.750  17.397  0.00  0.00    +0.000 F 
BRANCH  19  29
ATOM     26  C   UNL     1       2.744   2.834  20.803  0.00  0.00    +0.000 C 
ATOM     27  C   UNL     1       2.855   4.240  20.359  0.00  0.00    +0.000 A 
ATOM     28  C   UNL     1       1.972   5.282  20.542  0.00  0.00    +0.000 A 
ATOM     29  N   UNL     1       2.498   6.356  19.856  0.00  0.00    +0.000 N 
ATOM     30  C   UNL     1       3.703   5.919  19.354  0.00  0.00    +0.000 A 
ATOM     31  N   UNL     1       3.942   4.660  19.642  0.00  0.00    +0.000 NA
ENDBRANCH  19  29
ENDBRANCH   1  22
TORSDOF 4
ENDMDL
