MODEL 1
REMARK VINA RESULT:      -7.6      0.000      0.000
REMARK  Name = 
REMARK  12 active torsions:
REMARK  status: ('A' for Active; 'I' for Inactive)
REMARK    1  A    between atoms: C_1  and  O_2
REMARK    2  A    between atoms: O_2  and  C_3
REMARK    3  A    between atoms: C_3  and  C_5
REMARK    4  A    between atoms: C_5  and  C_6
REMARK    5  A    between atoms: C_6  and  C_7
REMARK    6  A    between atoms: C_17  and  C_18
REMARK    7  A    between atoms: C_20  and  O_21
REMARK    8  A    between atoms: O_21  and  C_22
REMARK    9  A    between atoms: C_23  and  O_24
REMARK   10  A    between atoms: O_24  and  C_25
REMARK   11  A    between atoms: C_26  and  O_27
REMARK   12  A    between atoms: O_27  and  C_28
REMARK                            x       y       z     vdW  Elec       q    Type
REMARK                         _______ _______ _______ _____ _____    ______ ____
ROOT
ATOM      1  C   UNL     1       3.122   4.284  18.654  0.00  0.00    +0.000 C 
ATOM      2  C   UNL     1       3.398   3.037  19.512  0.00  0.00    +0.000 C 
ATOM      3  C   UNL     1       3.088   3.469  20.908  0.00  0.00    +0.000 C 
ATOM      4  O   UNL     1       2.985   2.715  21.863  0.00  0.00    +0.000 OA
ATOM      5  O   UNL     1       2.979   4.812  20.994  0.00  0.00    +0.000 OA
ATOM      6  C   UNL     1       3.224   5.408  19.715  0.00  0.00    +0.000 C 
ENDROOT
BRANCH   6   7
ATOM      7  C   UNL     1       2.373   6.657  19.650  0.00  0.00    +0.000 A 
ATOM      8  C   UNL     1       1.500   6.987  20.699  0.00  0.00    +0.000 A 
ATOM      9  C   UNL     1       0.827   8.216  20.714  0.00  0.00    +0.000 A 
ATOM     10  C   UNL     1       1.014   9.131  19.655  0.00  0.00    +0.000 A 
ATOM     11  C   UNL     1       1.792   8.760  18.545  0.00  0.00    +0.000 A 
ATOM     12  C   UNL     1       2.424   7.514  18.545  0.00  0.00    +0.000 A 
BRANCH   9  13
ATOM     13  O   UNL     1      -0.016   8.613  21.725  0.00  0.00    +0.000 OA
ATOM     14  C   UNL     1       0.568   9.295  22.827  0.00  0.00    +0.000 C 
ENDBRANCH   9  13
BRANCH  10  15
ATOM     15  O   UNL     1       0.337  10.325  19.764  0.00  0.00    +0.000 OA
ATOM     16  C   UNL     1      -0.913  10.393  19.083  0.00  0.00    +0.000 C 
ENDBRANCH  10  15
BRANCH  11  17
ATOM     17  O   UNL     1       1.948   9.657  17.524  0.00  0.00    +0.000 OA
ATOM     18  C   UNL     1       2.536  10.916  17.829  0.00  0.00    +0.000 C 
ENDBRANCH  11  17
ENDBRANCH   6   7
BRANCH   1  19
ATOM     19  C   UNL     1       1.821   3.966  17.908  0.00  0.00    +0.000 C 
ATOM     20  O   UNL     1       1.201   4.803  17.261  0.00  0.00    +0.000 OA
BRANCH  19  22
ATOM     21  C   UNL     1       0.420   2.302  18.798  0.00  0.00    +0.000 C 
ATOM     22  O   UNL     1       1.490   2.654  17.908  0.00  0.00    +0.000 OA
ENDBRANCH  19  22
ENDBRANCH   1  19
BRANCH   1  23
ATOM     23  C   UNL     1       4.231   4.429  17.560  0.00  0.00    +0.000 C 
BRANCH  23  24
ATOM     24  C   UNL     1       5.484   5.251  17.839  0.00  0.00    +0.000 A 
ATOM     25  C   UNL     1       6.429   4.942  18.821  0.00  0.00    +0.000 A 
ATOM     26  C   UNL     1       7.567   5.722  19.024  0.00  0.00    +0.000 A 
ATOM     27  C   UNL     1       7.753   6.876  18.276  0.00  0.00    +0.000 A 
ATOM     28  C   UNL     1       6.800   7.247  17.331  0.00  0.00    +0.000 A 
ATOM     29  C   UNL     1       5.680   6.434  17.107  0.00  0.00    +0.000 A 
ENDBRANCH  23  24
ENDBRANCH   1  23
TORSDOF 8
ENDMDL
MODEL 2
REMARK VINA RESULT:      -7.4      2.848      6.366
REMARK  Name = 
REMARK  12 active torsions:
REMARK  status: ('A' for Active; 'I' for Inactive)
REMARK    1  A    between atoms: C_1  and  O_2
REMARK    2  A    between atoms: O_2  and  C_3
REMARK    3  A    between atoms: C_3  and  C_5
REMARK    4  A    between atoms: C_5  and  C_6
REMARK    5  A    between atoms: C_6  and  C_7
REMARK    6  A    between atoms: C_17  and  C_18
REMARK    7  A    between atoms: C_20  and  O_21
REMARK    8  A    between atoms: O_21  and  C_22
REMARK    9  A    between atoms: C_23  and  O_24
REMARK   10  A    between atoms: O_24  and  C_25
REMARK   11  A    between atoms: C_26  and  O_27
REMARK   12  A    between atoms: O_27  and  C_28
REMARK                            x       y       z     vdW  Elec       q    Type
REMARK                         _______ _______ _______ _____ _____    ______ ____
ROOT
ATOM      1  C   UNL     1       3.339   4.664  19.102  0.00  0.00    +0.000 C 
ATOM      2  C   UNL     1       2.057   3.847  19.340  0.00  0.00    +0.000 C 
ATOM      3  C   UNL     1       1.675   3.347  17.986  0.00  0.00    +0.000 C 
ATOM      4  O   UNL     1       0.829   2.493  17.772  0.00  0.00    +0.000 OA
ATOM      5  O   UNL     1       2.355   3.992  17.014  0.00  0.00    +0.000 OA
ATOM      6  C   UNL     1       3.215   4.982  17.590  0.00  0.00    +0.000 C 
ENDROOT
BRANCH   6   7
ATOM      7  C   UNL     1       4.426   5.081  16.688  0.00  0.00    +0.000 A 
ATOM      8  C   UNL     1       5.461   5.985  16.972  0.00  0.00    +0.000 A 
ATOM      9  C   UNL     1       6.650   5.973  16.230  0.00  0.00    +0.000 A 
ATOM     10  C   UNL     1       6.807   5.050  15.173  0.00  0.00    +0.000 A 
ATOM     11  C   UNL     1       5.732   4.223  14.806  0.00  0.00    +0.000 A 
ATOM     12  C   UNL     1       4.547   4.283  15.545  0.00  0.00    +0.000 A 
BRANCH   9  13
ATOM     13  O   UNL     1       7.713   6.808  16.476  0.00  0.00    +0.000 OA
ATOM     14  C   UNL     1       7.523   7.836  17.440  0.00  0.00    +0.000 C 
ENDBRANCH   9  13
BRANCH  10  15
ATOM     15  O   UNL     1       8.017   5.087  14.515  0.00  0.00    +0.000 OA
ATOM     16  C   UNL     1       7.985   5.605  13.188  0.00  0.00    +0.000 C 
ENDBRANCH  10  15
BRANCH  11  17
ATOM     17  O   UNL     1       5.901   3.347  13.770  0.00  0.00    +0.000 OA
ATOM     18  C   UNL     1       5.136   3.558  12.589  0.00  0.00    +0.000 C 
ENDBRANCH  11  17
ENDBRANCH   6   7
BRANCH   1  19
ATOM     19  C   UNL     1       4.466   3.799  19.676  0.00  0.00    +0.000 C 
ATOM     20  O   UNL     1       5.654   4.076  19.543  0.00  0.00    +0.000 OA
BRANCH  19  22
ATOM     21  C   UNL     1       4.899   1.633  20.480  0.00  0.00    +0.000 C 
ATOM     22  O   UNL     1       4.039   2.783  20.461  0.00  0.00    +0.000 OA
ENDBRANCH  19  22
ENDBRANCH   1  19
BRANCH   1  23
ATOM     23  C   UNL     1       3.302   5.969  19.964  0.00  0.00    +0.000 C 
BRANCH  23  24
ATOM     24  C   UNL     1       2.499   7.177  19.498  0.00  0.00    +0.000 A 
ATOM     25  C   UNL     1       2.564   7.721  18.211  0.00  0.00    +0.000 A 
ATOM     26  C   UNL     1       1.794   8.819  17.833  0.00  0.00    +0.000 A 
ATOM     27  C   UNL     1       0.976   9.441  18.766  0.00  0.00    +0.000 A 
ATOM     28  C   UNL     1       0.933   8.964  20.073  0.00  0.00    +0.000 A 
ATOM     29  C   UNL     1       1.681   7.833  20.433  0.00  0.00    +0.000 A 
ENDBRANCH  23  24
ENDBRANCH   1  23
TORSDOF 8
ENDMDL
MODEL 3
REMARK VINA RESULT:      -7.3      0.487      2.194
REMARK  Name = 
REMARK  12 active torsions:
REMARK  status: ('A' for Active; 'I' for Inactive)
REMARK    1  A    between atoms: C_1  and  O_2
REMARK    2  A    between atoms: O_2  and  C_3
REMARK    3  A    between atoms: C_3  and  C_5
REMARK    4  A    between atoms: C_5  and  C_6
REMARK    5  A    between atoms: C_6  and  C_7
REMARK    6  A    between atoms: C_17  and  C_18
REMARK    7  A    between atoms: C_20  and  O_21
REMARK    8  A    between atoms: O_21  and  C_22
REMARK    9  A    between atoms: C_23  and  O_24
REMARK   10  A    between atoms: O_24  and  C_25
REMARK   11  A    between atoms: C_26  and  O_27
REMARK   12  A    between atoms: O_27  and  C_28
REMARK                            x       y       z     vdW  Elec       q    Type
REMARK                         _______ _______ _______ _____ _____    ______ ____
ROOT
ATOM      1  C   UNL     1       2.771   4.389  18.935  0.00  0.00    +0.000 C 
ATOM      2  C   UNL     1       2.949   3.141  19.818  0.00  0.00    +0.000 C 
ATOM      3  C   UNL     1       2.737   3.635  21.211  0.00  0.00    +0.000 C 
ATOM      4  O   UNL     1       2.592   2.919  22.189  0.00  0.00    +0.000 OA
ATOM      5  O   UNL     1       2.771   4.984  21.264  0.00  0.00    +0.000 OA
ATOM      6  C   UNL     1       3.029   5.521  19.962  0.00  0.00    +0.000 C 
ENDROOT
BRANCH   6   7
ATOM      7  C   UNL     1       2.308   6.849  19.891  0.00  0.00    +0.000 A 
ATOM      8  C   UNL     1       2.486   7.705  18.792  0.00  0.00    +0.000 A 
ATOM      9  C   UNL     1       1.706   8.861  18.649  0.00  0.00    +0.000 A 
ATOM     10  C   UNL     1       0.739   9.180  19.626  0.00  0.00    +0.000 A 
ATOM     11  C   UNL     1       0.637   8.394  20.786  0.00  0.00    +0.000 A 
ATOM     12  C   UNL     1       1.452   7.266  20.916  0.00  0.00    +0.000 A 
BRANCH   9  13
ATOM     13  O   UNL     1       1.807   9.723  17.583  0.00  0.00    +0.000 OA
ATOM     14  C   UNL     1       2.435  10.977  17.818  0.00  0.00    +0.000 C 
ENDBRANCH   9  13
BRANCH  10  15
ATOM     15  O   UNL     1      -0.002  10.318  19.392  0.00  0.00    +0.000 OA
ATOM     16  C   UNL     1      -1.263  10.117  18.760  0.00  0.00    +0.000 C 
ENDBRANCH  10  15
BRANCH  11  17
ATOM     17  O   UNL     1      -0.298   8.730  21.727  0.00  0.00    +0.000 OA
ATOM     18  C   UNL     1       0.135   9.480  22.856  0.00  0.00    +0.000 C 
ENDBRANCH  11  17
ENDBRANCH   6   7
BRANCH   1  19
ATOM     19  C   UNL     1       1.418   4.190  18.244  0.00  0.00    +0.000 C 
ATOM     20  O   UNL     1       1.202   4.537  17.087  0.00  0.00    +0.000 OA
BRANCH  19  22
ATOM     21  C   UNL     1       0.467   2.077  18.637  0.00  0.00    +0.000 C 
ATOM     22  O   UNL     1       0.527   3.474  18.967  0.00  0.00    +0.000 OA
ENDBRANCH  19  22
ENDBRANCH   1  19
BRANCH   1  23
ATOM     23  C   UNL     1       3.849   4.391  17.801  0.00  0.00    +0.000 C 
BRANCH  23  24
ATOM     24  C   UNL     1       5.145   5.173  17.973  0.00  0.00    +0.000 A 
ATOM     25  C   UNL     1       6.099   4.914  18.962  0.00  0.00    +0.000 A 
ATOM     26  C   UNL     1       7.277   5.653  19.064  0.00  0.00    +0.000 A 
ATOM     27  C   UNL     1       7.499   6.719  18.204  0.00  0.00    +0.000 A 
ATOM     28  C   UNL     1       6.542   7.044  17.246  0.00  0.00    +0.000 A 
ATOM     29  C   UNL     1       5.379   6.269  17.125  0.00  0.00    +0.000 A 
ENDBRANCH  23  24
ENDBRANCH   1  23
TORSDOF 8
ENDMDL
MODEL 4
REMARK VINA RESULT:      -7.2      2.855      6.518
REMARK  Name = 
REMARK  12 active torsions:
REMARK  status: ('A' for Active; 'I' for Inactive)
REMARK    1  A    between atoms: C_1  and  O_2
REMARK    2  A    between atoms: O_2  and  C_3
REMARK    3  A    between atoms: C_3  and  C_5
REMARK    4  A    between atoms: C_5  and  C_6
REMARK    5  A    between atoms: C_6  and  C_7
REMARK    6  A    between atoms: C_17  and  C_18
REMARK    7  A    between atoms: C_20  and  O_21
REMARK    8  A    between atoms: O_21  and  C_22
REMARK    9  A    between atoms: C_23  and  O_24
REMARK   10  A    between atoms: O_24  and  C_25
REMARK   11  A    between atoms: C_26  and  O_27
REMARK   12  A    between atoms: O_27  and  C_28
REMARK                            x       y       z     vdW  Elec       q    Type
REMARK                         _______ _______ _______ _____ _____    ______ ____
ROOT
ATOM      1  C   UNL     1       3.349   4.956  19.141  0.00  0.00    +0.000 C 
ATOM      2  C   UNL     1       1.993   4.252  19.322  0.00  0.00    +0.000 C 
ATOM      3  C   UNL     1       1.704   3.649  17.986  0.00  0.00    +0.000 C 
ATOM      4  O   UNL     1       0.821   2.835  17.766  0.00  0.00    +0.000 OA
ATOM      5  O   UNL     1       2.519   4.152  17.034  0.00  0.00    +0.000 OA
ATOM      6  C   UNL     1       3.392   5.134  17.602  0.00  0.00    +0.000 C 
ENDROOT
BRANCH   6   7
ATOM      7  C   UNL     1       4.686   5.066  16.820  0.00  0.00    +0.000 A 
ATOM      8  C   UNL     1       4.857   4.124  15.794  0.00  0.00    +0.000 A 
ATOM      9  C   UNL     1       5.988   4.158  14.968  0.00  0.00    +0.000 A 
ATOM     10  C   UNL     1       6.978   5.143  15.175  0.00  0.00    +0.000 A 
ATOM     11  C   UNL     1       6.872   6.015  16.272  0.00  0.00    +0.000 A 
ATOM     12  C   UNL     1       5.748   5.934  17.098  0.00  0.00    +0.000 A 
BRANCH   9  13
ATOM     13  O   UNL     1       6.201   3.286  13.928  0.00  0.00    +0.000 OA
ATOM     14  C   UNL     1       5.390   3.444  12.770  0.00  0.00    +0.000 C 
ENDBRANCH   9  13
BRANCH  10  15
ATOM     15  O   UNL     1       8.042   5.122  14.301  0.00  0.00    +0.000 OA
ATOM     16  C   UNL     1       7.844   5.806  13.067  0.00  0.00    +0.000 C 
ENDBRANCH  10  15
BRANCH  11  17
ATOM     17  O   UNL     1       7.851   6.952  16.463  0.00  0.00    +0.000 OA
ATOM     18  C   UNL     1       7.733   7.817  17.586  0.00  0.00    +0.000 C 
ENDBRANCH  11  17
ENDBRANCH   6   7
BRANCH   1  19
ATOM     19  C   UNL     1       4.350   4.079  19.901  0.00  0.00    +0.000 C 
ATOM     20  O   UNL     1       5.502   4.430  20.135  0.00  0.00    +0.000 OA
BRANCH  19  22
ATOM     21  C   UNL     1       4.454   1.733  19.991  0.00  0.00    +0.000 C 
ATOM     22  O   UNL     1       3.815   2.947  20.414  0.00  0.00    +0.000 OA
ENDBRANCH  19  22
ENDBRANCH   1  19
BRANCH   1  23
ATOM     23  C   UNL     1       3.329   6.338  19.875  0.00  0.00    +0.000 C 
BRANCH  23  24
ATOM     24  C   UNL     1       2.462   7.476  19.349  0.00  0.00    +0.000 A 
ATOM     25  C   UNL     1       2.498   7.955  18.036  0.00  0.00    +0.000 A 
ATOM     26  C   UNL     1       1.670   8.990  17.604  0.00  0.00    +0.000 A 
ATOM     27  C   UNL     1       0.819   9.614  18.505  0.00  0.00    +0.000 A 
ATOM     28  C   UNL     1       0.802   9.203  19.835  0.00  0.00    +0.000 A 
ATOM     29  C   UNL     1       1.609   8.134  20.250  0.00  0.00    +0.000 A 
ENDBRANCH  23  24
ENDBRANCH   1  23
TORSDOF 8
ENDMDL
MODEL 5
REMARK VINA RESULT:      -7.1      2.874      4.299
REMARK  Name = 
REMARK  12 active torsions:
REMARK  status: ('A' for Active; 'I' for Inactive)
REMARK    1  A    between atoms: C_1  and  O_2
REMARK    2  A    between atoms: O_2  and  C_3
REMARK    3  A    between atoms: C_3  and  C_5
REMARK    4  A    between atoms: C_5  and  C_6
REMARK    5  A    between atoms: C_6  and  C_7
REMARK    6  A    between atoms: C_17  and  C_18
REMARK    7  A    between atoms: C_20  and  O_21
REMARK    8  A    between atoms: O_21  and  C_22
REMARK    9  A    between atoms: C_23  and  O_24
REMARK   10  A    between atoms: O_24  and  C_25
REMARK   11  A    between atoms: C_26  and  O_27
REMARK   12  A    between atoms: O_27  and  C_28
REMARK                            x       y       z     vdW  Elec       q    Type
REMARK                         _______ _______ _______ _____ _____    ______ ____
ROOT
ATOM      1  C   UNL     1       5.569   5.295  17.073  0.00  0.00    +0.000 C 
ATOM      2  C   UNL     1       7.024   5.709  16.791  0.00  0.00    +0.000 C 
ATOM      3  C   UNL     1       7.080   7.154  17.163  0.00  0.00    +0.000 C 
ATOM      4  O   UNL     1       8.107   7.805  17.278  0.00  0.00    +0.000 OA
ATOM      5  O   UNL     1       5.842   7.671  17.314  0.00  0.00    +0.000 OA
ATOM      6  C   UNL     1       4.855   6.670  17.041  0.00  0.00    +0.000 C 
ENDROOT
BRANCH   6   7
ATOM      7  C   UNL     1       3.668   6.980  17.926  0.00  0.00    +0.000 A 
ATOM      8  C   UNL     1       3.296   6.107  18.961  0.00  0.00    +0.000 A 
ATOM      9  C   UNL     1       2.298   6.463  19.878  0.00  0.00    +0.000 A 
ATOM     10  C   UNL     1       1.645   7.709  19.755  0.00  0.00    +0.000 A 
ATOM     11  C   UNL     1       1.927   8.536  18.655  0.00  0.00    +0.000 A 
ATOM     12  C   UNL     1       2.905   8.138  17.738  0.00  0.00    +0.000 A 
BRANCH   9  13
ATOM     13  O   UNL     1       1.909   5.670  20.931  0.00  0.00    +0.000 OA
ATOM     14  C   UNL     1       1.287   4.431  20.616  0.00  0.00    +0.000 C 
ENDBRANCH   9  13
BRANCH  10  15
ATOM     15  O   UNL     1       0.697   7.991  20.714  0.00  0.00    +0.000 OA
ATOM     16  C   UNL     1       1.131   8.819  21.789  0.00  0.00    +0.000 C 
ENDBRANCH  10  15
BRANCH  11  17
ATOM     17  O   UNL     1       1.273   9.733  18.547  0.00  0.00    +0.000 OA
ATOM     18  C   UNL     1       2.045  10.888  18.242  0.00  0.00    +0.000 C 
ENDBRANCH  11  17
ENDBRANCH   6   7
BRANCH   1  19
ATOM     19  C   UNL     1       5.646   4.431  18.336  0.00  0.00    +0.000 C 
ATOM     20  O   UNL     1       6.294   4.754  19.327  0.00  0.00    +0.000 OA
BRANCH  19  22
ATOM     21  C   UNL     1       4.486   2.838  19.617  0.00  0.00    +0.000 C 
ATOM     22  O   UNL     1       4.827   3.354  18.321  0.00  0.00    +0.000 OA
ENDBRANCH  19  22
ENDBRANCH   1  19
BRANCH   1  23
ATOM     23  C   UNL     1       5.055   4.358  15.929  0.00  0.00    +0.000 C 
BRANCH  23  24
ATOM     24  C   UNL     1       5.789   4.299  14.595  0.00  0.00    +0.000 A 
ATOM     25  C   UNL     1       6.951   5.020  14.300  0.00  0.00    +0.000 A 
ATOM     26  C   UNL     1       7.591   4.917  13.066  0.00  0.00    +0.000 A 
ATOM     27  C   UNL     1       7.041   4.124  12.068  0.00  0.00    +0.000 A 
ATOM     28  C   UNL     1       5.852   3.440  12.308  0.00  0.00    +0.000 A 
ATOM     29  C   UNL     1       5.238   3.519  13.566  0.00  0.00    +0.000 A 
ENDBRANCH  23  24
ENDBRANCH   1  23
TORSDOF 8
ENDMDL
MODEL 6
REMARK VINA RESULT:      -7.1      0.468      1.011
REMARK  Name = 
REMARK  12 active torsions:
REMARK  status: ('A' for Active; 'I' for Inactive)
REMARK    1  A    between atoms: C_1  and  O_2
REMARK    2  A    between atoms: O_2  and  C_3
REMARK    3  A    between atoms: C_3  and  C_5
REMARK    4  A    between atoms: C_5  and  C_6
REMARK    5  A    between atoms: C_6  and  C_7
REMARK    6  A    between atoms: C_17  and  C_18
REMARK    7  A    between atoms: C_20  and  O_21
REMARK    8  A    between atoms: O_21  and  C_22
REMARK    9  A    between atoms: C_23  and  O_24
REMARK   10  A    between atoms: O_24  and  C_25
REMARK   11  A    between atoms: C_26  and  O_27
REMARK   12  A    between atoms: O_27  and  C_28
REMARK                            x       y       z     vdW  Elec       q    Type
REMARK                         _______ _______ _______ _____ _____    ______ ____
ROOT
ATOM      1  C   UNL     1       3.094   4.370  18.611  0.00  0.00    +0.000 C 
ATOM      2  C   UNL     1       3.396   3.126  19.465  0.00  0.00    +0.000 C 
ATOM      3  C   UNL     1       3.107   3.555  20.866  0.00  0.00    +0.000 C 
ATOM      4  O   UNL     1       3.027   2.801  21.823  0.00  0.00    +0.000 OA
ATOM      5  O   UNL     1       2.989   4.898  20.953  0.00  0.00    +0.000 OA
ATOM      6  C   UNL     1       3.206   5.495  19.670  0.00  0.00    +0.000 C 
ENDROOT
BRANCH   6   7
ATOM      7  C   UNL     1       2.343   6.736  19.619  0.00  0.00    +0.000 A 
ATOM      8  C   UNL     1       1.485   7.059  20.682  0.00  0.00    +0.000 A 
ATOM      9  C   UNL     1       0.801   8.282  20.709  0.00  0.00    +0.000 A 
ATOM     10  C   UNL     1       0.964   9.199  19.648  0.00  0.00    +0.000 A 
ATOM     11  C   UNL     1       1.727   8.835  18.525  0.00  0.00    +0.000 A 
ATOM     12  C   UNL     1       2.369   7.594  18.514  0.00  0.00    +0.000 A 
BRANCH   9  13
ATOM     13  O   UNL     1      -0.027   8.672  21.734  0.00  0.00    +0.000 OA
ATOM     14  C   UNL     1       0.588   9.185  22.908  0.00  0.00    +0.000 C 
ENDBRANCH   9  13
BRANCH  10  15
ATOM     15  O   UNL     1       0.278  10.388  19.768  0.00  0.00    +0.000 OA
ATOM     16  C   UNL     1       0.994  11.457  20.379  0.00  0.00    +0.000 C 
ENDBRANCH  10  15
BRANCH  11  17
ATOM     17  O   UNL     1       1.859   9.734  17.502  0.00  0.00    +0.000 OA
ATOM     18  C   UNL     1       2.707  10.857  17.709  0.00  0.00    +0.000 C 
ENDBRANCH  11  17
ENDBRANCH   6   7
BRANCH   1  19
ATOM     19  C   UNL     1       1.783   4.040  17.889  0.00  0.00    +0.000 C 
ATOM     20  O   UNL     1       1.152   4.868  17.240  0.00  0.00    +0.000 OA
BRANCH  19  22
ATOM     21  C   UNL     1       0.388   2.388  18.810  0.00  0.00    +0.000 C 
ATOM     22  O   UNL     1       1.454   2.728  17.910  0.00  0.00    +0.000 OA
ENDBRANCH  19  22
ENDBRANCH   1  19
BRANCH   1  23
ATOM     23  C   UNL     1       4.183   4.523  17.497  0.00  0.00    +0.000 C 
BRANCH  23  24
ATOM     24  C   UNL     1       5.417   5.382  17.742  0.00  0.00    +0.000 A 
ATOM     25  C   UNL     1       5.660   6.612  17.122  0.00  0.00    +0.000 A 
ATOM     26  C   UNL     1       6.801   7.365  17.395  0.00  0.00    +0.000 A 
ATOM     27  C   UNL     1       7.764   6.868  18.261  0.00  0.00    +0.000 A 
ATOM     28  C   UNL     1       7.584   5.618  18.849  0.00  0.00    +0.000 A 
ATOM     29  C   UNL     1       6.414   4.887  18.599  0.00  0.00    +0.000 A 
ENDBRANCH  23  24
ENDBRANCH   1  23
TORSDOF 8
ENDMDL
MODEL 7
REMARK VINA RESULT:      -7.0      1.888      4.920
REMARK  Name = 
REMARK  12 active torsions:
REMARK  status: ('A' for Active; 'I' for Inactive)
REMARK    1  A    between atoms: C_1  and  O_2
REMARK    2  A    between atoms: O_2  and  C_3
REMARK    3  A    between atoms: C_3  and  C_5
REMARK    4  A    between atoms: C_5  and  C_6
REMARK    5  A    between atoms: C_6  and  C_7
REMARK    6  A    between atoms: C_17  and  C_18
REMARK    7  A    between atoms: C_20  and  O_21
REMARK    8  A    between atoms: O_21  and  C_22
REMARK    9  A    between atoms: C_23  and  O_24
REMARK   10  A    between atoms: O_24  and  C_25
REMARK   11  A    between atoms: C_26  and  O_27
REMARK   12  A    between atoms: O_27  and  C_28
REMARK                            x       y       z     vdW  Elec       q    Type
REMARK                         _______ _______ _______ _____ _____    ______ ____
ROOT
ATOM      1  C   UNL     1       5.087   4.878  18.260  0.00  0.00    +0.000 C 
ATOM      2  C   UNL     1       5.797   4.361  16.996  0.00  0.00    +0.000 C 
ATOM      3  C   UNL     1       5.200   5.154  15.881  0.00  0.00    +0.000 C 
ATOM      4  O   UNL     1       5.636   5.190  14.741  0.00  0.00    +0.000 OA
ATOM      5  O   UNL     1       4.082   5.798  16.280  0.00  0.00    +0.000 OA
ATOM      6  C   UNL     1       3.802   5.493  17.651  0.00  0.00    +0.000 C 
ENDROOT
BRANCH   6   7
ATOM      7  C   UNL     1       3.140   6.720  18.239  0.00  0.00    +0.000 A 
ATOM      8  C   UNL     1       3.025   7.903  17.492  0.00  0.00    +0.000 A 
ATOM      9  C   UNL     1       2.279   8.987  17.973  0.00  0.00    +0.000 A 
ATOM     10  C   UNL     1       1.646   8.899  19.232  0.00  0.00    +0.000 A 
ATOM     11  C   UNL     1       1.854   7.766  20.037  0.00  0.00    +0.000 A 
ATOM     12  C   UNL     1       2.630   6.715  19.543  0.00  0.00    +0.000 A 
BRANCH   9  13
ATOM     13  O   UNL     1       2.101  10.160  17.279  0.00  0.00    +0.000 OA
ATOM     14  C   UNL     1       2.675  11.337  17.833  0.00  0.00    +0.000 C 
ENDBRANCH   9  13
BRANCH  10  15
ATOM     15  O   UNL     1       0.911   9.999  19.616  0.00  0.00    +0.000 OA
ATOM     16  C   UNL     1      -0.475   9.963  19.289  0.00  0.00    +0.000 C 
ENDBRANCH  10  15
BRANCH  11  17
ATOM     17  O   UNL     1       1.242   7.708  21.260  0.00  0.00    +0.000 OA
ATOM     18  C   UNL     1       1.489   8.767  22.177  0.00  0.00    +0.000 C 
ENDBRANCH  11  17
ENDBRANCH   6   7
BRANCH   1  19
ATOM     19  C   UNL     1       6.143   5.718  18.986  0.00  0.00    +0.000 C 
ATOM     20  O   UNL     1       6.697   5.349  20.017  0.00  0.00    +0.000 OA
BRANCH  19  22
ATOM     21  C   UNL     1       7.931   7.075  18.290  0.00  0.00    +0.000 C 
ATOM     22  O   UNL     1       6.516   6.835  18.320  0.00  0.00    +0.000 OA
ENDBRANCH  19  22
ENDBRANCH   1  19
BRANCH   1  23
ATOM     23  C   UNL     1       4.752   3.678  19.206  0.00  0.00    +0.000 C 
BRANCH  23  24
ATOM     24  C   UNL     1       3.302   3.296  19.481  0.00  0.00    +0.000 A 
ATOM     25  C   UNL     1       2.669   3.435  20.720  0.00  0.00    +0.000 A 
ATOM     26  C   UNL     1       1.334   3.083  20.911  0.00  0.00    +0.000 A 
ATOM     27  C   UNL     1       0.613   2.522  19.867  0.00  0.00    +0.000 A 
ATOM     28  C   UNL     1       1.230   2.313  18.636  0.00  0.00    +0.000 A 
ATOM     29  C   UNL     1       2.561   2.707  18.443  0.00  0.00    +0.000 A 
ENDBRANCH  23  24
ENDBRANCH   1  23
TORSDOF 8
ENDMDL
MODEL 8
REMARK VINA RESULT:      -6.9      2.828      3.839
REMARK  Name = 
REMARK  12 active torsions:
REMARK  status: ('A' for Active; 'I' for Inactive)
REMARK    1  A    between atoms: C_1  and  O_2
REMARK    2  A    between atoms: O_2  and  C_3
REMARK    3  A    between atoms: C_3  and  C_5
REMARK    4  A    between atoms: C_5  and  C_6
REMARK    5  A    between atoms: C_6  and  C_7
REMARK    6  A    between atoms: C_17  and  C_18
REMARK    7  A    between atoms: C_20  and  O_21
REMARK    8  A    between atoms: O_21  and  C_22
REMARK    9  A    between atoms: C_23  and  O_24
REMARK   10  A    between atoms: O_24  and  C_25
REMARK   11  A    between atoms: C_26  and  O_27
REMARK   12  A    between atoms: O_27  and  C_28
REMARK                            x       y       z     vdW  Elec       q    Type
REMARK                         _______ _______ _______ _____ _____    ______ ____
ROOT
ATOM      1  C   UNL     1       5.113   4.659  16.954  0.00  0.00    +0.000 C 
ATOM      2  C   UNL     1       6.630   4.455  17.118  0.00  0.00    +0.000 C 
ATOM      3  C   UNL     1       7.073   5.608  17.958  0.00  0.00    +0.000 C 
ATOM      4  O   UNL     1       8.171   5.705  18.483  0.00  0.00    +0.000 OA
ATOM      5  O   UNL     1       6.117   6.559  18.030  0.00  0.00    +0.000 OA
ATOM      6  C   UNL     1       4.980   6.174  17.249  0.00  0.00    +0.000 C 
ENDROOT
BRANCH   6   7
ATOM      7  C   UNL     1       3.765   6.756  17.937  0.00  0.00    +0.000 A 
ATOM      8  C   UNL     1       3.221   6.140  19.075  0.00  0.00    +0.000 A 
ATOM      9  C   UNL     1       2.195   6.757  19.805  0.00  0.00    +0.000 A 
ATOM     10  C   UNL     1       1.691   8.007  19.385  0.00  0.00    +0.000 A 
ATOM     11  C   UNL     1       2.147   8.573  18.183  0.00  0.00    +0.000 A 
ATOM     12  C   UNL     1       3.147   7.917  17.460  0.00  0.00    +0.000 A 
BRANCH   9  13
ATOM     13  O   UNL     1       1.641   6.224  20.944  0.00  0.00    +0.000 OA
ATOM     14  C   UNL     1       1.807   4.827  21.156  0.00  0.00    +0.000 C 
ENDBRANCH   9  13
BRANCH  10  15
ATOM     15  O   UNL     1       0.704   8.554  20.176  0.00  0.00    +0.000 OA
ATOM     16  C   UNL     1       1.152   9.408  21.225  0.00  0.00    +0.000 C 
ENDBRANCH  10  15
BRANCH  11  17
ATOM     17  O   UNL     1       1.633   9.778  17.789  0.00  0.00    +0.000 OA
ATOM     18  C   UNL     1       2.373  10.952  18.105  0.00  0.00    +0.000 C 
ENDBRANCH  11  17
ENDBRANCH   6   7
BRANCH   1  19
ATOM     19  C   UNL     1       4.477   3.584  17.843  0.00  0.00    +0.000 C 
ATOM     20  O   UNL     1       3.528   2.896  17.481  0.00  0.00    +0.000 OA
BRANCH  19  22
ATOM     21  C   UNL     1       4.465   2.486  19.920  0.00  0.00    +0.000 C 
ATOM     22  O   UNL     1       5.137   3.361  19.002  0.00  0.00    +0.000 OA
ENDBRANCH  19  22
ENDBRANCH   1  19
BRANCH   1  23
ATOM     23  C   UNL     1       4.690   4.323  15.486  0.00  0.00    +0.000 C 
BRANCH  23  24
ATOM     24  C   UNL     1       5.719   4.362  14.362  0.00  0.00    +0.000 A 
ATOM     25  C   UNL     1       6.819   5.224  14.326  0.00  0.00    +0.000 A 
ATOM     26  C   UNL     1       7.738   5.207  13.279  0.00  0.00    +0.000 A 
ATOM     27  C   UNL     1       7.540   4.355  12.202  0.00  0.00    +0.000 A 
ATOM     28  C   UNL     1       6.421   3.525  12.175  0.00  0.00    +0.000 A 
ATOM     29  C   UNL     1       5.525   3.522  13.252  0.00  0.00    +0.000 A 
ENDBRANCH  23  24
ENDBRANCH   1  23
TORSDOF 8
ENDMDL
MODEL 9
REMARK VINA RESULT:      -6.8      2.994      5.574
REMARK  Name = 
REMARK  12 active torsions:
REMARK  status: ('A' for Active; 'I' for Inactive)
REMARK    1  A    between atoms: C_1  and  O_2
REMARK    2  A    between atoms: O_2  and  C_3
REMARK    3  A    between atoms: C_3  and  C_5
REMARK    4  A    between atoms: C_5  and  C_6
REMARK    5  A    between atoms: C_6  and  C_7
REMARK    6  A    between atoms: C_17  and  C_18
REMARK    7  A    between atoms: C_20  and  O_21
REMARK    8  A    between atoms: O_21  and  C_22
REMARK    9  A    between atoms: C_23  and  O_24
REMARK   10  A    between atoms: O_24  and  C_25
REMARK   11  A    between atoms: C_26  and  O_27
REMARK   12  A    between atoms: O_27  and  C_28
REMARK                            x       y       z     vdW  Elec       q    Type
REMARK                         _______ _______ _______ _____ _____    ______ ____
ROOT
ATOM      1  C   UNL     1       6.166   5.069  17.059  0.00  0.00    +0.000 C 
ATOM      2  C   UNL     1       7.137   6.215  16.725  0.00  0.00    +0.000 C 
ATOM      3  C   UNL     1       6.349   7.458  16.978  0.00  0.00    +0.000 C 
ATOM      4  O   UNL     1       6.821   8.584  17.026  0.00  0.00    +0.000 OA
ATOM      5  O   UNL     1       5.032   7.188  17.104  0.00  0.00    +0.000 OA
ATOM      6  C   UNL     1       4.799   5.787  16.926  0.00  0.00    +0.000 C 
ENDROOT
BRANCH   6   7
ATOM      7  C   UNL     1       3.615   5.431  17.799  0.00  0.00    +0.000 A 
ATOM      8  C   UNL     1       2.946   4.208  17.639  0.00  0.00    +0.000 A 
ATOM      9  C   UNL     1       1.953   3.808  18.543  0.00  0.00    +0.000 A 
ATOM     10  C   UNL     1       1.607   4.651  19.622  0.00  0.00    +0.000 A 
ATOM     11  C   UNL     1       2.187   5.926  19.722  0.00  0.00    +0.000 A 
ATOM     12  C   UNL     1       3.151   6.309  18.785  0.00  0.00    +0.000 A 
BRANCH   9  13
ATOM     13  O   UNL     1       1.282   2.611  18.462  0.00  0.00    +0.000 OA
ATOM     14  C   UNL     1       2.068   1.426  18.437  0.00  0.00    +0.000 C 
ENDBRANCH   9  13
BRANCH  10  15
ATOM     15  O   UNL     1       0.641   4.168  20.478  0.00  0.00    +0.000 OA
ATOM     16  C   UNL     1       1.089   3.234  21.456  0.00  0.00    +0.000 C 
ENDBRANCH  10  15
BRANCH  11  17
ATOM     17  O   UNL     1       1.826   6.732  20.767  0.00  0.00    +0.000 OA
ATOM     18  C   UNL     1       1.569   8.104  20.491  0.00  0.00    +0.000 C 
ENDBRANCH  11  17
ENDBRANCH   6   7
BRANCH   1  19
ATOM     19  C   UNL     1       6.675   4.499  18.388  0.00  0.00    +0.000 C 
ATOM     20  O   UNL     1       6.003   3.759  19.098  0.00  0.00    +0.000 OA
BRANCH  19  22
ATOM     21  C   UNL     1       8.213   5.557  19.816  0.00  0.00    +0.000 C 
ATOM     22  O   UNL     1       7.977   4.766  18.641  0.00  0.00    +0.000 OA
ENDBRANCH  19  22
ENDBRANCH   1  19
BRANCH   1  23
ATOM     23  C   UNL     1       6.315   3.925  16.003  0.00  0.00    +0.000 C 
BRANCH  23  24
ATOM     24  C   UNL     1       6.703   4.251  14.566  0.00  0.00    +0.000 A 
ATOM     25  C   UNL     1       7.630   5.232  14.200  0.00  0.00    +0.000 A 
ATOM     26  C   UNL     1       7.959   5.479  12.868  0.00  0.00    +0.000 A 
ATOM     27  C   UNL     1       7.313   4.779  11.858  0.00  0.00    +0.000 A 
ATOM     28  C   UNL     1       6.340   3.838  12.183  0.00  0.00    +0.000 A 
ATOM     29  C   UNL     1       6.046   3.569  13.528  0.00  0.00    +0.000 A 
ENDBRANCH  23  24
ENDBRANCH   1  23
TORSDOF 8
ENDMDL
