MODEL 1
REMARK VINA RESULT:      -7.5      0.000      0.000
REMARK  Name = 
REMARK  10 active torsions:
REMARK  status: ('A' for Active; 'I' for Inactive)
REMARK    1  A    between atoms: C_1  and  O_2
REMARK    2  A    between atoms: O_2  and  C_3
REMARK    3  A    between atoms: C_7  and  O_8
REMARK    4  A    between atoms: O_8  and  C_9
REMARK    5  A    between atoms: C_10  and  C_11
REMARK    6  A    between atoms: N_13  and  C_14
REMARK    7  A    between atoms: C_18  and  C_19
REMARK    8  A    between atoms: N_21  and  C_22
REMARK    9  A    between atoms: C_22  and  C_23
REMARK   10  A    between atoms: C_28  and  C_29
REMARK                            x       y       z     vdW  Elec       q    Type
REMARK                         _______ _______ _______ _____ _____    ______ ____
ROOT
ATOM      1  C   UNL     1       2.830   3.255  18.419  0.00  0.00    +0.000 A 
ATOM      2  C   UNL     1       2.419   2.099  17.803  0.00  0.00    +0.000 A 
ATOM      3  N   UNL     1       1.398   1.602  18.550  0.00  0.00    +0.000 N 
ATOM      4  N   UNL     1       1.116   2.332  19.642  0.00  0.00    +0.000 NA
ATOM      5  C   UNL     1       1.981   3.369  19.568  0.00  0.00    +0.000 A 
ATOM      6  H   UNL     1       0.853   0.765  18.372  0.00  0.00    +0.000 HD
ENDROOT
BRANCH   1   9
ATOM      7  C   UNL     1       5.152   4.101  18.523  0.00  0.00    +0.000 C 
ATOM      8  O   UNL     1       5.539   3.265  19.332  0.00  0.00    +0.000 OA
ATOM      9  N   UNL     1       3.855   4.112  18.030  0.00  0.00    +0.000 N 
ATOM     10  H   UNL     1       3.602   4.819  17.340  0.00  0.00    +0.000 HD
BRANCH   7  16
ATOM     11  C   UNL     1       5.980   5.730  16.718  0.00  0.00    +0.000 A 
ATOM     12  C   UNL     1       6.790   6.806  16.317  0.00  0.00    +0.000 A 
ATOM     13  C   UNL     1       7.723   7.355  17.187  0.00  0.00    +0.000 A 
ATOM     14  C   UNL     1       7.867   6.821  18.461  0.00  0.00    +0.000 A 
ATOM     15  C   UNL     1       7.080   5.738  18.888  0.00  0.00    +0.000 A 
ATOM     16  C   UNL     1       6.104   5.176  18.026  0.00  0.00    +0.000 A 
BRANCH  11  18
ATOM     17  C   UNL     1       5.503   4.527  14.690  0.00  0.00    +0.000 C 
ATOM     18  O   UNL     1       5.047   5.183  15.869  0.00  0.00    +0.000 OA
ENDBRANCH  11  18
BRANCH  15  19
ATOM     19  O   UNL     1       7.264   5.465  20.222  0.00  0.00    +0.000 OA
ATOM     20  C   UNL     1       8.596   5.163  20.634  0.00  0.00    +0.000 C 
ENDBRANCH  15  19
ENDBRANCH   7  16
ENDBRANCH   1   9
BRANCH   5  21
ATOM     21  C   UNL     1       1.991   4.447  20.567  0.00  0.00    +0.000 C 
ATOM     22  O   UNL     1       2.228   4.240  21.757  0.00  0.00    +0.000 OA
ATOM     23  N   UNL     1       1.702   5.699  20.079  0.00  0.00    +0.000 N 
ATOM     24  H   UNL     1       1.606   5.813  19.073  0.00  0.00    +0.000 HD
BRANCH  23  25
ATOM     25  C   UNL     1       1.724   6.876  20.919  0.00  0.00    +0.000 C 
BRANCH  25  26
ATOM     26  C   UNL     1       1.466   8.162  20.157  0.00  0.00    +0.000 A 
ATOM     27  N   UNL     1       2.022   8.252  18.916  0.00  0.00    +0.000 NA
ATOM     28  C   UNL     1       1.819   9.388  18.214  0.00  0.00    +0.000 A 
ATOM     29  C   UNL     1       1.071  10.454  18.674  0.00  0.00    +0.000 A 
ATOM     30  C   UNL     1       0.522  10.364  19.946  0.00  0.00    +0.000 A 
ATOM     31  C   UNL     1       0.739   9.220  20.727  0.00  0.00    +0.000 A 
ATOM     32  C   UNL     1       0.153   9.160  22.108  0.00  0.00    +0.000 C 
ENDBRANCH  25  26
ENDBRANCH  23  25
ENDBRANCH   5  21
TORSDOF 7
ENDMDL
MODEL 2
REMARK VINA RESULT:      -7.4      3.579      7.012
REMARK  Name = 
REMARK  10 active torsions:
REMARK  status: ('A' for Active; 'I' for Inactive)
REMARK    1  A    between atoms: C_1  and  O_2
REMARK    2  A    between atoms: O_2  and  C_3
REMARK    3  A    between atoms: C_7  and  O_8
REMARK    4  A    between atoms: O_8  and  C_9
REMARK    5  A    between atoms: C_10  and  C_11
REMARK    6  A    between atoms: N_13  and  C_14
REMARK    7  A    between atoms: C_18  and  C_19
REMARK    8  A    between atoms: N_21  and  C_22
REMARK    9  A    between atoms: C_22  and  C_23
REMARK   10  A    between atoms: C_28  and  C_29
REMARK                            x       y       z     vdW  Elec       q    Type
REMARK                         _______ _______ _______ _____ _____    ______ ____
ROOT
ATOM      1  C   UNL     1       5.553   6.404  16.816  0.00  0.00    +0.000 A 
ATOM      2  C   UNL     1       5.332   5.730  15.642  0.00  0.00    +0.000 A 
ATOM      3  N   UNL     1       6.552   5.515  15.081  0.00  0.00    +0.000 N 
ATOM      4  N   UNL     1       7.574   6.027  15.787  0.00  0.00    +0.000 NA
ATOM      5  C   UNL     1       6.975   6.567  16.874  0.00  0.00    +0.000 A 
ATOM      6  H   UNL     1       6.757   5.029  14.215  0.00  0.00    +0.000 HD
ENDROOT
BRANCH   1   9
ATOM      7  C   UNL     1       3.421   6.210  18.056  0.00  0.00    +0.000 C 
ATOM      8  O   UNL     1       3.117   5.118  17.584  0.00  0.00    +0.000 OA
ATOM      9  N   UNL     1       4.607   6.853  17.734  0.00  0.00    +0.000 N 
ATOM     10  H   UNL     1       4.813   7.747  18.180  0.00  0.00    +0.000 HD
BRANCH   7  16
ATOM     11  C   UNL     1       2.066   6.274  20.236  0.00  0.00    +0.000 A 
ATOM     12  C   UNL     1       1.297   6.975  21.181  0.00  0.00    +0.000 A 
ATOM     13  C   UNL     1       0.933   8.296  20.960  0.00  0.00    +0.000 A 
ATOM     14  C   UNL     1       1.320   8.924  19.784  0.00  0.00    +0.000 A 
ATOM     15  C   UNL     1       2.079   8.248  18.814  0.00  0.00    +0.000 A 
ATOM     16  C   UNL     1       2.483   6.905  19.028  0.00  0.00    +0.000 A 
BRANCH  11  18
ATOM     17  C   UNL     1       1.422   3.975  20.529  0.00  0.00    +0.000 C 
ATOM     18  O   UNL     1       2.440   4.968  20.447  0.00  0.00    +0.000 OA
ENDBRANCH  11  18
BRANCH  15  19
ATOM     19  O   UNL     1       2.488   9.087  17.806  0.00  0.00    +0.000 OA
ATOM     20  C   UNL     1       1.960  10.411  17.823  0.00  0.00    +0.000 C 
ENDBRANCH  15  19
ENDBRANCH   7  16
ENDBRANCH   1   9
BRANCH   5  21
ATOM     21  C   UNL     1       7.745   7.213  17.946  0.00  0.00    +0.000 C 
ATOM     22  O   UNL     1       8.131   6.599  18.940  0.00  0.00    +0.000 OA
ATOM     23  N   UNL     1       7.991   8.553  17.765  0.00  0.00    +0.000 N 
ATOM     24  H   UNL     1       7.723   8.976  16.879  0.00  0.00    +0.000 HD
BRANCH  23  25
ATOM     25  C   UNL     1       8.781   9.324  18.699  0.00  0.00    +0.000 C 
BRANCH  25  26
ATOM     26  C   UNL     1       8.809  10.807  18.381  0.00  0.00    +0.000 A 
ATOM     27  N   UNL     1       7.871  11.254  17.498  0.00  0.00    +0.000 NA
ATOM     28  C   UNL     1       7.875  12.568  17.185  0.00  0.00    +0.000 A 
ATOM     29  C   UNL     1       8.761  13.484  17.717  0.00  0.00    +0.000 A 
ATOM     30  C   UNL     1       9.725  13.019  18.603  0.00  0.00    +0.000 A 
ATOM     31  C   UNL     1       9.785  11.657  18.926  0.00  0.00    +0.000 A 
ATOM     32  C   UNL     1      10.852  11.179  19.867  0.00  0.00    +0.000 C 
ENDBRANCH  25  26
ENDBRANCH  23  25
ENDBRANCH   5  21
TORSDOF 7
ENDMDL
MODEL 3
REMARK VINA RESULT:      -7.4      3.388      6.604
REMARK  Name = 
REMARK  10 active torsions:
REMARK  status: ('A' for Active; 'I' for Inactive)
REMARK    1  A    between atoms: C_1  and  O_2
REMARK    2  A    between atoms: O_2  and  C_3
REMARK    3  A    between atoms: C_7  and  O_8
REMARK    4  A    between atoms: O_8  and  C_9
REMARK    5  A    between atoms: C_10  and  C_11
REMARK    6  A    between atoms: N_13  and  C_14
REMARK    7  A    between atoms: C_18  and  C_19
REMARK    8  A    between atoms: N_21  and  C_22
REMARK    9  A    between atoms: C_22  and  C_23
REMARK   10  A    between atoms: C_28  and  C_29
REMARK                            x       y       z     vdW  Elec       q    Type
REMARK                         _______ _______ _______ _____ _____    ______ ____
ROOT
ATOM      1  C   UNL     1       5.858   5.568  16.452  0.00  0.00    +0.000 A 
ATOM      2  C   UNL     1       5.845   5.115  15.157  0.00  0.00    +0.000 A 
ATOM      3  N   UNL     1       6.997   5.551  14.579  0.00  0.00    +0.000 N 
ATOM      4  N   UNL     1       7.767   6.290  15.394  0.00  0.00    +0.000 NA
ATOM      5  C   UNL     1       7.087   6.298  16.563  0.00  0.00    +0.000 A 
ATOM      6  H   UNL     1       7.315   5.381  13.632  0.00  0.00    +0.000 HD
ENDROOT
BRANCH   1   9
ATOM      7  C   UNL     1       5.003   4.556  18.540  0.00  0.00    +0.000 C 
ATOM      8  O   UNL     1       6.032   3.939  18.795  0.00  0.00    +0.000 OA
ATOM      9  N   UNL     1       4.887   5.382  17.432  0.00  0.00    +0.000 N 
ATOM     10  H   UNL     1       4.013   5.887  17.290  0.00  0.00    +0.000 HD
BRANCH   7  16
ATOM     11  C   UNL     1       2.982   5.557  19.769  0.00  0.00    +0.000 A 
ATOM     12  C   UNL     1       1.801   5.401  20.516  0.00  0.00    +0.000 A 
ATOM     13  C   UNL     1       1.400   4.147  20.956  0.00  0.00    +0.000 A 
ATOM     14  C   UNL     1       2.184   3.038  20.667  0.00  0.00    +0.000 A 
ATOM     15  C   UNL     1       3.376   3.161  19.933  0.00  0.00    +0.000 A 
ATOM     16  C   UNL     1       3.795   4.429  19.454  0.00  0.00    +0.000 A 
BRANCH  11  18
ATOM     17  C   UNL     1       2.421   7.640  18.704  0.00  0.00    +0.000 C 
ATOM     18  O   UNL     1       3.386   6.792  19.321  0.00  0.00    +0.000 OA
ENDBRANCH  11  18
BRANCH  15  19
ATOM     19  O   UNL     1       3.917   1.937  19.624  0.00  0.00    +0.000 OA
ATOM     20  C   UNL     1       3.484   1.337  18.405  0.00  0.00    +0.000 C 
ENDBRANCH  15  19
ENDBRANCH   7  16
ENDBRANCH   1   9
BRANCH   5  21
ATOM     21  C   UNL     1       7.602   6.977  17.760  0.00  0.00    +0.000 C 
ATOM     22  O   UNL     1       7.661   6.422  18.857  0.00  0.00    +0.000 OA
ATOM     23  N   UNL     1       8.000   8.278  17.569  0.00  0.00    +0.000 N 
ATOM     24  H   UNL     1       8.011   8.644  16.620  0.00  0.00    +0.000 HD
BRANCH  23  25
ATOM     25  C   UNL     1       8.582   9.069  18.631  0.00  0.00    +0.000 C 
BRANCH  25  26
ATOM     26  C   UNL     1       8.610  10.555  18.327  0.00  0.00    +0.000 A 
ATOM     27  N   UNL     1       7.723  10.997  17.391  0.00  0.00    +0.000 NA
ATOM     28  C   UNL     1       7.728  12.314  17.090  0.00  0.00    +0.000 A 
ATOM     29  C   UNL     1       8.567  13.236  17.683  0.00  0.00    +0.000 A 
ATOM     30  C   UNL     1       9.480  12.777  18.624  0.00  0.00    +0.000 A 
ATOM     31  C   UNL     1       9.538  11.412  18.939  0.00  0.00    +0.000 A 
ATOM     32  C   UNL     1      10.551  10.941  19.941  0.00  0.00    +0.000 C 
ENDBRANCH  25  26
ENDBRANCH  23  25
ENDBRANCH   5  21
TORSDOF 7
ENDMDL
MODEL 4
REMARK VINA RESULT:      -7.4      2.192      5.455
REMARK  Name = 
REMARK  10 active torsions:
REMARK  status: ('A' for Active; 'I' for Inactive)
REMARK    1  A    between atoms: C_1  and  O_2
REMARK    2  A    between atoms: O_2  and  C_3
REMARK    3  A    between atoms: C_7  and  O_8
REMARK    4  A    between atoms: O_8  and  C_9
REMARK    5  A    between atoms: C_10  and  C_11
REMARK    6  A    between atoms: N_13  and  C_14
REMARK    7  A    between atoms: C_18  and  C_19
REMARK    8  A    between atoms: N_21  and  C_22
REMARK    9  A    between atoms: C_22  and  C_23
REMARK   10  A    between atoms: C_28  and  C_29
REMARK                            x       y       z     vdW  Elec       q    Type
REMARK                         _______ _______ _______ _____ _____    ______ ____
ROOT
ATOM      1  C   UNL     1       6.038   4.688  17.441  0.00  0.00    +0.000 A 
ATOM      2  C   UNL     1       7.265   4.109  17.229  0.00  0.00    +0.000 A 
ATOM      3  N   UNL     1       7.880   4.845  16.265  0.00  0.00    +0.000 N 
ATOM      4  N   UNL     1       7.136   5.859  15.795  0.00  0.00    +0.000 NA
ATOM      5  C   UNL     1       5.998   5.788  16.524  0.00  0.00    +0.000 A 
ATOM      6  H   UNL     1       8.807   4.704  15.879  0.00  0.00    +0.000 HD
ENDROOT
BRANCH   1   9
ATOM      7  C   UNL     1       4.213   3.185  18.169  0.00  0.00    +0.000 C 
ATOM      8  O   UNL     1       4.323   2.410  17.224  0.00  0.00    +0.000 OA
ATOM      9  N   UNL     1       5.045   4.283  18.329  0.00  0.00    +0.000 N 
ATOM     10  H   UNL     1       4.919   4.875  19.150  0.00  0.00    +0.000 HD
BRANCH   7  16
ATOM     11  C   UNL     1       3.467   2.710  20.580  0.00  0.00    +0.000 A 
ATOM     12  C   UNL     1       2.461   2.623  21.557  0.00  0.00    +0.000 A 
ATOM     13  C   UNL     1       1.124   2.783  21.215  0.00  0.00    +0.000 A 
ATOM     14  C   UNL     1       0.781   3.015  19.890  0.00  0.00    +0.000 A 
ATOM     15  C   UNL     1       1.762   3.096  18.887  0.00  0.00    +0.000 A 
ATOM     16  C   UNL     1       3.135   2.959  19.216  0.00  0.00    +0.000 A 
BRANCH  11  18
ATOM     17  C   UNL     1       5.309   1.244  21.075  0.00  0.00    +0.000 C 
ATOM     18  O   UNL     1       4.794   2.561  20.907  0.00  0.00    +0.000 OA
ENDBRANCH  11  18
BRANCH  15  19
ATOM     19  O   UNL     1       1.232   3.485  17.681  0.00  0.00    +0.000 OA
ATOM     20  C   UNL     1       1.193   4.886  17.422  0.00  0.00    +0.000 C 
ENDBRANCH  15  19
ENDBRANCH   7  16
ENDBRANCH   1   9
BRANCH   5  21
ATOM     21  C   UNL     1       4.904   6.754  16.356  0.00  0.00    +0.000 C 
ATOM     22  O   UNL     1       4.634   7.259  15.266  0.00  0.00    +0.000 OA
ATOM     23  N   UNL     1       4.214   7.064  17.503  0.00  0.00    +0.000 N 
ATOM     24  H   UNL     1       4.430   6.544  18.349  0.00  0.00    +0.000 HD
BRANCH  23  25
ATOM     25  C   UNL     1       3.075   7.955  17.499  0.00  0.00    +0.000 C 
BRANCH  25  26
ATOM     26  C   UNL     1       2.334   7.988  18.822  0.00  0.00    +0.000 A 
ATOM     27  N   UNL     1       2.468   6.888  19.618  0.00  0.00    +0.000 NA
ATOM     28  C   UNL     1       1.814   6.881  20.799  0.00  0.00    +0.000 A 
ATOM     29  C   UNL     1       1.031   7.924  21.253  0.00  0.00    +0.000 A 
ATOM     30  C   UNL     1       0.884   9.034  20.431  0.00  0.00    +0.000 A 
ATOM     31  C   UNL     1       1.513   9.069  19.178  0.00  0.00    +0.000 A 
ATOM     32  C   UNL     1       1.317  10.272  18.301  0.00  0.00    +0.000 C 
ENDBRANCH  25  26
ENDBRANCH  23  25
ENDBRANCH   5  21
TORSDOF 7
ENDMDL
MODEL 5
REMARK VINA RESULT:      -7.3      0.267      2.355
REMARK  Name = 
REMARK  10 active torsions:
REMARK  status: ('A' for Active; 'I' for Inactive)
REMARK    1  A    between atoms: C_1  and  O_2
REMARK    2  A    between atoms: O_2  and  C_3
REMARK    3  A    between atoms: C_7  and  O_8
REMARK    4  A    between atoms: O_8  and  C_9
REMARK    5  A    between atoms: C_10  and  C_11
REMARK    6  A    between atoms: N_13  and  C_14
REMARK    7  A    between atoms: C_18  and  C_19
REMARK    8  A    between atoms: N_21  and  C_22
REMARK    9  A    between atoms: C_22  and  C_23
REMARK   10  A    between atoms: C_28  and  C_29
REMARK                            x       y       z     vdW  Elec       q    Type
REMARK                         _______ _______ _______ _____ _____    ______ ____
ROOT
ATOM      1  C   UNL     1       2.943   3.337  18.406  0.00  0.00    +0.000 A 
ATOM      2  C   UNL     1       2.645   2.179  17.733  0.00  0.00    +0.000 A 
ATOM      3  N   UNL     1       1.644   1.572  18.425  0.00  0.00    +0.000 N 
ATOM      4  N   UNL     1       1.272   2.231  19.534  0.00  0.00    +0.000 NA
ATOM      5  C   UNL     1       2.053   3.336  19.530  0.00  0.00    +0.000 A 
ATOM      6  H   UNL     1       1.174   0.703  18.196  0.00  0.00    +0.000 HD
ENDROOT
BRANCH   1   9
ATOM      7  C   UNL     1       5.186   4.358  18.620  0.00  0.00    +0.000 C 
ATOM      8  O   UNL     1       5.615   3.521  19.407  0.00  0.00    +0.000 OA
ATOM      9  N   UNL     1       3.908   4.288  18.086  0.00  0.00    +0.000 N 
ATOM     10  H   UNL     1       3.620   5.001  17.417  0.00  0.00    +0.000 HD
BRANCH   7  16
ATOM     11  C   UNL     1       7.166   5.949  18.996  0.00  0.00    +0.000 A 
ATOM     12  C   UNL     1       8.040   6.948  18.534  0.00  0.00    +0.000 A 
ATOM     13  C   UNL     1       7.852   7.536  17.289  0.00  0.00    +0.000 A 
ATOM     14  C   UNL     1       6.778   7.142  16.503  0.00  0.00    +0.000 A 
ATOM     15  C   UNL     1       5.880   6.154  16.940  0.00  0.00    +0.000 A 
ATOM     16  C   UNL     1       6.064   5.524  18.197  0.00  0.00    +0.000 A 
BRANCH  11  18
ATOM     17  C   UNL     1       8.675   5.090  20.661  0.00  0.00    +0.000 C 
ATOM     18  O   UNL     1       7.346   5.354  20.222  0.00  0.00    +0.000 OA
ENDBRANCH  11  18
BRANCH  15  19
ATOM     19  O   UNL     1       4.988   5.801  15.957  0.00  0.00    +0.000 OA
ATOM     20  C   UNL     1       5.489   4.979  14.905  0.00  0.00    +0.000 C 
ENDBRANCH  15  19
ENDBRANCH   7  16
ENDBRANCH   1   9
BRANCH   5  21
ATOM     21  C   UNL     1       1.946   4.369  20.569  0.00  0.00    +0.000 C 
ATOM     22  O   UNL     1       2.114   4.121  21.763  0.00  0.00    +0.000 OA
ATOM     23  N   UNL     1       1.632   5.627  20.114  0.00  0.00    +0.000 N 
ATOM     24  H   UNL     1       1.597   5.781  19.109  0.00  0.00    +0.000 HD
BRANCH  23  25
ATOM     25  C   UNL     1       1.543   6.767  21.001  0.00  0.00    +0.000 C 
BRANCH  25  26
ATOM     26  C   UNL     1       1.380   8.085  20.268  0.00  0.00    +0.000 A 
ATOM     27  N   UNL     1       1.957   8.168  19.035  0.00  0.00    +0.000 NA
ATOM     28  C   UNL     1       1.839   9.331  18.360  0.00  0.00    +0.000 A 
ATOM     29  C   UNL     1       1.159  10.434  18.839  0.00  0.00    +0.000 A 
ATOM     30  C   UNL     1       0.588  10.350  20.102  0.00  0.00    +0.000 A 
ATOM     31  C   UNL     1       0.719   9.176  20.856  0.00  0.00    +0.000 A 
ATOM     32  C   UNL     1       0.114   9.122  22.229  0.00  0.00    +0.000 C 
ENDBRANCH  25  26
ENDBRANCH  23  25
ENDBRANCH   5  21
TORSDOF 7
ENDMDL
MODEL 6
REMARK VINA RESULT:      -7.2      3.528      6.656
REMARK  Name = 
REMARK  10 active torsions:
REMARK  status: ('A' for Active; 'I' for Inactive)
REMARK    1  A    between atoms: C_1  and  O_2
REMARK    2  A    between atoms: O_2  and  C_3
REMARK    3  A    between atoms: C_7  and  O_8
REMARK    4  A    between atoms: O_8  and  C_9
REMARK    5  A    between atoms: C_10  and  C_11
REMARK    6  A    between atoms: N_13  and  C_14
REMARK    7  A    between atoms: C_18  and  C_19
REMARK    8  A    between atoms: N_21  and  C_22
REMARK    9  A    between atoms: C_22  and  C_23
REMARK   10  A    between atoms: C_28  and  C_29
REMARK                            x       y       z     vdW  Elec       q    Type
REMARK                         _______ _______ _______ _____ _____    ______ ____
ROOT
ATOM      1  C   UNL     1       6.106   5.408  16.931  0.00  0.00    +0.000 A 
ATOM      2  C   UNL     1       5.986   4.974  15.634  0.00  0.00    +0.000 A 
ATOM      3  N   UNL     1       6.980   5.576  14.928  0.00  0.00    +0.000 N 
ATOM      4  N   UNL     1       7.740   6.408  15.659  0.00  0.00    +0.000 NA
ATOM      5  C   UNL     1       7.225   6.304  16.906  0.00  0.00    +0.000 A 
ATOM      6  H   UNL     1       7.191   5.466  13.942  0.00  0.00    +0.000 HD
ENDROOT
BRANCH   1   9
ATOM      7  C   UNL     1       4.416   4.013  18.078  0.00  0.00    +0.000 C 
ATOM      8  O   UNL     1       4.291   3.211  17.158  0.00  0.00    +0.000 OA
ATOM      9  N   UNL     1       5.308   5.074  18.021  0.00  0.00    +0.000 N 
ATOM     10  H   UNL     1       5.383   5.691  18.829  0.00  0.00    +0.000 HD
BRANCH   7  16
ATOM     11  C   UNL     1       2.470   4.725  19.594  0.00  0.00    +0.000 A 
ATOM     12  C   UNL     1       1.631   4.498  20.699  0.00  0.00    +0.000 A 
ATOM     13  C   UNL     1       1.858   3.429  21.556  0.00  0.00    +0.000 A 
ATOM     14  C   UNL     1       2.937   2.587  21.326  0.00  0.00    +0.000 A 
ATOM     15  C   UNL     1       3.802   2.792  20.237  0.00  0.00    +0.000 A 
ATOM     16  C   UNL     1       3.576   3.864  19.335  0.00  0.00    +0.000 A 
BRANCH  11  18
ATOM     17  C   UNL     1       2.517   7.096  19.194  0.00  0.00    +0.000 C 
ATOM     18  O   UNL     1       2.250   5.775  18.734  0.00  0.00    +0.000 OA
ENDBRANCH  11  18
BRANCH  15  19
ATOM     19  O   UNL     1       4.704   1.766  20.098  0.00  0.00    +0.000 OA
ATOM     20  C   UNL     1       5.249   1.226  21.300  0.00  0.00    +0.000 C 
ENDBRANCH  15  19
ENDBRANCH   7  16
ENDBRANCH   1   9
BRANCH   5  21
ATOM     21  C   UNL     1       7.794   7.034  18.047  0.00  0.00    +0.000 C 
ATOM     22  O   UNL     1       7.975   6.504  19.143  0.00  0.00    +0.000 OA
ATOM     23  N   UNL     1       8.095   8.353  17.807  0.00  0.00    +0.000 N 
ATOM     24  H   UNL     1       8.006   8.702  16.856  0.00  0.00    +0.000 HD
BRANCH  23  25
ATOM     25  C   UNL     1       8.712   9.196  18.807  0.00  0.00    +0.000 C 
BRANCH  25  26
ATOM     26  C   UNL     1       8.754  10.661  18.414  0.00  0.00    +0.000 A 
ATOM     27  N   UNL     1       7.801  11.079  17.535  0.00  0.00    +0.000 NA
ATOM     28  C   UNL     1       7.816  12.376  17.157  0.00  0.00    +0.000 A 
ATOM     29  C   UNL     1       8.731  13.302  17.618  0.00  0.00    +0.000 A 
ATOM     30  C   UNL     1       9.711  12.865  18.500  0.00  0.00    +0.000 A 
ATOM     31  C   UNL     1       9.758  11.520  18.890  0.00  0.00    +0.000 A 
ATOM     32  C   UNL     1      10.843  11.072  19.825  0.00  0.00    +0.000 C 
ENDBRANCH  25  26
ENDBRANCH  23  25
ENDBRANCH   5  21
TORSDOF 7
ENDMDL
MODEL 7
REMARK VINA RESULT:      -7.2      0.718      1.332
REMARK  Name = 
REMARK  10 active torsions:
REMARK  status: ('A' for Active; 'I' for Inactive)
REMARK    1  A    between atoms: C_1  and  O_2
REMARK    2  A    between atoms: O_2  and  C_3
REMARK    3  A    between atoms: C_7  and  O_8
REMARK    4  A    between atoms: O_8  and  C_9
REMARK    5  A    between atoms: C_10  and  C_11
REMARK    6  A    between atoms: N_13  and  C_14
REMARK    7  A    between atoms: C_18  and  C_19
REMARK    8  A    between atoms: N_21  and  C_22
REMARK    9  A    between atoms: C_22  and  C_23
REMARK   10  A    between atoms: C_28  and  C_29
REMARK                            x       y       z     vdW  Elec       q    Type
REMARK                         _______ _______ _______ _____ _____    ______ ____
ROOT
ATOM      1  C   UNL     1       2.708   3.204  18.489  0.00  0.00    +0.000 A 
ATOM      2  C   UNL     1       2.254   2.029  17.946  0.00  0.00    +0.000 A 
ATOM      3  N   UNL     1       1.235   1.601  18.738  0.00  0.00    +0.000 N 
ATOM      4  N   UNL     1       0.995   2.396  19.794  0.00  0.00    +0.000 NA
ATOM      5  C   UNL     1       1.887   3.403  19.647  0.00  0.00    +0.000 A 
ATOM      6  H   UNL     1       0.664   0.771  18.616  0.00  0.00    +0.000 HD
ENDROOT
BRANCH   1   9
ATOM      7  C   UNL     1       5.047   4.008  18.520  0.00  0.00    +0.000 C 
ATOM      8  O   UNL     1       5.423   3.223  19.385  0.00  0.00    +0.000 OA
ATOM      9  N   UNL     1       3.748   4.010  18.035  0.00  0.00    +0.000 N 
ATOM     10  H   UNL     1       3.504   4.671  17.297  0.00  0.00    +0.000 HD
BRANCH   7  16
ATOM     11  C   UNL     1       5.929   5.444  16.582  0.00  0.00    +0.000 A 
ATOM     12  C   UNL     1       6.756   6.472  16.096  0.00  0.00    +0.000 A 
ATOM     13  C   UNL     1       7.669   7.103  16.930  0.00  0.00    +0.000 A 
ATOM     14  C   UNL     1       7.777   6.700  18.255  0.00  0.00    +0.000 A 
ATOM     15  C   UNL     1       6.974   5.668  18.769  0.00  0.00    +0.000 A 
ATOM     16  C   UNL     1       6.018   5.024  17.942  0.00  0.00    +0.000 A 
BRANCH  11  18
ATOM     17  C   UNL     1       5.420   4.443  14.455  0.00  0.00    +0.000 C 
ATOM     18  O   UNL     1       5.016   4.817  15.769  0.00  0.00    +0.000 OA
ENDBRANCH  11  18
BRANCH  15  19
ATOM     19  O   UNL     1       7.122   5.531  20.128  0.00  0.00    +0.000 OA
ATOM     20  C   UNL     1       8.444   5.290  20.604  0.00  0.00    +0.000 C 
ENDBRANCH  15  19
ENDBRANCH   7  16
ENDBRANCH   1   9
BRANCH   5  21
ATOM     21  C   UNL     1       1.946   4.534  20.584  0.00  0.00    +0.000 C 
ATOM     22  O   UNL     1       2.142   4.379  21.790  0.00  0.00    +0.000 OA
ATOM     23  N   UNL     1       1.752   5.772  20.022  0.00  0.00    +0.000 N 
ATOM     24  H   UNL     1       1.686   5.836  19.009  0.00  0.00    +0.000 HD
BRANCH  23  25
ATOM     25  C   UNL     1       1.834   6.991  20.796  0.00  0.00    +0.000 C 
BRANCH  25  26
ATOM     26  C   UNL     1       1.489   8.234  19.998  0.00  0.00    +0.000 A 
ATOM     27  N   UNL     1       0.597   9.092  20.569  0.00  0.00    +0.000 NA
ATOM     28  C   UNL     1       0.261  10.204  19.880  0.00  0.00    +0.000 A 
ATOM     29  C   UNL     1       0.778  10.527  18.640  0.00  0.00    +0.000 A 
ATOM     30  C   UNL     1       1.672   9.640  18.056  0.00  0.00    +0.000 A 
ATOM     31  C   UNL     1       2.020   8.454  18.716  0.00  0.00    +0.000 A 
ATOM     32  C   UNL     1       2.970   7.503  18.050  0.00  0.00    +0.000 C 
ENDBRANCH  25  26
ENDBRANCH  23  25
ENDBRANCH   5  21
TORSDOF 7
ENDMDL
MODEL 8
REMARK VINA RESULT:      -7.1      3.600      6.915
REMARK  Name = 
REMARK  10 active torsions:
REMARK  status: ('A' for Active; 'I' for Inactive)
REMARK    1  A    between atoms: C_1  and  O_2
REMARK    2  A    between atoms: O_2  and  C_3
REMARK    3  A    between atoms: C_7  and  O_8
REMARK    4  A    between atoms: O_8  and  C_9
REMARK    5  A    between atoms: C_10  and  C_11
REMARK    6  A    between atoms: N_13  and  C_14
REMARK    7  A    between atoms: C_18  and  C_19
REMARK    8  A    between atoms: N_21  and  C_22
REMARK    9  A    between atoms: C_22  and  C_23
REMARK   10  A    between atoms: C_28  and  C_29
REMARK                            x       y       z     vdW  Elec       q    Type
REMARK                         _______ _______ _______ _____ _____    ______ ____
ROOT
ATOM      1  C   UNL     1       5.507   6.459  16.991  0.00  0.00    +0.000 A 
ATOM      2  C   UNL     1       5.225   5.787  15.829  0.00  0.00    +0.000 A 
ATOM      3  N   UNL     1       6.416   5.561  15.211  0.00  0.00    +0.000 N 
ATOM      4  N   UNL     1       7.474   6.064  15.868  0.00  0.00    +0.000 NA
ATOM      5  C   UNL     1       6.932   6.609  16.981  0.00  0.00    +0.000 A 
ATOM      6  H   UNL     1       6.575   5.074  14.336  0.00  0.00    +0.000 HD
ENDROOT
BRANCH   1   9
ATOM      7  C   UNL     1       3.357   6.379  18.212  0.00  0.00    +0.000 C 
ATOM      8  O   UNL     1       2.938   5.382  17.634  0.00  0.00    +0.000 OA
ATOM      9  N   UNL     1       4.610   6.915  17.953  0.00  0.00    +0.000 N 
ATOM     10  H   UNL     1       4.910   7.732  18.486  0.00  0.00    +0.000 HD
BRANCH   7  16
ATOM     11  C   UNL     1       2.034   8.410  19.062  0.00  0.00    +0.000 A 
ATOM     12  C   UNL     1       1.139   8.994  19.974  0.00  0.00    +0.000 A 
ATOM     13  C   UNL     1       0.680   8.282  21.074  0.00  0.00    +0.000 A 
ATOM     14  C   UNL     1       1.126   6.984  21.282  0.00  0.00    +0.000 A 
ATOM     15  C   UNL     1       2.029   6.374  20.395  0.00  0.00    +0.000 A 
ATOM     16  C   UNL     1       2.494   7.074  19.252  0.00  0.00    +0.000 A 
BRANCH  11  18
ATOM     17  C   UNL     1       2.062  10.448  17.786  0.00  0.00    +0.000 C 
ATOM     18  O   UNL     1       2.490   9.102  17.965  0.00  0.00    +0.000 OA
ENDBRANCH  11  18
BRANCH  15  19
ATOM     19  O   UNL     1       2.220   5.046  20.690  0.00  0.00    +0.000 OA
ATOM     20  C   UNL     1       1.118   4.173  20.449  0.00  0.00    +0.000 C 
ENDBRANCH  15  19
ENDBRANCH   7  16
ENDBRANCH   1   9
BRANCH   5  21
ATOM     21  C   UNL     1       7.758   7.248  18.016  0.00  0.00    +0.000 C 
ATOM     22  O   UNL     1       8.174   6.633  18.998  0.00  0.00    +0.000 OA
ATOM     23  N   UNL     1       8.019   8.582  17.816  0.00  0.00    +0.000 N 
ATOM     24  H   UNL     1       7.722   9.004  16.939  0.00  0.00    +0.000 HD
BRANCH  23  25
ATOM     25  C   UNL     1       8.861   9.344  18.711  0.00  0.00    +0.000 C 
BRANCH  25  26
ATOM     26  C   UNL     1       8.830  10.836  18.439  0.00  0.00    +0.000 A 
ATOM     27  N   UNL     1       7.931  11.263  17.507  0.00  0.00    +0.000 NA
ATOM     28  C   UNL     1       7.884  12.584  17.234  0.00  0.00    +0.000 A 
ATOM     29  C   UNL     1       8.681  13.527  17.853  0.00  0.00    +0.000 A 
ATOM     30  C   UNL     1       9.607  13.085  18.789  0.00  0.00    +0.000 A 
ATOM     31  C   UNL     1       9.719  11.718  19.075  0.00  0.00    +0.000 A 
ATOM     32  C   UNL     1      10.745  11.266  20.073  0.00  0.00    +0.000 C 
ENDBRANCH  25  26
ENDBRANCH  23  25
ENDBRANCH   5  21
TORSDOF 7
ENDMDL
MODEL 9
REMARK VINA RESULT:      -7.1      3.365      6.599
REMARK  Name = 
REMARK  10 active torsions:
REMARK  status: ('A' for Active; 'I' for Inactive)
REMARK    1  A    between atoms: C_1  and  O_2
REMARK    2  A    between atoms: O_2  and  C_3
REMARK    3  A    between atoms: C_7  and  O_8
REMARK    4  A    between atoms: O_8  and  C_9
REMARK    5  A    between atoms: C_10  and  C_11
REMARK    6  A    between atoms: N_13  and  C_14
REMARK    7  A    between atoms: C_18  and  C_19
REMARK    8  A    between atoms: N_21  and  C_22
REMARK    9  A    between atoms: C_22  and  C_23
REMARK   10  A    between atoms: C_28  and  C_29
REMARK                            x       y       z     vdW  Elec       q    Type
REMARK                         _______ _______ _______ _____ _____    ______ ____
ROOT
ATOM      1  C   UNL     1       5.920   5.485  16.487  0.00  0.00    +0.000 A 
ATOM      2  C   UNL     1       5.966   5.023  15.196  0.00  0.00    +0.000 A 
ATOM      3  N   UNL     1       7.129   5.481  14.660  0.00  0.00    +0.000 N 
ATOM      4  N   UNL     1       7.851   6.243  15.497  0.00  0.00    +0.000 NA
ATOM      5  C   UNL     1       7.126   6.242  16.639  0.00  0.00    +0.000 A 
ATOM      6  H   UNL     1       7.486   5.313  13.726  0.00  0.00    +0.000 HD
ENDROOT
BRANCH   1   9
ATOM      7  C   UNL     1       4.992   4.434  18.525  0.00  0.00    +0.000 C 
ATOM      8  O   UNL     1       6.010   3.806  18.801  0.00  0.00    +0.000 OA
ATOM      9  N   UNL     1       4.917   5.283  17.431  0.00  0.00    +0.000 N 
ATOM     10  H   UNL     1       4.050   5.795  17.271  0.00  0.00    +0.000 HD
BRANCH   7  16
ATOM     11  C   UNL     1       3.413   3.050  20.004  0.00  0.00    +0.000 A 
ATOM     12  C   UNL     1       2.335   2.966  20.903  0.00  0.00    +0.000 A 
ATOM     13  C   UNL     1       1.586   4.092  21.221  0.00  0.00    +0.000 A 
ATOM     14  C   UNL     1       1.898   5.309  20.630  0.00  0.00    +0.000 A 
ATOM     15  C   UNL     1       2.961   5.425  19.719  0.00  0.00    +0.000 A 
ATOM     16  C   UNL     1       3.755   4.294  19.396  0.00  0.00    +0.000 A 
BRANCH  11  18
ATOM     17  C   UNL     1       3.753   1.133  18.593  0.00  0.00    +0.000 C 
ATOM     18  O   UNL     1       4.166   1.945  19.687  0.00  0.00    +0.000 OA
ENDBRANCH  11  18
BRANCH  15  19
ATOM     19  O   UNL     1       3.201   6.733  19.373  0.00  0.00    +0.000 OA
ATOM     20  C   UNL     1       2.132   7.654  19.580  0.00  0.00    +0.000 C 
ENDBRANCH  15  19
ENDBRANCH   7  16
ENDBRANCH   1   9
BRANCH   5  21
ATOM     21  C   UNL     1       7.581   6.941  17.850  0.00  0.00    +0.000 C 
ATOM     22  O   UNL     1       7.536   6.421  18.965  0.00  0.00    +0.000 OA
ATOM     23  N   UNL     1       8.045   8.218  17.650  0.00  0.00    +0.000 N 
ATOM     24  H   UNL     1       8.140   8.552  16.694  0.00  0.00    +0.000 HD
BRANCH  23  25
ATOM     25  C   UNL     1       8.580   9.021  18.728  0.00  0.00    +0.000 C 
BRANCH  25  26
ATOM     26  C   UNL     1       8.619  10.504  18.411  0.00  0.00    +0.000 A 
ATOM     27  N   UNL     1       7.783  10.933  17.422  0.00  0.00    +0.000 NA
ATOM     28  C   UNL     1       7.800  12.246  17.108  0.00  0.00    +0.000 A 
ATOM     29  C   UNL     1       8.601  13.178  17.737  0.00  0.00    +0.000 A 
ATOM     30  C   UNL     1       9.463  12.732  18.731  0.00  0.00    +0.000 A 
ATOM     31  C   UNL     1       9.509  11.372  19.063  0.00  0.00    +0.000 A 
ATOM     32  C   UNL     1      10.467  10.915  20.125  0.00  0.00    +0.000 C 
ENDBRANCH  25  26
ENDBRANCH  23  25
ENDBRANCH   5  21
TORSDOF 7
ENDMDL
