MODEL 1
REMARK VINA RESULT:      -7.2      0.000      0.000
REMARK  Name = 
REMARK  3 active torsions:
REMARK  status: ('A' for Active; 'I' for Inactive)
REMARK    1  A    between atoms: C_2  and  C_3
REMARK    2  A    between atoms: C_2  and  C_13
REMARK    3  A    between atoms: C_4  and  C_5
REMARK                            x       y       z     vdW  Elec       q    Type
REMARK                         _______ _______ _______ _____ _____    ______ ____
ROOT
ATOM      1  C   UNL     1       5.930   4.758  16.689  0.00  0.00    +0.000 C 
ATOM      2  C   UNL     1       4.690   5.241  16.856  0.00  0.00    +0.000 C 
ENDROOT
BRANCH   2   3
ATOM      3  C   UNL     1       3.793   4.676  17.873  0.00  0.00    +0.000 A 
ATOM      4  C   UNL     1       3.956   3.327  18.219  0.00  0.00    +0.000 A 
ATOM      5  C   UNL     1       3.120   2.731  19.167  0.00  0.00    +0.000 A 
ATOM      6  C   UNL     1       2.114   3.481  19.773  0.00  0.00    +0.000 A 
ATOM      7 CL   UNL     1       1.087   2.742  20.938  0.00  0.00    +0.000 Cl
ATOM      8  C   UNL     1       1.933   4.820  19.441  0.00  0.00    +0.000 A 
ATOM      9  C   UNL     1       2.769   5.417  18.493  0.00  0.00    +0.000 A 
ATOM     10 CL   UNL     1       2.494   7.081  18.111  0.00  0.00    +0.000 Cl
ENDBRANCH   2   3
BRANCH   1  12
ATOM     11  O   UNL     1       7.624   6.224  15.923  0.00  0.00    +0.000 OA
ATOM     12  C   UNL     1       6.845   5.315  15.648  0.00  0.00    +0.000 C 
BRANCH  12  13
ATOM     13  C   UNL     1       6.774   4.734  14.320  0.00  0.00    +0.000 A 
ATOM     14  C   UNL     1       5.994   3.708  13.808  0.00  0.00    +0.000 A 
ATOM     15  C   UNL     1       6.296   3.563  12.433  0.00  0.00    +0.000 A 
ATOM     16  C   UNL     1       7.255   4.499  12.128  0.00  0.00    +0.000 A 
ATOM     17  N   UNL     1       7.541   5.199  13.271  0.00  0.00    +0.000 N 
ATOM     18  H   UNL     1       8.207   5.959  13.351  0.00  0.00    +0.000 HD
ENDBRANCH  12  13
ENDBRANCH   1  12
TORSDOF 3
ENDMDL
MODEL 2
REMARK VINA RESULT:      -7.1      1.730      1.955
REMARK  Name = 
REMARK  3 active torsions:
REMARK  status: ('A' for Active; 'I' for Inactive)
REMARK    1  A    between atoms: C_2  and  C_3
REMARK    2  A    between atoms: C_2  and  C_13
REMARK    3  A    between atoms: C_4  and  C_5
REMARK                            x       y       z     vdW  Elec       q    Type
REMARK                         _______ _______ _______ _____ _____    ______ ____
ROOT
ATOM      1  C   UNL     1       5.413   4.824  15.410  0.00  0.00    +0.000 C 
ATOM      2  C   UNL     1       5.247   3.881  16.348  0.00  0.00    +0.000 C 
ENDROOT
BRANCH   2   3
ATOM      3  C   UNL     1       4.262   4.056  17.425  0.00  0.00    +0.000 A 
ATOM      4  C   UNL     1       2.951   3.617  17.195  0.00  0.00    +0.000 A 
ATOM      5  C   UNL     1       1.968   3.773  18.176  0.00  0.00    +0.000 A 
ATOM      6  C   UNL     1       2.291   4.372  19.392  0.00  0.00    +0.000 A 
ATOM      7 CL   UNL     1       1.077   4.563  20.596  0.00  0.00    +0.000 Cl
ATOM      8  C   UNL     1       3.586   4.817  19.639  0.00  0.00    +0.000 A 
ATOM      9  C   UNL     1       4.570   4.660  18.657  0.00  0.00    +0.000 A 
ATOM     10 CL   UNL     1       6.160   5.241  19.013  0.00  0.00    +0.000 Cl
ENDBRANCH   2   3
BRANCH   1  12
ATOM     11  O   UNL     1       7.510   5.227  14.387  0.00  0.00    +0.000 OA
ATOM     12  C   UNL     1       6.422   4.663  14.319  0.00  0.00    +0.000 C 
BRANCH  12  13
ATOM     13  C   UNL     1       6.059   3.815  13.198  0.00  0.00    +0.000 A 
ATOM     14  C   UNL     1       4.848   3.616  12.552  0.00  0.00    +0.000 A 
ATOM     15  C   UNL     1       5.056   2.704  11.489  0.00  0.00    +0.000 A 
ATOM     16  C   UNL     1       6.386   2.360  11.504  0.00  0.00    +0.000 A 
ATOM     17  N   UNL     1       6.984   3.031  12.539  0.00  0.00    +0.000 N 
ATOM     18  H   UNL     1       7.964   2.981  12.791  0.00  0.00    +0.000 HD
ENDBRANCH  12  13
ENDBRANCH   1  12
TORSDOF 3
ENDMDL
MODEL 3
REMARK VINA RESULT:      -7.0      0.809      1.027
REMARK  Name = 
REMARK  3 active torsions:
REMARK  status: ('A' for Active; 'I' for Inactive)
REMARK    1  A    between atoms: C_2  and  C_3
REMARK    2  A    between atoms: C_2  and  C_13
REMARK    3  A    between atoms: C_4  and  C_5
REMARK                            x       y       z     vdW  Elec       q    Type
REMARK                         _______ _______ _______ _____ _____    ______ ____
ROOT
ATOM      1  C   UNL     1       5.709   4.624  16.422  0.00  0.00    +0.000 C 
ATOM      2  C   UNL     1       5.387   5.257  17.559  0.00  0.00    +0.000 C 
ENDROOT
BRANCH   2   3
ATOM      3  C   UNL     1       4.333   4.736  18.438  0.00  0.00    +0.000 A 
ATOM      4  C   UNL     1       4.508   3.460  18.992  0.00  0.00    +0.000 A 
ATOM      5  C   UNL     1       3.529   2.905  19.821  0.00  0.00    +0.000 A 
ATOM      6  C   UNL     1       2.368   3.623  20.100  0.00  0.00    +0.000 A 
ATOM      7 CL   UNL     1       1.166   2.936  21.121  0.00  0.00    +0.000 Cl
ATOM      8  C   UNL     1       2.174   4.891  19.558  0.00  0.00    +0.000 A 
ATOM      9  C   UNL     1       3.153   5.445  18.728  0.00  0.00    +0.000 A 
ATOM     10 CL   UNL     1       2.855   7.019  18.074  0.00  0.00    +0.000 Cl
ENDBRANCH   2   3
BRANCH   1  12
ATOM     11  O   UNL     1       7.590   5.973  15.920  0.00  0.00    +0.000 OA
ATOM     12  C   UNL     1       6.770   5.154  15.513  0.00  0.00    +0.000 C 
BRANCH  12  13
ATOM     13  C   UNL     1       6.788   4.655  14.150  0.00  0.00    +0.000 A 
ATOM     14  C   UNL     1       7.492   5.069  13.030  0.00  0.00    +0.000 A 
ATOM     15  C   UNL     1       7.165   4.208  11.955  0.00  0.00    +0.000 A 
ATOM     16  C   UNL     1       6.268   3.284  12.434  0.00  0.00    +0.000 A 
ATOM     17  N   UNL     1       6.042   3.562  13.757  0.00  0.00    +0.000 N 
ATOM     18  H   UNL     1       5.430   3.043  14.376  0.00  0.00    +0.000 HD
ENDBRANCH  12  13
ENDBRANCH   1  12
TORSDOF 3
ENDMDL
MODEL 4
REMARK VINA RESULT:      -7.0      1.091      1.108
REMARK  Name = 
REMARK  3 active torsions:
REMARK  status: ('A' for Active; 'I' for Inactive)
REMARK    1  A    between atoms: C_2  and  C_3
REMARK    2  A    between atoms: C_2  and  C_13
REMARK    3  A    between atoms: C_4  and  C_5
REMARK                            x       y       z     vdW  Elec       q    Type
REMARK                         _______ _______ _______ _____ _____    ______ ____
ROOT
ATOM      1  C   UNL     1       5.531   5.007  17.354  0.00  0.00    +0.000 C 
ATOM      2  C   UNL     1       4.708   5.674  18.177  0.00  0.00    +0.000 C 
ENDROOT
BRANCH   2   3
ATOM      3  C   UNL     1       3.850   4.956  19.129  0.00  0.00    +0.000 A 
ATOM      4  C   UNL     1       4.111   3.597  19.355  0.00  0.00    +0.000 A 
ATOM      5  C   UNL     1       3.317   2.859  20.237  0.00  0.00    +0.000 A 
ATOM      6  C   UNL     1       2.255   3.475  20.896  0.00  0.00    +0.000 A 
ATOM      7 CL   UNL     1       1.280   2.562  21.978  0.00  0.00    +0.000 Cl
ATOM      8  C   UNL     1       1.977   4.822  20.682  0.00  0.00    +0.000 A 
ATOM      9  C   UNL     1       2.772   5.561  19.800  0.00  0.00    +0.000 A 
ATOM     10 CL   UNL     1       2.376   7.229  19.565  0.00  0.00    +0.000 Cl
ENDBRANCH   2   3
BRANCH   1  12
ATOM     11  O   UNL     1       6.929   6.791  16.672  0.00  0.00    +0.000 OA
ATOM     12  C   UNL     1       6.396   5.727  16.372  0.00  0.00    +0.000 C 
BRANCH  12  13
ATOM     13  C   UNL     1       6.579   5.111  15.071  0.00  0.00    +0.000 A 
ATOM     14  C   UNL     1       5.855   4.130  14.410  0.00  0.00    +0.000 A 
ATOM     15  C   UNL     1       6.446   3.920  13.141  0.00  0.00    +0.000 A 
ATOM     16  C   UNL     1       7.520   4.773  13.048  0.00  0.00    +0.000 A 
ATOM     17  N   UNL     1       7.596   5.485  14.216  0.00  0.00    +0.000 N 
ATOM     18  H   UNL     1       8.285   6.196  14.433  0.00  0.00    +0.000 HD
ENDBRANCH  12  13
ENDBRANCH   1  12
TORSDOF 3
ENDMDL
MODEL 5
REMARK VINA RESULT:      -7.0      1.424      1.649
REMARK  Name = 
REMARK  3 active torsions:
REMARK  status: ('A' for Active; 'I' for Inactive)
REMARK    1  A    between atoms: C_2  and  C_3
REMARK    2  A    between atoms: C_2  and  C_13
REMARK    3  A    between atoms: C_4  and  C_5
REMARK                            x       y       z     vdW  Elec       q    Type
REMARK                         _______ _______ _______ _____ _____    ______ ____
ROOT
ATOM      1  C   UNL     1       5.944   4.402  16.146  0.00  0.00    +0.000 C 
ATOM      2  C   UNL     1       4.866   5.099  16.533  0.00  0.00    +0.000 C 
ENDROOT
BRANCH   2   3
ATOM      3  C   UNL     1       3.949   4.565  17.550  0.00  0.00    +0.000 A 
ATOM      4  C   UNL     1       2.731   4.023  17.118  0.00  0.00    +0.000 A 
ATOM      5  C   UNL     1       1.813   3.516  18.042  0.00  0.00    +0.000 A 
ATOM      6  C   UNL     1       2.107   3.551  19.403  0.00  0.00    +0.000 A 
ATOM      7 CL   UNL     1       0.973   2.927  20.536  0.00  0.00    +0.000 Cl
ATOM      8  C   UNL     1       3.310   4.089  19.852  0.00  0.00    +0.000 A 
ATOM      9  C   UNL     1       4.229   4.595  18.929  0.00  0.00    +0.000 A 
ATOM     10 CL   UNL     1       5.703   5.260  19.542  0.00  0.00    +0.000 Cl
ENDBRANCH   2   3
BRANCH   1  12
ATOM     11  O   UNL     1       7.706   5.787  15.384  0.00  0.00    +0.000 OA
ATOM     12  C   UNL     1       6.874   4.930  15.102  0.00  0.00    +0.000 C 
BRANCH  12  13
ATOM     13  C   UNL     1       6.752   4.380  13.765  0.00  0.00    +0.000 A 
ATOM     14  C   UNL     1       7.415   4.681  12.584  0.00  0.00    +0.000 A 
ATOM     15  C   UNL     1       6.936   3.816  11.572  0.00  0.00    +0.000 A 
ATOM     16  C   UNL     1       5.989   3.003  12.148  0.00  0.00    +0.000 A 
ATOM     17  N   UNL     1       5.881   3.351  13.469  0.00  0.00    +0.000 N 
ATOM     18  H   UNL     1       5.266   2.918  14.148  0.00  0.00    +0.000 HD
ENDBRANCH  12  13
ENDBRANCH   1  12
TORSDOF 3
ENDMDL
MODEL 6
REMARK VINA RESULT:      -6.7      0.958      1.073
REMARK  Name = 
REMARK  3 active torsions:
REMARK  status: ('A' for Active; 'I' for Inactive)
REMARK    1  A    between atoms: C_2  and  C_3
REMARK    2  A    between atoms: C_2  and  C_13
REMARK    3  A    between atoms: C_4  and  C_5
REMARK                            x       y       z     vdW  Elec       q    Type
REMARK                         _______ _______ _______ _____ _____    ______ ____
ROOT
ATOM      1  C   UNL     1       5.637   4.066  16.107  0.00  0.00    +0.000 C 
ATOM      2  C   UNL     1       4.800   4.943  16.681  0.00  0.00    +0.000 C 
ENDROOT
BRANCH   2   3
ATOM      3  C   UNL     1       3.982   4.556  17.838  0.00  0.00    +0.000 A 
ATOM      4  C   UNL     1       4.076   3.235  18.299  0.00  0.00    +0.000 A 
ATOM      5  C   UNL     1       3.309   2.806  19.386  0.00  0.00    +0.000 A 
ATOM      6  C   UNL     1       2.441   3.695  20.016  0.00  0.00    +0.000 A 
ATOM      7 CL   UNL     1       1.498   3.161  21.351  0.00  0.00    +0.000 Cl
ATOM      8  C   UNL     1       2.330   5.009  19.571  0.00  0.00    +0.000 A 
ATOM      9  C   UNL     1       3.098   5.439  18.485  0.00  0.00    +0.000 A 
ATOM     10 CL   UNL     1       2.914   7.080  17.969  0.00  0.00    +0.000 Cl
ENDBRANCH   2   3
BRANCH   1  12
ATOM     11  O   UNL     1       7.410   5.216  15.039  0.00  0.00    +0.000 OA
ATOM     12  C   UNL     1       6.462   4.445  14.920  0.00  0.00    +0.000 C 
BRANCH  12  13
ATOM     13  C   UNL     1       6.098   3.859  13.644  0.00  0.00    +0.000 A 
ATOM     14  C   UNL     1       4.887   3.806  12.970  0.00  0.00    +0.000 A 
ATOM     15  C   UNL     1       5.092   3.144  11.736  0.00  0.00    +0.000 A 
ATOM     16  C   UNL     1       6.422   2.801  11.676  0.00  0.00    +0.000 A 
ATOM     17  N   UNL     1       7.021   3.233  12.831  0.00  0.00    +0.000 N 
ATOM     18  H   UNL     1       8.001   3.127  13.066  0.00  0.00    +0.000 HD
ENDBRANCH  12  13
ENDBRANCH   1  12
TORSDOF 3
ENDMDL
MODEL 7
REMARK VINA RESULT:      -6.7      1.664      2.117
REMARK  Name = 
REMARK  3 active torsions:
REMARK  status: ('A' for Active; 'I' for Inactive)
REMARK    1  A    between atoms: C_2  and  C_3
REMARK    2  A    between atoms: C_2  and  C_13
REMARK    3  A    between atoms: C_4  and  C_5
REMARK                            x       y       z     vdW  Elec       q    Type
REMARK                         _______ _______ _______ _____ _____    ______ ____
ROOT
ATOM      1  C   UNL     1       5.188   5.384  17.828  0.00  0.00    +0.000 C 
ATOM      2  C   UNL     1       3.865   5.178  17.756  0.00  0.00    +0.000 C 
ENDROOT
BRANCH   2   3
ATOM      3  C   UNL     1       3.152   4.479  18.834  0.00  0.00    +0.000 A 
ATOM      4  C   UNL     1       2.918   5.175  20.028  0.00  0.00    +0.000 A 
ATOM      5  C   UNL     1       2.260   4.556  21.094  0.00  0.00    +0.000 A 
ATOM      6  C   UNL     1       1.835   3.234  20.973  0.00  0.00    +0.000 A 
ATOM      7 CL   UNL     1       1.028   2.476  22.288  0.00  0.00    +0.000 Cl
ATOM      8  C   UNL     1       2.061   2.524  19.797  0.00  0.00    +0.000 A 
ATOM      9  C   UNL     1       2.718   3.144  18.730  0.00  0.00    +0.000 A 
ATOM     10 CL   UNL     1       2.981   2.213  17.296  0.00  0.00    +0.000 Cl
ENDBRANCH   2   3
BRANCH   1  12
ATOM     11  O   UNL     1       6.286   7.246  16.863  0.00  0.00    +0.000 OA
ATOM     12  C   UNL     1       5.925   6.080  16.730  0.00  0.00    +0.000 C 
BRANCH  12  13
ATOM     13  C   UNL     1       6.194   5.320  15.524  0.00  0.00    +0.000 A 
ATOM     14  C   UNL     1       5.479   4.311  14.896  0.00  0.00    +0.000 A 
ATOM     15  C   UNL     1       6.175   3.937  13.722  0.00  0.00    +0.000 A 
ATOM     16  C   UNL     1       7.302   4.720  13.652  0.00  0.00    +0.000 A 
ATOM     17  N   UNL     1       7.309   5.549  14.743  0.00  0.00    +0.000 N 
ATOM     18  H   UNL     1       8.015   6.244  14.956  0.00  0.00    +0.000 HD
ENDBRANCH  12  13
ENDBRANCH   1  12
TORSDOF 3
ENDMDL
MODEL 8
REMARK VINA RESULT:      -6.7      3.844      6.815
REMARK  Name = 
REMARK  3 active torsions:
REMARK  status: ('A' for Active; 'I' for Inactive)
REMARK    1  A    between atoms: C_2  and  C_3
REMARK    2  A    between atoms: C_2  and  C_13
REMARK    3  A    between atoms: C_4  and  C_5
REMARK                            x       y       z     vdW  Elec       q    Type
REMARK                         _______ _______ _______ _____ _____    ______ ____
ROOT
ATOM      1  C   UNL     1       3.372   6.071  18.188  0.00  0.00    +0.000 C 
ATOM      2  C   UNL     1       4.510   5.362  18.160  0.00  0.00    +0.000 C 
ENDROOT
BRANCH   2   3
ATOM      3  C   UNL     1       5.282   5.226  16.917  0.00  0.00    +0.000 A 
ATOM      4  C   UNL     1       4.698   4.524  15.853  0.00  0.00    +0.000 A 
ATOM      5  C   UNL     1       5.392   4.348  14.653  0.00  0.00    +0.000 A 
ATOM      6  C   UNL     1       6.676   4.871  14.511  0.00  0.00    +0.000 A 
ATOM      7 CL   UNL     1       7.527   4.650  13.033  0.00  0.00    +0.000 Cl
ATOM      8  C   UNL     1       7.275   5.568  15.557  0.00  0.00    +0.000 A 
ATOM      9  C   UNL     1       6.580   5.745  16.757  0.00  0.00    +0.000 A 
ATOM     10 CL   UNL     1       7.375   6.611  18.027  0.00  0.00    +0.000 Cl
ENDBRANCH   2   3
BRANCH   1  12
ATOM     11  O   UNL     1       2.312   7.312  19.903  0.00  0.00    +0.000 OA
ATOM     12  C   UNL     1       2.572   6.204  19.443  0.00  0.00    +0.000 C 
BRANCH  12  13
ATOM     13  C   UNL     1       2.118   4.978  20.074  0.00  0.00    +0.000 A 
ATOM     14  C   UNL     1       1.312   3.950  19.610  0.00  0.00    +0.000 A 
ATOM     15  C   UNL     1       1.214   2.969  20.625  0.00  0.00    +0.000 A 
ATOM     16  C   UNL     1       1.959   3.412  21.692  0.00  0.00    +0.000 A 
ATOM     17  N   UNL     1       2.498   4.626  21.354  0.00  0.00    +0.000 N 
ATOM     18  H   UNL     1       3.101   5.191  21.940  0.00  0.00    +0.000 HD
ENDBRANCH  12  13
ENDBRANCH   1  12
TORSDOF 3
ENDMDL
MODEL 9
REMARK VINA RESULT:      -6.6      2.551      3.761
REMARK  Name = 
REMARK  3 active torsions:
REMARK  status: ('A' for Active; 'I' for Inactive)
REMARK    1  A    between atoms: C_2  and  C_3
REMARK    2  A    between atoms: C_2  and  C_13
REMARK    3  A    between atoms: C_4  and  C_5
REMARK                            x       y       z     vdW  Elec       q    Type
REMARK                         _______ _______ _______ _____ _____    ______ ____
ROOT
ATOM      1  C   UNL     1       5.142   6.156  17.879  0.00  0.00    +0.000 C 
ATOM      2  C   UNL     1       3.847   5.940  18.153  0.00  0.00    +0.000 C 
ENDROOT
BRANCH   2   3
ATOM      3  C   UNL     1       2.953   7.056  18.492  0.00  0.00    +0.000 A 
ATOM      4  C   UNL     1       2.904   8.149  17.616  0.00  0.00    +0.000 A 
ATOM      5  C   UNL     1       2.084   9.246  17.896  0.00  0.00    +0.000 A 
ATOM      6  C   UNL     1       1.312   9.257  19.056  0.00  0.00    +0.000 A 
ATOM      7 CL   UNL     1       0.307  10.611  19.396  0.00  0.00    +0.000 Cl
ATOM      8  C   UNL     1       1.350   8.183  19.940  0.00  0.00    +0.000 A 
ATOM      9  C   UNL     1       2.169   7.085  19.659  0.00  0.00    +0.000 A 
ATOM     10 CL   UNL     1       2.185   5.782  20.797  0.00  0.00    +0.000 Cl
ENDBRANCH   2   3
BRANCH   1  12
ATOM     11  O   UNL     1       6.623   4.396  18.439  0.00  0.00    +0.000 OA
ATOM     12  C   UNL     1       6.063   5.027  17.547  0.00  0.00    +0.000 C 
BRANCH  12  13
ATOM     13  C   UNL     1       6.253   4.715  16.142  0.00  0.00    +0.000 A 
ATOM     14  C   UNL     1       5.600   3.826  15.303  0.00  0.00    +0.000 A 
ATOM     15  C   UNL     1       6.159   3.943  14.008  0.00  0.00    +0.000 A 
ATOM     16  C   UNL     1       7.144   4.899  14.077  0.00  0.00    +0.000 A 
ATOM     17  N   UNL     1       7.197   5.358  15.367  0.00  0.00    +0.000 N 
ATOM     18  H   UNL     1       7.824   6.074  15.717  0.00  0.00    +0.000 HD
ENDBRANCH  12  13
ENDBRANCH   1  12
TORSDOF 3
ENDMDL
