MODEL 1
REMARK VINA RESULT:      -8.2      0.000      0.000
REMARK  Name = 
REMARK  7 active torsions:
REMARK  status: ('A' for Active; 'I' for Inactive)
REMARK    1  A    between atoms: C_1  and  N_2
REMARK    2  A    between atoms: N_5  and  C_6
REMARK    3  A    between atoms: C_6  and  C_7
REMARK    4  A    between atoms: C_7  and  C_8
REMARK    5  A    between atoms: C_8  and  C_9
REMARK    6  A    between atoms: C_9  and  N_10
REMARK    7  A    between atoms: C_16  and  C_17
REMARK                            x       y       z     vdW  Elec       q    Type
REMARK                         _______ _______ _______ _____ _____    ______ ____
ROOT
ATOM      1  N   UNL     1      -0.315  10.071  20.901  0.00  0.00    +0.000 N 
ATOM      2  C   UNL     1       0.641   9.457  20.119  0.00  0.00    +0.000 A 
ATOM      3  N   UNL     1       0.957  10.091  18.987  0.00  0.00    +0.000 NA
ATOM      4  C   UNL     1       1.808   9.456  18.169  0.00  0.00    +0.000 A 
ATOM      5  C   UNL     1       2.358   8.218  18.456  0.00  0.00    +0.000 A 
ATOM      6  C   UNL     1       3.205   7.502  17.591  0.00  0.00    +0.000 A 
ATOM      7  C   UNL     1       3.811   6.305  18.001  0.00  0.00    +0.000 A 
ATOM      8  C   UNL     1       3.470   5.902  19.304  0.00  0.00    +0.000 A 
ATOM      9  N   UNL     1       4.044   4.803  19.943  0.00  0.00    +0.000 N 
ATOM     10  N   UNL     1       2.594   6.555  20.099  0.00  0.00    +0.000 NA
ATOM     11  C   UNL     1       2.036   7.693  19.691  0.00  0.00    +0.000 A 
ATOM     12  N   UNL     1       1.178   8.289  20.505  0.00  0.00    +0.000 NA
ATOM     13  H   UNL     1      -0.332  11.057  20.665  0.00  0.00    +0.000 HD
ATOM     14  H   UNL     1       3.915   3.956  19.400  0.00  0.00    +0.000 HD
ATOM     15  H   UNL     1       3.558   4.723  20.837  0.00  0.00    +0.000 HD
ENDROOT
BRANCH   7  16
ATOM     16  C   UNL     1       4.749   5.572  17.088  0.00  0.00    +0.000 A 
ATOM     17  C   UNL     1       4.445   4.284  16.565  0.00  0.00    +0.000 A 
ATOM     18 CL   UNL     1       2.937   3.464  16.839  0.00  0.00    +0.000 Cl
ATOM     19  C   UNL     1       5.348   3.572  15.756  0.00  0.00    +0.000 A 
ATOM     20  C   UNL     1       6.548   4.145  15.362  0.00  0.00    +0.000 A 
ATOM     21  C   UNL     1       6.871   5.411  15.826  0.00  0.00    +0.000 A 
ATOM     22  C   UNL     1       6.017   6.088  16.713  0.00  0.00    +0.000 A 
ATOM     23 CL   UNL     1       6.693   7.544  17.382  0.00  0.00    +0.000 Cl
ENDBRANCH   7  16
BRANCH   1  24
ATOM     24  C   UNL     1      -0.297   9.737  22.312  0.00  0.00    +0.000 C 
BRANCH  24  25
ATOM     25  C   UNL     1      -1.228  10.681  23.069  0.00  0.00    +0.000 C 
BRANCH  25  26
ATOM     26  C   UNL     1      -0.990  12.146  22.682  0.00  0.00    +0.000 C 
BRANCH  26  27
ATOM     27  C   UNL     1      -2.259  12.838  22.174  0.00  0.00    +0.000 C 
BRANCH  27  32
ATOM     28  C   UNL     1      -5.706  16.026  23.318  0.00  0.00    +0.000 C 
ATOM     29  N   UNL     1      -5.354  14.611  23.313  0.00  0.00    +0.000 NA
ATOM     30  C   UNL     1      -4.182  14.350  24.170  0.00  0.00    +0.000 C 
ATOM     31  C   UNL     1      -3.763  12.863  24.132  0.00  0.00    +0.000 C 
ATOM     32  N   UNL     1      -3.501  12.328  22.777  0.00  0.00    +0.000 NA
ATOM     33  C   UNL     1      -4.671  12.640  21.927  0.00  0.00    +0.000 C 
ATOM     34  C   UNL     1      -5.099  14.127  21.944  0.00  0.00    +0.000 C 
ENDBRANCH  27  32
ENDBRANCH  26  27
ENDBRANCH  25  26
ENDBRANCH  24  25
ENDBRANCH   1  24
TORSDOF 6
ENDMDL
MODEL 2
REMARK VINA RESULT:      -8.0      0.983      1.526
REMARK  Name = 
REMARK  7 active torsions:
REMARK  status: ('A' for Active; 'I' for Inactive)
REMARK    1  A    between atoms: C_1  and  N_2
REMARK    2  A    between atoms: N_5  and  C_6
REMARK    3  A    between atoms: C_6  and  C_7
REMARK    4  A    between atoms: C_7  and  C_8
REMARK    5  A    between atoms: C_8  and  C_9
REMARK    6  A    between atoms: C_9  and  N_10
REMARK    7  A    between atoms: C_16  and  C_17
REMARK                            x       y       z     vdW  Elec       q    Type
REMARK                         _______ _______ _______ _____ _____    ______ ____
ROOT
ATOM      1  N   UNL     1      -0.356  10.368  20.775  0.00  0.00    +0.000 N 
ATOM      2  C   UNL     1       0.591   9.707  20.020  0.00  0.00    +0.000 A 
ATOM      3  N   UNL     1       0.915  10.287  18.862  0.00  0.00    +0.000 NA
ATOM      4  C   UNL     1       1.756   9.605  18.072  0.00  0.00    +0.000 A 
ATOM      5  C   UNL     1       2.290   8.374  18.413  0.00  0.00    +0.000 A 
ATOM      6  C   UNL     1       3.127   7.610  17.580  0.00  0.00    +0.000 A 
ATOM      7  C   UNL     1       3.717   6.424  18.042  0.00  0.00    +0.000 A 
ATOM      8  C   UNL     1       3.372   6.083  19.361  0.00  0.00    +0.000 A 
ATOM      9  N   UNL     1       3.932   5.006  20.048  0.00  0.00    +0.000 N 
ATOM     10  N   UNL     1       2.505   6.782  20.127  0.00  0.00    +0.000 NA
ATOM     11  C   UNL     1       1.962   7.908  19.670  0.00  0.00    +0.000 A 
ATOM     12  N   UNL     1       1.112   8.551  20.457  0.00  0.00    +0.000 NA
ATOM     13  H   UNL     1      -0.360  11.343  20.496  0.00  0.00    +0.000 HD
ATOM     14  H   UNL     1       3.791   4.137  19.542  0.00  0.00    +0.000 HD
ATOM     15  H   UNL     1       3.445   4.972  20.944  0.00  0.00    +0.000 HD
ENDROOT
BRANCH   7  16
ATOM     16  C   UNL     1       4.644   5.639  17.161  0.00  0.00    +0.000 A 
ATOM     17  C   UNL     1       4.314   4.341  16.679  0.00  0.00    +0.000 A 
ATOM     18 CL   UNL     1       2.784   3.567  16.967  0.00  0.00    +0.000 Cl
ATOM     19  C   UNL     1       5.206   3.582  15.901  0.00  0.00    +0.000 A 
ATOM     20  C   UNL     1       6.422   4.114  15.500  0.00  0.00    +0.000 A 
ATOM     21  C   UNL     1       6.772   5.386  15.923  0.00  0.00    +0.000 A 
ATOM     22  C   UNL     1       5.927   6.113  16.780  0.00  0.00    +0.000 A 
ATOM     23 CL   UNL     1       6.633   7.573  17.406  0.00  0.00    +0.000 Cl
ENDBRANCH   7  16
BRANCH   1  24
ATOM     24  C   UNL     1      -0.341  10.096  22.199  0.00  0.00    +0.000 C 
BRANCH  24  25
ATOM     25  C   UNL     1      -1.193  11.135  22.923  0.00  0.00    +0.000 C 
BRANCH  25  26
ATOM     26  C   UNL     1      -1.874  12.097  21.942  0.00  0.00    +0.000 C 
BRANCH  26  27
ATOM     27  C   UNL     1      -3.019  12.887  22.585  0.00  0.00    +0.000 C 
BRANCH  27  32
ATOM     28  C   UNL     1      -7.732  12.205  21.761  0.00  0.00    +0.000 C 
ATOM     29  N   UNL     1      -6.583  13.046  21.449  0.00  0.00    +0.000 NA
ATOM     30  C   UNL     1      -5.527  12.274  20.768  0.00  0.00    +0.000 C 
ATOM     31  C   UNL     1      -4.279  13.140  20.477  0.00  0.00    +0.000 C 
ATOM     32  N   UNL     1      -3.701  13.809  21.663  0.00  0.00    +0.000 NA
ATOM     33  C   UNL     1      -4.788  14.541  22.352  0.00  0.00    +0.000 C 
ATOM     34  C   UNL     1      -6.041  13.687  22.661  0.00  0.00    +0.000 C 
ENDBRANCH  27  32
ENDBRANCH  26  27
ENDBRANCH  25  26
ENDBRANCH  24  25
ENDBRANCH   1  24
TORSDOF 6
ENDMDL
MODEL 3
REMARK VINA RESULT:      -7.9      3.660     10.532
REMARK  Name = 
REMARK  7 active torsions:
REMARK  status: ('A' for Active; 'I' for Inactive)
REMARK    1  A    between atoms: C_1  and  N_2
REMARK    2  A    between atoms: N_5  and  C_6
REMARK    3  A    between atoms: C_6  and  C_7
REMARK    4  A    between atoms: C_7  and  C_8
REMARK    5  A    between atoms: C_8  and  C_9
REMARK    6  A    between atoms: C_9  and  N_10
REMARK    7  A    between atoms: C_16  and  C_17
REMARK                            x       y       z     vdW  Elec       q    Type
REMARK                         _______ _______ _______ _____ _____    ______ ____
ROOT
ATOM      1  N   UNL     1       2.834   7.176  18.624  0.00  0.00    +0.000 N 
ATOM      2  C   UNL     1       2.001   8.131  19.170  0.00  0.00    +0.000 A 
ATOM      3  N   UNL     1       1.718   7.979  20.466  0.00  0.00    +0.000 NA
ATOM      4  C   UNL     1       0.830   8.838  20.984  0.00  0.00    +0.000 A 
ATOM      5  C   UNL     1       0.231   9.848  20.250  0.00  0.00    +0.000 A 
ATOM      6  C   UNL     1      -0.747  10.725  20.750  0.00  0.00    +0.000 A 
ATOM      7  C   UNL     1      -1.224  11.793  19.976  0.00  0.00    +0.000 A 
ATOM      8  C   UNL     1      -0.663  11.869  18.689  0.00  0.00    +0.000 A 
ATOM      9  N   UNL     1      -0.917  12.913  17.800  0.00  0.00    +0.000 N 
ATOM     10  N   UNL     1       0.218  10.975  18.188  0.00  0.00    +0.000 NA
ATOM     11  C   UNL     1       0.661   9.973  18.945  0.00  0.00    +0.000 A 
ATOM     12  N   UNL     1       1.518   9.119  18.403  0.00  0.00    +0.000 NA
ATOM     13  H   UNL     1       3.368   6.755  19.376  0.00  0.00    +0.000 HD
ATOM     14  H   UNL     1      -1.912  13.008  17.623  0.00  0.00    +0.000 HD
ATOM     15  H   UNL     1      -0.430  12.662  16.939  0.00  0.00    +0.000 HD
ENDROOT
BRANCH   7  16
ATOM     16  C   UNL     1      -2.234  12.751  20.535  0.00  0.00    +0.000 A 
ATOM     17  C   UNL     1      -1.922  13.649  21.594  0.00  0.00    +0.000 A 
ATOM     18 CL   UNL     1      -0.335  13.807  22.287  0.00  0.00    +0.000 Cl
ATOM     19  C   UNL     1      -2.884  14.506  22.158  0.00  0.00    +0.000 A 
ATOM     20  C   UNL     1      -4.167  14.569  21.635  0.00  0.00    +0.000 A 
ATOM     21  C   UNL     1      -4.506  13.732  20.584  0.00  0.00    +0.000 A 
ATOM     22  C   UNL     1      -3.578  12.804  20.080  0.00  0.00    +0.000 A 
ATOM     23 CL   UNL     1      -4.248  11.674  18.940  0.00  0.00    +0.000 Cl
ENDBRANCH   7  16
BRANCH   1  24
ATOM     24  C   UNL     1       3.571   7.573  17.441  0.00  0.00    +0.000 C 
BRANCH  24  25
ATOM     25  C   UNL     1       4.827   6.713  17.313  0.00  0.00    +0.000 C 
BRANCH  25  26
ATOM     26  C   UNL     1       4.530   5.368  16.639  0.00  0.00    +0.000 C 
BRANCH  26  27
ATOM     27  C   UNL     1       4.281   4.242  17.647  0.00  0.00    +0.000 C 
BRANCH  27  32
ATOM     28  C   UNL     1       1.413   2.731  21.231  0.00  0.00    +0.000 C 
ATOM     29  N   UNL     1       1.636   2.685  19.791  0.00  0.00    +0.000 NA
ATOM     30  C   UNL     1       2.928   2.049  19.471  0.00  0.00    +0.000 C 
ATOM     31  C   UNL     1       3.203   2.042  17.949  0.00  0.00    +0.000 C 
ATOM     32  N   UNL     1       3.145   3.372  17.304  0.00  0.00    +0.000 NA
ATOM     33  C   UNL     1       1.860   4.006  17.675  0.00  0.00    +0.000 C 
ATOM     34  C   UNL     1       1.572   4.032  19.195  0.00  0.00    +0.000 C 
ENDBRANCH  27  32
ENDBRANCH  26  27
ENDBRANCH  25  26
ENDBRANCH  24  25
ENDBRANCH   1  24
TORSDOF 6
ENDMDL
MODEL 4
REMARK VINA RESULT:      -7.9      1.588      2.789
REMARK  Name = 
REMARK  7 active torsions:
REMARK  status: ('A' for Active; 'I' for Inactive)
REMARK    1  A    between atoms: C_1  and  N_2
REMARK    2  A    between atoms: N_5  and  C_6
REMARK    3  A    between atoms: C_6  and  C_7
REMARK    4  A    between atoms: C_7  and  C_8
REMARK    5  A    between atoms: C_8  and  C_9
REMARK    6  A    between atoms: C_9  and  N_10
REMARK    7  A    between atoms: C_16  and  C_17
REMARK                            x       y       z     vdW  Elec       q    Type
REMARK                         _______ _______ _______ _____ _____    ______ ____
ROOT
ATOM      1  N   UNL     1      -0.499  11.429  20.585  0.00  0.00    +0.000 N 
ATOM      2  C   UNL     1       0.353  10.569  19.924  0.00  0.00    +0.000 A 
ATOM      3  N   UNL     1       0.753  10.968  18.714  0.00  0.00    +0.000 NA
ATOM      4  C   UNL     1       1.497  10.097  18.018  0.00  0.00    +0.000 A 
ATOM      5  C   UNL     1       1.862   8.852  18.501  0.00  0.00    +0.000 A 
ATOM      6  C   UNL     1       2.590   7.895  17.772  0.00  0.00    +0.000 A 
ATOM      7  C   UNL     1       3.017   6.701  18.371  0.00  0.00    +0.000 A 
ATOM      8  C   UNL     1       2.627   6.558  19.715  0.00  0.00    +0.000 A 
ATOM      9  N   UNL     1       3.037   5.500  20.525  0.00  0.00    +0.000 N 
ATOM     10  N   UNL     1       1.860   7.447  20.384  0.00  0.00    +0.000 NA
ATOM     11  C   UNL     1       1.473   8.576  19.796  0.00  0.00    +0.000 A 
ATOM     12  N   UNL     1       0.715   9.410  20.494  0.00  0.00    +0.000 NA
ATOM     13  H   UNL     1      -0.372  12.358  20.200  0.00  0.00    +0.000 HD
ATOM     14  H   UNL     1       2.783   4.606  20.116  0.00  0.00    +0.000 HD
ATOM     15  H   UNL     1       2.549   5.630  21.412  0.00  0.00    +0.000 HD
ENDROOT
BRANCH   7  16
ATOM     16  C   UNL     1       3.832   5.707  17.598  0.00  0.00    +0.000 A 
ATOM     17  C   UNL     1       5.128   6.016  17.097  0.00  0.00    +0.000 A 
ATOM     18 CL   UNL     1       5.944   7.521  17.400  0.00  0.00    +0.000 Cl
ATOM     19  C   UNL     1       5.869   5.105  16.324  0.00  0.00    +0.000 A 
ATOM     20  C   UNL     1       5.392   3.824  16.091  0.00  0.00    +0.000 A 
ATOM     21  C   UNL     1       4.146   3.471  16.586  0.00  0.00    +0.000 A 
ATOM     22  C   UNL     1       3.359   4.408  17.277  0.00  0.00    +0.000 A 
ATOM     23 CL   UNL     1       1.737   3.873  17.603  0.00  0.00    +0.000 Cl
ENDBRANCH   7  16
BRANCH   1  24
ATOM     24  C   UNL     1      -0.523  11.318  22.031  0.00  0.00    +0.000 C 
BRANCH  24  25
ATOM     25  C   UNL     1      -1.546  12.299  22.598  0.00  0.00    +0.000 C 
BRANCH  25  26
ATOM     26  C   UNL     1      -2.665  12.600  21.593  0.00  0.00    +0.000 C 
BRANCH  26  27
ATOM     27  C   UNL     1      -3.972  13.022  22.271  0.00  0.00    +0.000 C 
BRANCH  27  32
ATOM     28  C   UNL     1      -7.906  10.609  20.834  0.00  0.00    +0.000 C 
ATOM     29  N   UNL     1      -7.195  11.879  20.746  0.00  0.00    +0.000 NA
ATOM     30  C   UNL     1      -5.871  11.707  20.118  0.00  0.00    +0.000 C 
ATOM     31  C   UNL     1      -5.084  13.036  20.066  0.00  0.00    +0.000 C 
ATOM     32  N   UNL     1      -4.916  13.708  21.374  0.00  0.00    +0.000 NA
ATOM     33  C   UNL     1      -6.251  13.829  22.001  0.00  0.00    +0.000 C 
ATOM     34  C   UNL     1      -7.050  12.506  22.072  0.00  0.00    +0.000 C 
ENDBRANCH  27  32
ENDBRANCH  26  27
ENDBRANCH  25  26
ENDBRANCH  24  25
ENDBRANCH   1  24
TORSDOF 6
ENDMDL
MODEL 5
REMARK VINA RESULT:      -7.9      1.110      2.135
REMARK  Name = 
REMARK  7 active torsions:
REMARK  status: ('A' for Active; 'I' for Inactive)
REMARK    1  A    between atoms: C_1  and  N_2
REMARK    2  A    between atoms: N_5  and  C_6
REMARK    3  A    between atoms: C_6  and  C_7
REMARK    4  A    between atoms: C_7  and  C_8
REMARK    5  A    between atoms: C_8  and  C_9
REMARK    6  A    between atoms: C_9  and  N_10
REMARK    7  A    between atoms: C_16  and  C_17
REMARK                            x       y       z     vdW  Elec       q    Type
REMARK                         _______ _______ _______ _____ _____    ______ ____
ROOT
ATOM      1  N   UNL     1      -0.404  11.284  20.599  0.00  0.00    +0.000 N 
ATOM      2  C   UNL     1       0.464  10.447  19.929  0.00  0.00    +0.000 A 
ATOM      3  N   UNL     1       0.891  10.887  18.742  0.00  0.00    +0.000 NA
ATOM      4  C   UNL     1       1.652  10.040  18.035  0.00  0.00    +0.000 A 
ATOM      5  C   UNL     1       2.007   8.779  18.485  0.00  0.00    +0.000 A 
ATOM      6  C   UNL     1       2.754   7.848  17.741  0.00  0.00    +0.000 A 
ATOM      7  C   UNL     1       3.168   6.635  18.309  0.00  0.00    +0.000 A 
ATOM      8  C   UNL     1       2.747   6.447  19.638  0.00  0.00    +0.000 A 
ATOM      9  N   UNL     1       3.140   5.362  20.422  0.00  0.00    +0.000 N 
ATOM     10  N   UNL     1       1.964   7.312  20.319  0.00  0.00    +0.000 NA
ATOM     11  C   UNL     1       1.589   8.460  19.760  0.00  0.00    +0.000 A 
ATOM     12  N   UNL     1       0.814   9.270  20.468  0.00  0.00    +0.000 NA
ATOM     13  H   UNL     1      -0.270  12.226  20.248  0.00  0.00    +0.000 HD
ATOM     14  H   UNL     1       2.896   4.483  19.977  0.00  0.00    +0.000 HD
ATOM     15  H   UNL     1       2.631   5.463  21.301  0.00  0.00    +0.000 HD
ENDROOT
BRANCH   7  16
ATOM     16  C   UNL     1       4.002   5.668  17.523  0.00  0.00    +0.000 A 
ATOM     17  C   UNL     1       5.310   5.994  17.064  0.00  0.00    +0.000 A 
ATOM     18 CL   UNL     1       6.118   7.487  17.438  0.00  0.00    +0.000 Cl
ATOM     19  C   UNL     1       6.069   5.110  16.278  0.00  0.00    +0.000 A 
ATOM     20  C   UNL     1       5.599   3.837  15.990  0.00  0.00    +0.000 A 
ATOM     21  C   UNL     1       4.342   3.468  16.441  0.00  0.00    +0.000 A 
ATOM     22  C   UNL     1       3.537   4.381  17.145  0.00  0.00    +0.000 A 
ATOM     23 CL   UNL     1       1.908   3.835  17.413  0.00  0.00    +0.000 Cl
ENDBRANCH   7  16
BRANCH   1  24
ATOM     24  C   UNL     1      -0.462  11.125  22.039  0.00  0.00    +0.000 C 
BRANCH  24  25
ATOM     25  C   UNL     1      -1.101  12.363  22.662  0.00  0.00    +0.000 C 
BRANCH  25  26
ATOM     26  C   UNL     1      -2.303  12.855  21.845  0.00  0.00    +0.000 C 
BRANCH  26  27
ATOM     27  C   UNL     1      -3.644  12.516  22.503  0.00  0.00    +0.000 C 
BRANCH  27  32
ATOM     28  C   UNL     1      -7.752  14.931  23.314  0.00  0.00    +0.000 C 
ATOM     29  N   UNL     1      -6.490  14.505  23.906  0.00  0.00    +0.000 NA
ATOM     30  C   UNL     1      -5.340  15.089  23.191  0.00  0.00    +0.000 C 
ATOM     31  C   UNL     1      -3.993  14.604  23.774  0.00  0.00    +0.000 C 
ATOM     32  N   UNL     1      -3.835  13.133  23.825  0.00  0.00    +0.000 NA
ATOM     33  C   UNL     1      -5.020  12.568  24.509  0.00  0.00    +0.000 C 
ATOM     34  C   UNL     1      -6.378  13.035  23.931  0.00  0.00    +0.000 C 
ENDBRANCH  27  32
ENDBRANCH  26  27
ENDBRANCH  25  26
ENDBRANCH  24  25
ENDBRANCH   1  24
TORSDOF 6
ENDMDL
MODEL 6
REMARK VINA RESULT:      -7.9      1.498      2.112
REMARK  Name = 
REMARK  7 active torsions:
REMARK  status: ('A' for Active; 'I' for Inactive)
REMARK    1  A    between atoms: C_1  and  N_2
REMARK    2  A    between atoms: N_5  and  C_6
REMARK    3  A    between atoms: C_6  and  C_7
REMARK    4  A    between atoms: C_7  and  C_8
REMARK    5  A    between atoms: C_8  and  C_9
REMARK    6  A    between atoms: C_9  and  N_10
REMARK    7  A    between atoms: C_16  and  C_17
REMARK                            x       y       z     vdW  Elec       q    Type
REMARK                         _______ _______ _______ _____ _____    ______ ____
ROOT
ATOM      1  N   UNL     1      -0.444  11.418  20.773  0.00  0.00    +0.000 N 
ATOM      2  C   UNL     1       0.382  10.562  20.075  0.00  0.00    +0.000 A 
ATOM      3  N   UNL     1       0.751  10.978  18.860  0.00  0.00    +0.000 NA
ATOM      4  C   UNL     1       1.469  10.113  18.130  0.00  0.00    +0.000 A 
ATOM      5  C   UNL     1       1.838   8.858  18.584  0.00  0.00    +0.000 A 
ATOM      6  C   UNL     1       2.539   7.908  17.819  0.00  0.00    +0.000 A 
ATOM      7  C   UNL     1       2.974   6.701  18.388  0.00  0.00    +0.000 A 
ATOM      8  C   UNL     1       2.621   6.541  19.739  0.00  0.00    +0.000 A 
ATOM      9  N   UNL     1       3.046   5.466  20.521  0.00  0.00    +0.000 N 
ATOM     10  N   UNL     1       1.879   7.423  20.444  0.00  0.00    +0.000 NA
ATOM     11  C   UNL     1       1.484   8.564  19.885  0.00  0.00    +0.000 A 
ATOM     12  N   UNL     1       0.752   9.392  20.616  0.00  0.00    +0.000 NA
ATOM     13  H   UNL     1      -0.322  12.352  20.399  0.00  0.00    +0.000 HD
ATOM     14  H   UNL     1       2.774   4.582  20.105  0.00  0.00    +0.000 HD
ATOM     15  H   UNL     1       2.583   5.586  21.423  0.00  0.00    +0.000 HD
ENDROOT
BRANCH   7  16
ATOM     16  C   UNL     1       3.760   5.715  17.577  0.00  0.00    +0.000 A 
ATOM     17  C   UNL     1       3.273   4.408  17.293  0.00  0.00    +0.000 A 
ATOM     18 CL   UNL     1       1.696   3.845  17.760  0.00  0.00    +0.000 Cl
ATOM     19  C   UNL     1       4.034   3.463  16.582  0.00  0.00    +0.000 A 
ATOM     20  C   UNL     1       5.268   3.805  16.050  0.00  0.00    +0.000 A 
ATOM     21  C   UNL     1       5.769   5.078  16.279  0.00  0.00    +0.000 A 
ATOM     22  C   UNL     1       5.056   5.995  17.070  0.00  0.00    +0.000 A 
ATOM     23 CL   UNL     1       5.942   7.442  17.455  0.00  0.00    +0.000 Cl
ENDBRANCH   7  16
BRANCH   1  24
ATOM     24  C   UNL     1      -0.429  11.284  22.217  0.00  0.00    +0.000 C 
BRANCH  24  25
ATOM     25  C   UNL     1      -1.833  11.529  22.765  0.00  0.00    +0.000 C 
BRANCH  25  26
ATOM     26  C   UNL     1      -2.490  12.754  22.118  0.00  0.00    +0.000 C 
BRANCH  26  27
ATOM     27  C   UNL     1      -3.870  13.066  22.707  0.00  0.00    +0.000 C 
BRANCH  27  32
ATOM     28  C   UNL     1      -7.863  10.981  20.956  0.00  0.00    +0.000 C 
ATOM     29  N   UNL     1      -7.080  12.211  20.980  0.00  0.00    +0.000 NA
ATOM     30  C   UNL     1      -5.741  12.003  20.397  0.00  0.00    +0.000 C 
ATOM     31  C   UNL     1      -4.879  13.285  20.465  0.00  0.00    +0.000 C 
ATOM     32  N   UNL     1      -4.733  13.861  21.820  0.00  0.00    +0.000 NA
ATOM     33  C   UNL     1      -6.086  14.020  22.399  0.00  0.00    +0.000 C 
ATOM     34  C   UNL     1      -6.960  12.744  22.350  0.00  0.00    +0.000 C 
ENDBRANCH  27  32
ENDBRANCH  26  27
ENDBRANCH  25  26
ENDBRANCH  24  25
ENDBRANCH   1  24
TORSDOF 6
ENDMDL
MODEL 7
REMARK VINA RESULT:      -7.8      1.225      2.302
REMARK  Name = 
REMARK  7 active torsions:
REMARK  status: ('A' for Active; 'I' for Inactive)
REMARK    1  A    between atoms: C_1  and  N_2
REMARK    2  A    between atoms: N_5  and  C_6
REMARK    3  A    between atoms: C_6  and  C_7
REMARK    4  A    between atoms: C_7  and  C_8
REMARK    5  A    between atoms: C_8  and  C_9
REMARK    6  A    between atoms: C_9  and  N_10
REMARK    7  A    between atoms: C_16  and  C_17
REMARK                            x       y       z     vdW  Elec       q    Type
REMARK                         _______ _______ _______ _____ _____    ______ ____
ROOT
ATOM      1  N   UNL     1      -0.367  10.722  20.371  0.00  0.00    +0.000 N 
ATOM      2  C   UNL     1       0.597   9.992  19.707  0.00  0.00    +0.000 A 
ATOM      3  N   UNL     1       1.033  10.519  18.560  0.00  0.00    +0.000 NA
ATOM      4  C   UNL     1       1.893   9.773  17.853  0.00  0.00    +0.000 A 
ATOM      5  C   UNL     1       2.337   8.527  18.266  0.00  0.00    +0.000 A 
ATOM      6  C   UNL     1       3.191   7.697  17.518  0.00  0.00    +0.000 A 
ATOM      7  C   UNL     1       3.684   6.499  18.054  0.00  0.00    +0.000 A 
ATOM      8  C   UNL     1       3.228   6.217  19.354  0.00  0.00    +0.000 A 
ATOM      9  N   UNL     1       3.680   5.134  20.109  0.00  0.00    +0.000 N 
ATOM     10  N   UNL     1       2.345   6.981  20.034  0.00  0.00    +0.000 NA
ATOM     11  C   UNL     1       1.895   8.117  19.507  0.00  0.00    +0.000 A 
ATOM     12  N   UNL     1       1.025   8.826  20.212  0.00  0.00    +0.000 NA
ATOM     13  H   UNL     1      -0.300  11.687  20.066  0.00  0.00    +0.000 HD
ATOM     14  H   UNL     1       3.531   4.259  19.618  0.00  0.00    +0.000 HD
ATOM     15  H   UNL     1       3.129   5.152  20.967  0.00  0.00    +0.000 HD
ENDROOT
BRANCH   7  16
ATOM     16  C   UNL     1       4.631   5.642  17.266  0.00  0.00    +0.000 A 
ATOM     17  C   UNL     1       5.930   6.090  16.898  0.00  0.00    +0.000 A 
ATOM     18 CL   UNL     1       6.599   7.617  17.392  0.00  0.00    +0.000 Cl
ATOM     19  C   UNL     1       6.796   5.311  16.110  0.00  0.00    +0.000 A 
ATOM     20  C   UNL     1       6.442   4.024  15.732  0.00  0.00    +0.000 A 
ATOM     21  C   UNL     1       5.195   3.537  16.094  0.00  0.00    +0.000 A 
ATOM     22  C   UNL     1       4.287   4.347  16.798  0.00  0.00    +0.000 A 
ATOM     23 CL   UNL     1       2.694   3.666  16.947  0.00  0.00    +0.000 Cl
ENDBRANCH   7  16
BRANCH   1  24
ATOM     24  C   UNL     1      -0.469  10.494  21.800  0.00  0.00    +0.000 C 
BRANCH  24  25
ATOM     25  C   UNL     1      -0.817  11.805  22.500  0.00  0.00    +0.000 C 
BRANCH  25  26
ATOM     26  C   UNL     1      -2.144  11.709  23.262  0.00  0.00    +0.000 C 
BRANCH  26  27
ATOM     27  C   UNL     1      -2.946  13.014  23.221  0.00  0.00    +0.000 C 
BRANCH  27  32
ATOM     28  C   UNL     1      -4.699  17.131  25.048  0.00  0.00    +0.000 C 
ATOM     29  N   UNL     1      -3.557  16.523  24.375  0.00  0.00    +0.000 NA
ATOM     30  C   UNL     1      -3.933  16.008  23.046  0.00  0.00    +0.000 C 
ATOM     31  C   UNL     1      -2.745  15.312  22.342  0.00  0.00    +0.000 C 
ATOM     32  N   UNL     1      -2.115  14.224  23.122  0.00  0.00    +0.000 NA
ATOM     33  C   UNL     1      -1.786  14.754  24.465  0.00  0.00    +0.000 C 
ATOM     34  C   UNL     1      -2.967  15.444  25.189  0.00  0.00    +0.000 C 
ENDBRANCH  27  32
ENDBRANCH  26  27
ENDBRANCH  25  26
ENDBRANCH  24  25
ENDBRANCH   1  24
TORSDOF 6
ENDMDL
MODEL 8
REMARK VINA RESULT:      -7.8      0.908      1.121
REMARK  Name = 
REMARK  7 active torsions:
REMARK  status: ('A' for Active; 'I' for Inactive)
REMARK    1  A    between atoms: C_1  and  N_2
REMARK    2  A    between atoms: N_5  and  C_6
REMARK    3  A    between atoms: C_6  and  C_7
REMARK    4  A    between atoms: C_7  and  C_8
REMARK    5  A    between atoms: C_8  and  C_9
REMARK    6  A    between atoms: C_9  and  N_10
REMARK    7  A    between atoms: C_16  and  C_17
REMARK                            x       y       z     vdW  Elec       q    Type
REMARK                         _______ _______ _______ _____ _____    ______ ____
ROOT
ATOM      1  N   UNL     1      -0.257   9.708  21.031  0.00  0.00    +0.000 N 
ATOM      2  C   UNL     1       0.709   9.152  20.218  0.00  0.00    +0.000 A 
ATOM      3  N   UNL     1       0.992   9.835  19.106  0.00  0.00    +0.000 NA
ATOM      4  C   UNL     1       1.853   9.256  18.257  0.00  0.00    +0.000 A 
ATOM      5  C   UNL     1       2.444   8.026  18.494  0.00  0.00    +0.000 A 
ATOM      6  C   UNL     1       3.303   7.368  17.596  0.00  0.00    +0.000 A 
ATOM      7  C   UNL     1       3.950   6.177  17.957  0.00  0.00    +0.000 A 
ATOM      8  C   UNL     1       3.636   5.718  19.248  0.00  0.00    +0.000 A 
ATOM      9  N   UNL     1       4.250   4.615  19.842  0.00  0.00    +0.000 N 
ATOM     10  N   UNL     1       2.749   6.315  20.075  0.00  0.00    +0.000 NA
ATOM     11  C   UNL     1       2.152   7.448  19.713  0.00  0.00    +0.000 A 
ATOM     12  N   UNL     1       1.285   7.989  20.556  0.00  0.00    +0.000 NA
ATOM     13  H   UNL     1      -0.306  10.701  20.830  0.00  0.00    +0.000 HD
ATOM     14  H   UNL     1       4.141   3.784  19.270  0.00  0.00    +0.000 HD
ATOM     15  H   UNL     1       3.776   4.489  20.737  0.00  0.00    +0.000 HD
ENDROOT
BRANCH   7  16
ATOM     16  C   UNL     1       4.899   5.506  17.008  0.00  0.00    +0.000 A 
ATOM     17  C   UNL     1       4.631   4.226  16.446  0.00  0.00    +0.000 A 
ATOM     18 CL   UNL     1       3.154   3.348  16.710  0.00  0.00    +0.000 Cl
ATOM     19  C   UNL     1       5.546   3.572  15.604  0.00  0.00    +0.000 A 
ATOM     20  C   UNL     1       6.722   4.197  15.216  0.00  0.00    +0.000 A 
ATOM     21  C   UNL     1       7.009   5.457  15.717  0.00  0.00    +0.000 A 
ATOM     22  C   UNL     1       6.145   6.076  16.636  0.00  0.00    +0.000 A 
ATOM     23 CL   UNL     1       6.782   7.530  17.345  0.00  0.00    +0.000 Cl
ENDBRANCH   7  16
BRANCH   1  24
ATOM     24  C   UNL     1      -0.213   9.325  22.428  0.00  0.00    +0.000 C 
BRANCH  24  25
ATOM     25  C   UNL     1      -0.931  10.380  23.267  0.00  0.00    +0.000 C 
BRANCH  25  26
ATOM     26  C   UNL     1      -1.330  11.600  22.427  0.00  0.00    +0.000 C 
BRANCH  26  27
ATOM     27  C   UNL     1      -2.692  12.176  22.829  0.00  0.00    +0.000 C 
BRANCH  27  32
ATOM     28  C   UNL     1      -3.411  16.848  23.837  0.00  0.00    +0.000 C 
ATOM     29  N   UNL     1      -3.561  15.818  22.816  0.00  0.00    +0.000 NA
ATOM     30  C   UNL     1      -4.470  14.748  23.267  0.00  0.00    +0.000 C 
ATOM     31  C   UNL     1      -4.597  13.621  22.216  0.00  0.00    +0.000 C 
ATOM     32  N   UNL     1      -3.313  13.020  21.795  0.00  0.00    +0.000 NA
ATOM     33  C   UNL     1      -2.405  14.115  21.389  0.00  0.00    +0.000 C 
ATOM     34  C   UNL     1      -2.257  15.248  22.433  0.00  0.00    +0.000 C 
ENDBRANCH  27  32
ENDBRANCH  26  27
ENDBRANCH  25  26
ENDBRANCH  24  25
ENDBRANCH   1  24
TORSDOF 6
ENDMDL
MODEL 9
REMARK VINA RESULT:      -7.8      1.959      3.365
REMARK  Name = 
REMARK  7 active torsions:
REMARK  status: ('A' for Active; 'I' for Inactive)
REMARK    1  A    between atoms: C_1  and  N_2
REMARK    2  A    between atoms: N_5  and  C_6
REMARK    3  A    between atoms: C_6  and  C_7
REMARK    4  A    between atoms: C_7  and  C_8
REMARK    5  A    between atoms: C_8  and  C_9
REMARK    6  A    between atoms: C_9  and  N_10
REMARK    7  A    between atoms: C_16  and  C_17
REMARK                            x       y       z     vdW  Elec       q    Type
REMARK                         _______ _______ _______ _____ _____    ______ ____
ROOT
ATOM      1  N   UNL     1      -0.300  10.028  20.928  0.00  0.00    +0.000 N 
ATOM      2  C   UNL     1       0.657   9.411  20.149  0.00  0.00    +0.000 A 
ATOM      3  N   UNL     1       0.972  10.041  19.014  0.00  0.00    +0.000 NA
ATOM      4  C   UNL     1       1.823   9.404  18.198  0.00  0.00    +0.000 A 
ATOM      5  C   UNL     1       2.375   8.168  18.491  0.00  0.00    +0.000 A 
ATOM      6  C   UNL     1       3.223   7.449  17.629  0.00  0.00    +0.000 A 
ATOM      7  C   UNL     1       3.831   6.255  18.044  0.00  0.00    +0.000 A 
ATOM      8  C   UNL     1       3.491   5.858  19.349  0.00  0.00    +0.000 A 
ATOM      9  N   UNL     1       4.067   4.762  19.993  0.00  0.00    +0.000 N 
ATOM     10  N   UNL     1       2.614   6.513  20.141  0.00  0.00    +0.000 NA
ATOM     11  C   UNL     1       2.054   7.648  19.728  0.00  0.00    +0.000 A 
ATOM     12  N   UNL     1       1.195   8.247  20.540  0.00  0.00    +0.000 NA
ATOM     13  H   UNL     1      -0.318  11.013  20.687  0.00  0.00    +0.000 HD
ATOM     14  H   UNL     1       3.939   3.913  19.453  0.00  0.00    +0.000 HD
ATOM     15  H   UNL     1       3.580   4.686  20.887  0.00  0.00    +0.000 HD
ENDROOT
BRANCH   7  16
ATOM     16  C   UNL     1       4.770   5.520  17.134  0.00  0.00    +0.000 A 
ATOM     17  C   UNL     1       6.026   6.062  16.742  0.00  0.00    +0.000 A 
ATOM     18 CL   UNL     1       6.653   7.570  17.340  0.00  0.00    +0.000 Cl
ATOM     19  C   UNL     1       6.881   5.399  15.844  0.00  0.00    +0.000 A 
ATOM     20  C   UNL     1       6.564   4.135  15.369  0.00  0.00    +0.000 A 
ATOM     21  C   UNL     1       5.362   3.557  15.747  0.00  0.00    +0.000 A 
ATOM     22  C   UNL     1       4.459   4.255  16.568  0.00  0.00    +0.000 A 
ATOM     23 CL   UNL     1       2.908   3.487  16.735  0.00  0.00    +0.000 Cl
ENDBRANCH   7  16
BRANCH   1  24
ATOM     24  C   UNL     1      -0.282   9.700  22.340  0.00  0.00    +0.000 C 
BRANCH  24  25
ATOM     25  C   UNL     1      -1.126  10.714  23.108  0.00  0.00    +0.000 C 
BRANCH  25  26
ATOM     26  C   UNL     1      -1.563  11.883  22.216  0.00  0.00    +0.000 C 
BRANCH  26  27
ATOM     27  C   UNL     1      -0.730  13.148  22.446  0.00  0.00    +0.000 C 
BRANCH  27  32
ATOM     28  C   UNL     1       1.968  14.147  18.563  0.00  0.00    +0.000 C 
ATOM     29  N   UNL     1       0.788  14.544  19.321  0.00  0.00    +0.000 NA
ATOM     30  C   UNL     1       1.150  14.974  20.685  0.00  0.00    +0.000 C 
ATOM     31  C   UNL     1      -0.098  15.347  21.519  0.00  0.00    +0.000 C 
ATOM     32  N   UNL     1      -1.126  14.286  21.603  0.00  0.00    +0.000 NA
ATOM     33  C   UNL     1      -1.440  13.843  20.226  0.00  0.00    +0.000 C 
ATOM     34  C   UNL     1      -0.204  13.455  19.379  0.00  0.00    +0.000 C 
ENDBRANCH  27  32
ENDBRANCH  26  27
ENDBRANCH  25  26
ENDBRANCH  24  25
ENDBRANCH   1  24
TORSDOF 6
ENDMDL
