MODEL 1
REMARK VINA RESULT:      -7.1      0.000      0.000
REMARK  Name = 
REMARK  6 active torsions:
REMARK  status: ('A' for Active; 'I' for Inactive)
REMARK    1  A    between atoms: C_1  and  C_2
REMARK    2  A    between atoms: C_5  and  N_6
REMARK    3  A    between atoms: C_7  and  C_9
REMARK    4  A    between atoms: C_9  and  N_10
REMARK    5  A    between atoms: C_11  and  N_12
REMARK    6  A    between atoms: C_17  and  C_18
REMARK                            x       y       z     vdW  Elec       q    Type
REMARK                         _______ _______ _______ _____ _____    ______ ____
ROOT
ATOM      1  N   UNL     1       5.474   4.141  17.357  0.00  0.00    +0.000 N 
ATOM      2  C   UNL     1       4.775   5.191  17.991  0.00  0.00    +0.000 C 
ATOM      3  O   UNL     1       4.536   6.241  17.418  0.00  0.00    +0.000 OA
ATOM      4  H   UNL     1       5.958   3.468  17.940  0.00  0.00    +0.000 HD
ENDROOT
BRANCH   1   9
ATOM      5  C   UNL     1       7.413   4.725  11.926  0.00  0.00    +0.000 C 
ATOM      6  C   UNL     1       6.876   4.556  13.321  0.00  0.00    +0.000 A 
ATOM      7  C   UNL     1       7.628   5.022  14.406  0.00  0.00    +0.000 A 
ATOM      8  C   UNL     1       7.170   4.878  15.732  0.00  0.00    +0.000 A 
ATOM      9  C   UNL     1       5.930   4.286  16.008  0.00  0.00    +0.000 A 
ATOM     10  C   UNL     1       5.171   3.827  14.925  0.00  0.00    +0.000 A 
ATOM     11  C   UNL     1       5.639   3.952  13.599  0.00  0.00    +0.000 A 
ATOM     12 CL   UNL     1       4.648   3.334  12.325  0.00  0.00    +0.000 Cl
ENDBRANCH   1   9
BRANCH   2  13
ATOM     13  C   UNL     1       4.460   5.091  19.490  0.00  0.00    +0.000 C 
BRANCH  13  14
ATOM     14  N   UNL     1       3.225   4.388  19.854  0.00  0.00    +0.000 N 
ATOM     15  C   UNL     1       3.067   3.015  19.926  0.00  0.00    +0.000 A 
ATOM     16  C   UNL     1       1.798   2.777  20.399  0.00  0.00    +0.000 A 
ATOM     17  N   UNL     1       1.175   3.951  20.653  0.00  0.00    +0.000 NA
ATOM     18  C   UNL     1       2.026   4.918  20.357  0.00  0.00    +0.000 A 
ATOM     19  C   UNL     1       1.631   6.338  20.581  0.00  0.00    +0.000 C 
BRANCH  15  20
ATOM     20  N   UNL     1       4.008   2.015  19.565  0.00  0.00    +0.000 N 
ATOM     21  O   UNL     1       4.928   1.775  20.371  0.00  0.00    +0.000 OA
ATOM     22  O   UNL     1       3.855   1.471  18.478  0.00  0.00    +0.000 OA
ENDBRANCH  15  20
ENDBRANCH  13  14
ENDBRANCH   2  13
TORSDOF 4
ENDMDL
MODEL 2
REMARK VINA RESULT:      -7.0      3.169      6.694
REMARK  Name = 
REMARK  6 active torsions:
REMARK  status: ('A' for Active; 'I' for Inactive)
REMARK    1  A    between atoms: C_1  and  C_2
REMARK    2  A    between atoms: C_5  and  N_6
REMARK    3  A    between atoms: C_7  and  C_9
REMARK    4  A    between atoms: C_9  and  N_10
REMARK    5  A    between atoms: C_11  and  N_12
REMARK    6  A    between atoms: C_17  and  C_18
REMARK                            x       y       z     vdW  Elec       q    Type
REMARK                         _______ _______ _______ _____ _____    ______ ____
ROOT
ATOM      1  N   UNL     1       3.435   6.179  17.895  0.00  0.00    +0.000 N 
ATOM      2  C   UNL     1       2.926   4.922  17.501  0.00  0.00    +0.000 C 
ATOM      3  O   UNL     1       1.809   4.552  17.823  0.00  0.00    +0.000 OA
ATOM      4  H   UNL     1       4.441   6.299  17.928  0.00  0.00    +0.000 HD
ENDROOT
BRANCH   1   9
ATOM      5  C   UNL     1       0.271   9.715  21.225  0.00  0.00    +0.000 C 
ATOM      6  C   UNL     1       1.090   8.824  20.330  0.00  0.00    +0.000 A 
ATOM      7  C   UNL     1       1.548   7.596  20.820  0.00  0.00    +0.000 A 
ATOM      8  C   UNL     1       2.326   6.732  20.022  0.00  0.00    +0.000 A 
ATOM      9  C   UNL     1       2.642   7.061  18.697  0.00  0.00    +0.000 A 
ATOM     10  C   UNL     1       2.177   8.285  18.200  0.00  0.00    +0.000 A 
ATOM     11  C   UNL     1       1.417   9.159  19.007  0.00  0.00    +0.000 A 
ATOM     12 CL   UNL     1       0.906  10.660  18.319  0.00  0.00    +0.000 Cl
ENDBRANCH   1   9
BRANCH   2  13
ATOM     13  C   UNL     1       3.853   3.918  16.803  0.00  0.00    +0.000 C 
BRANCH  13  14
ATOM     14  N   UNL     1       5.269   4.286  16.714  0.00  0.00    +0.000 N 
ATOM     15  C   UNL     1       6.129   4.461  17.784  0.00  0.00    +0.000 A 
ATOM     16  C   UNL     1       7.381   4.698  17.266  0.00  0.00    +0.000 A 
ATOM     17  N   UNL     1       7.336   4.644  15.915  0.00  0.00    +0.000 NA
ATOM     18  C   UNL     1       6.087   4.373  15.576  0.00  0.00    +0.000 A 
ATOM     19  C   UNL     1       5.737   4.205  14.135  0.00  0.00    +0.000 C 
BRANCH  15  20
ATOM     20  N   UNL     1       5.808   4.432  19.167  0.00  0.00    +0.000 N 
ATOM     21  O   UNL     1       5.433   3.345  19.646  0.00  0.00    +0.000 OA
ATOM     22  O   UNL     1       5.908   5.485  19.785  0.00  0.00    +0.000 OA
ENDBRANCH  15  20
ENDBRANCH  13  14
ENDBRANCH   2  13
TORSDOF 4
ENDMDL
MODEL 3
REMARK VINA RESULT:      -6.9      3.508      6.670
REMARK  Name = 
REMARK  6 active torsions:
REMARK  status: ('A' for Active; 'I' for Inactive)
REMARK    1  A    between atoms: C_1  and  C_2
REMARK    2  A    between atoms: C_5  and  N_6
REMARK    3  A    between atoms: C_7  and  C_9
REMARK    4  A    between atoms: C_9  and  N_10
REMARK    5  A    between atoms: C_11  and  N_12
REMARK    6  A    between atoms: C_17  and  C_18
REMARK                            x       y       z     vdW  Elec       q    Type
REMARK                         _______ _______ _______ _____ _____    ______ ____
ROOT
ATOM      1  N   UNL     1       3.548   6.405  17.628  0.00  0.00    +0.000 N 
ATOM      2  C   UNL     1       3.021   5.105  17.475  0.00  0.00    +0.000 C 
ATOM      3  O   UNL     1       1.895   4.820  17.850  0.00  0.00    +0.000 OA
ATOM      4  H   UNL     1       4.556   6.513  17.649  0.00  0.00    +0.000 HD
ENDROOT
BRANCH   1   9
ATOM      5  C   UNL     1       0.341  10.602  20.017  0.00  0.00    +0.000 C 
ATOM      6  C   UNL     1       1.173   9.492  19.432  0.00  0.00    +0.000 A 
ATOM      7  C   UNL     1       1.601   9.585  18.103  0.00  0.00    +0.000 A 
ATOM      8  C   UNL     1       2.374   8.566  17.509  0.00  0.00    +0.000 A 
ATOM      9  C   UNL     1       2.766   7.436  18.240  0.00  0.00    +0.000 A 
ATOM     10  C   UNL     1       2.346   7.344  19.573  0.00  0.00    +0.000 A 
ATOM     11  C   UNL     1       1.555   8.354  20.160  0.00  0.00    +0.000 A 
ATOM     12 CL   UNL     1       1.061   8.146  21.804  0.00  0.00    +0.000 Cl
ENDBRANCH   1   9
BRANCH   2  13
ATOM     13  C   UNL     1       3.935   3.971  16.990  0.00  0.00    +0.000 C 
BRANCH  13  14
ATOM     14  N   UNL     1       5.347   4.309  16.791  0.00  0.00    +0.000 N 
ATOM     15  C   UNL     1       6.291   4.466  17.792  0.00  0.00    +0.000 A 
ATOM     16  C   UNL     1       7.504   4.676  17.177  0.00  0.00    +0.000 A 
ATOM     17  N   UNL     1       7.353   4.621  15.834  0.00  0.00    +0.000 NA
ATOM     18  C   UNL     1       6.077   4.376  15.593  0.00  0.00    +0.000 A 
ATOM     19  C   UNL     1       5.613   4.214  14.184  0.00  0.00    +0.000 C 
BRANCH  15  20
ATOM     20  N   UNL     1       6.076   4.447  19.195  0.00  0.00    +0.000 N 
ATOM     21  O   UNL     1       5.484   3.459  19.670  0.00  0.00    +0.000 OA
ATOM     22  O   UNL     1       6.475   5.412  19.834  0.00  0.00    +0.000 OA
ENDBRANCH  15  20
ENDBRANCH  13  14
ENDBRANCH   2  13
TORSDOF 4
ENDMDL
MODEL 4
REMARK VINA RESULT:      -6.9      4.080      7.302
REMARK  Name = 
REMARK  6 active torsions:
REMARK  status: ('A' for Active; 'I' for Inactive)
REMARK    1  A    between atoms: C_1  and  C_2
REMARK    2  A    between atoms: C_5  and  N_6
REMARK    3  A    between atoms: C_7  and  C_9
REMARK    4  A    between atoms: C_9  and  N_10
REMARK    5  A    between atoms: C_11  and  N_12
REMARK    6  A    between atoms: C_17  and  C_18
REMARK                            x       y       z     vdW  Elec       q    Type
REMARK                         _______ _______ _______ _____ _____    ______ ____
ROOT
ATOM      1  N   UNL     1       2.692   6.959  19.961  0.00  0.00    +0.000 N 
ATOM      2  C   UNL     1       2.275   5.627  20.179  0.00  0.00    +0.000 C 
ATOM      3  O   UNL     1       1.146   5.362  20.556  0.00  0.00    +0.000 OA
ATOM      4  H   UNL     1       3.684   7.162  20.006  0.00  0.00    +0.000 HD
ENDROOT
BRANCH   1   9
ATOM      5  C   UNL     1      -0.998  11.352  20.786  0.00  0.00    +0.000 C 
ATOM      6  C   UNL     1      -0.042  10.203  20.612  0.00  0.00    +0.000 A 
ATOM      7  C   UNL     1       0.481   9.934  19.342  0.00  0.00    +0.000 A 
ATOM      8  C   UNL     1       1.373   8.863  19.128  0.00  0.00    +0.000 A 
ATOM      9  C   UNL     1       1.789   8.046  20.188  0.00  0.00    +0.000 A 
ATOM     10  C   UNL     1       1.274   8.318  21.461  0.00  0.00    +0.000 A 
ATOM     11  C   UNL     1       0.365   9.377  21.671  0.00  0.00    +0.000 A 
ATOM     12 CL   UNL     1      -0.238   9.624  23.272  0.00  0.00    +0.000 Cl
ENDBRANCH   1   9
BRANCH   2  13
ATOM     13  C   UNL     1       3.306   4.493  20.111  0.00  0.00    +0.000 C 
BRANCH  13  14
ATOM     14  N   UNL     1       4.010   4.322  18.836  0.00  0.00    +0.000 N 
ATOM     15  C   UNL     1       3.457   3.836  17.664  0.00  0.00    +0.000 A 
ATOM     16  C   UNL     1       4.421   3.934  16.688  0.00  0.00    +0.000 A 
ATOM     17  N   UNL     1       5.540   4.494  17.203  0.00  0.00    +0.000 NA
ATOM     18  C   UNL     1       5.297   4.754  18.476  0.00  0.00    +0.000 A 
ATOM     19  C   UNL     1       6.344   5.423  19.302  0.00  0.00    +0.000 C 
BRANCH  15  20
ATOM     20  N   UNL     1       2.153   3.305  17.478  0.00  0.00    +0.000 N 
ATOM     21  O   UNL     1       1.232   4.113  17.251  0.00  0.00    +0.000 OA
ATOM     22  O   UNL     1       2.027   2.090  17.569  0.00  0.00    +0.000 OA
ENDBRANCH  15  20
ENDBRANCH  13  14
ENDBRANCH   2  13
TORSDOF 4
ENDMDL
MODEL 5
REMARK VINA RESULT:      -6.6      4.285      7.376
REMARK  Name = 
REMARK  6 active torsions:
REMARK  status: ('A' for Active; 'I' for Inactive)
REMARK    1  A    between atoms: C_1  and  C_2
REMARK    2  A    between atoms: C_5  and  N_6
REMARK    3  A    between atoms: C_7  and  C_9
REMARK    4  A    between atoms: C_9  and  N_10
REMARK    5  A    between atoms: C_11  and  N_12
REMARK    6  A    between atoms: C_17  and  C_18
REMARK                            x       y       z     vdW  Elec       q    Type
REMARK                         _______ _______ _______ _____ _____    ______ ____
ROOT
ATOM      1  N   UNL     1       2.435   7.060  20.331  0.00  0.00    +0.000 N 
ATOM      2  C   UNL     1       1.904   5.754  20.405  0.00  0.00    +0.000 C 
ATOM      3  O   UNL     1       0.710   5.554  20.559  0.00  0.00    +0.000 OA
ATOM      4  H   UNL     1       3.413   7.193  20.565  0.00  0.00    +0.000 HD
ENDROOT
BRANCH   1   9
ATOM      5  C   UNL     1      -1.076  11.659  20.684  0.00  0.00    +0.000 C 
ATOM      6  C   UNL     1      -0.170  10.458  20.632  0.00  0.00    +0.000 A 
ATOM      7  C   UNL     1       0.431  10.106  19.419  0.00  0.00    +0.000 A 
ATOM      8  C   UNL     1       1.280   8.984  19.319  0.00  0.00    +0.000 A 
ATOM      9  C   UNL     1       1.575   8.199  20.442  0.00  0.00    +0.000 A 
ATOM     10  C   UNL     1       0.982   8.554  21.659  0.00  0.00    +0.000 A 
ATOM     11  C   UNL     1       0.115   9.663  21.754  0.00  0.00    +0.000 A 
ATOM     12 CL   UNL     1      -0.592  10.014  23.292  0.00  0.00    +0.000 Cl
ENDBRANCH   1   9
BRANCH   2  13
ATOM     13  C   UNL     1       2.858   4.554  20.472  0.00  0.00    +0.000 C 
BRANCH  13  14
ATOM     14  N   UNL     1       3.104   3.842  19.214  0.00  0.00    +0.000 N 
ATOM     15  C   UNL     1       4.250   3.931  18.444  0.00  0.00    +0.000 A 
ATOM     16  C   UNL     1       4.117   3.033  17.411  0.00  0.00    +0.000 A 
ATOM     17  N   UNL     1       2.945   2.367  17.530  0.00  0.00    +0.000 NA
ATOM     18  C   UNL     1       2.345   2.822  18.616  0.00  0.00    +0.000 A 
ATOM     19  C   UNL     1       1.039   2.236  19.034  0.00  0.00    +0.000 C 
BRANCH  15  20
ATOM     20  N   UNL     1       5.361   4.794  18.641  0.00  0.00    +0.000 N 
ATOM     21  O   UNL     1       5.276   5.950  18.185  0.00  0.00    +0.000 OA
ATOM     22  O   UNL     1       6.329   4.331  19.233  0.00  0.00    +0.000 OA
ENDBRANCH  15  20
ENDBRANCH  13  14
ENDBRANCH   2  13
TORSDOF 4
ENDMDL
MODEL 6
REMARK VINA RESULT:      -6.6      4.126      6.818
REMARK  Name = 
REMARK  6 active torsions:
REMARK  status: ('A' for Active; 'I' for Inactive)
REMARK    1  A    between atoms: C_1  and  C_2
REMARK    2  A    between atoms: C_5  and  N_6
REMARK    3  A    between atoms: C_7  and  C_9
REMARK    4  A    between atoms: C_9  and  N_10
REMARK    5  A    between atoms: C_11  and  N_12
REMARK    6  A    between atoms: C_17  and  C_18
REMARK                            x       y       z     vdW  Elec       q    Type
REMARK                         _______ _______ _______ _____ _____    ______ ____
ROOT
ATOM      1  N   UNL     1       2.718   7.273  19.054  0.00  0.00    +0.000 N 
ATOM      2  C   UNL     1       2.584   6.097  19.824  0.00  0.00    +0.000 C 
ATOM      3  O   UNL     1       1.659   5.942  20.604  0.00  0.00    +0.000 OA
ATOM      4  H   UNL     1       3.641   7.519  18.714  0.00  0.00    +0.000 HD
ENDROOT
BRANCH   1   9
ATOM      5  C   UNL     1      -1.196  11.530  19.455  0.00  0.00    +0.000 C 
ATOM      6  C   UNL     1      -0.180  10.421  19.392  0.00  0.00    +0.000 A 
ATOM      7  C   UNL     1       0.320  10.021  18.147  0.00  0.00    +0.000 A 
ATOM      8  C   UNL     1       1.265   8.980  18.037  0.00  0.00    +0.000 A 
ATOM      9  C   UNL     1       1.760   8.330  19.175  0.00  0.00    +0.000 A 
ATOM     10  C   UNL     1       1.269   8.734  20.423  0.00  0.00    +0.000 A 
ATOM     11  C   UNL     1       0.306   9.761  20.531  0.00  0.00    +0.000 A 
ATOM     12 CL   UNL     1      -0.263  10.178  22.109  0.00  0.00    +0.000 Cl
ENDBRANCH   1   9
BRANCH   2  13
ATOM     13  C   UNL     1       3.715   5.059  19.820  0.00  0.00    +0.000 C 
BRANCH  13  14
ATOM     14  N   UNL     1       3.423   3.776  19.174  0.00  0.00    +0.000 N 
ATOM     15  C   UNL     1       2.695   2.737  19.727  0.00  0.00    +0.000 A 
ATOM     16  C   UNL     1       2.570   1.767  18.760  0.00  0.00    +0.000 A 
ATOM     17  N   UNL     1       3.165   2.180  17.617  0.00  0.00    +0.000 NA
ATOM     18  C   UNL     1       3.653   3.387  17.844  0.00  0.00    +0.000 A 
ATOM     19  C   UNL     1       4.334   4.124  16.739  0.00  0.00    +0.000 C 
BRANCH  15  20
ATOM     20  N   UNL     1       2.182   2.647  21.049  0.00  0.00    +0.000 N 
ATOM     21  O   UNL     1       2.991   2.385  21.960  0.00  0.00    +0.000 OA
ATOM     22  O   UNL     1       0.978   2.819  21.193  0.00  0.00    +0.000 OA
ENDBRANCH  15  20
ENDBRANCH  13  14
ENDBRANCH   2  13
TORSDOF 4
ENDMDL
MODEL 7
REMARK VINA RESULT:      -6.5      3.869      6.498
REMARK  Name = 
REMARK  6 active torsions:
REMARK  status: ('A' for Active; 'I' for Inactive)
REMARK    1  A    between atoms: C_1  and  C_2
REMARK    2  A    between atoms: C_5  and  N_6
REMARK    3  A    between atoms: C_7  and  C_9
REMARK    4  A    between atoms: C_9  and  N_10
REMARK    5  A    between atoms: C_11  and  N_12
REMARK    6  A    between atoms: C_17  and  C_18
REMARK                            x       y       z     vdW  Elec       q    Type
REMARK                         _______ _______ _______ _____ _____    ______ ____
ROOT
ATOM      1  N   UNL     1       2.727   6.717  20.074  0.00  0.00    +0.000 N 
ATOM      2  C   UNL     1       3.695   6.215  19.177  0.00  0.00    +0.000 C 
ATOM      3  O   UNL     1       3.900   6.739  18.095  0.00  0.00    +0.000 OA
ATOM      4  H   UNL     1       2.338   6.083  20.763  0.00  0.00    +0.000 HD
ENDROOT
BRANCH   1   9
ATOM      5  C   UNL     1      -0.441  11.337  18.581  0.00  0.00    +0.000 C 
ATOM      6  C   UNL     1       0.369  10.142  19.008  0.00  0.00    +0.000 A 
ATOM      7  C   UNL     1       1.134   9.459  18.056  0.00  0.00    +0.000 A 
ATOM      8  C   UNL     1       1.901   8.329  18.406  0.00  0.00    +0.000 A 
ATOM      9  C   UNL     1       1.947   7.868  19.728  0.00  0.00    +0.000 A 
ATOM     10  C   UNL     1       1.190   8.554  20.685  0.00  0.00    +0.000 A 
ATOM     11  C   UNL     1       0.406   9.673  20.330  0.00  0.00    +0.000 A 
ATOM     12 CL   UNL     1      -0.517  10.445  21.571  0.00  0.00    +0.000 Cl
ENDBRANCH   1   9
BRANCH   2  13
ATOM     13  C   UNL     1       4.386   4.879  19.482  0.00  0.00    +0.000 C 
BRANCH  13  14
ATOM     14  N   UNL     1       3.705   3.668  19.015  0.00  0.00    +0.000 N 
ATOM     15  C   UNL     1       2.736   2.965  19.710  0.00  0.00    +0.000 A 
ATOM     16  C   UNL     1       2.289   1.962  18.882  0.00  0.00    +0.000 A 
ATOM     17  N   UNL     1       2.921   2.038  17.688  0.00  0.00    +0.000 NA
ATOM     18  C   UNL     1       3.747   3.067  17.747  0.00  0.00    +0.000 A 
ATOM     19  C   UNL     1       4.556   3.430  16.547  0.00  0.00    +0.000 C 
BRANCH  15  20
ATOM     20  N   UNL     1       2.285   3.193  21.037  0.00  0.00    +0.000 N 
ATOM     21  O   UNL     1       2.796   2.506  21.942  0.00  0.00    +0.000 OA
ATOM     22  O   UNL     1       1.414   4.040  21.192  0.00  0.00    +0.000 OA
ENDBRANCH  15  20
ENDBRANCH  13  14
ENDBRANCH   2  13
TORSDOF 4
ENDMDL
MODEL 8
REMARK VINA RESULT:      -6.5      5.452      7.648
REMARK  Name = 
REMARK  6 active torsions:
REMARK  status: ('A' for Active; 'I' for Inactive)
REMARK    1  A    between atoms: C_1  and  C_2
REMARK    2  A    between atoms: C_5  and  N_6
REMARK    3  A    between atoms: C_7  and  C_9
REMARK    4  A    between atoms: C_9  and  N_10
REMARK    5  A    between atoms: C_11  and  N_12
REMARK    6  A    between atoms: C_17  and  C_18
REMARK                            x       y       z     vdW  Elec       q    Type
REMARK                         _______ _______ _______ _____ _____    ______ ____
ROOT
ATOM      1  N   UNL     1       2.214   7.589  20.505  0.00  0.00    +0.000 N 
ATOM      2  C   UNL     1       1.160   8.242  21.182  0.00  0.00    +0.000 C 
ATOM      3  O   UNL     1       0.085   7.699  21.370  0.00  0.00    +0.000 OA
ATOM      4  H   UNL     1       2.923   8.160  20.060  0.00  0.00    +0.000 HD
ENDROOT
BRANCH   1   9
ATOM      5  C   UNL     1       1.571   2.214  18.430  0.00  0.00    +0.000 C 
ATOM      6  C   UNL     1       1.732   3.595  19.007  0.00  0.00    +0.000 A 
ATOM      7  C   UNL     1       1.968   4.674  18.146  0.00  0.00    +0.000 A 
ATOM      8  C   UNL     1       2.135   5.984  18.640  0.00  0.00    +0.000 A 
ATOM      9  C   UNL     1       2.040   6.256  20.012  0.00  0.00    +0.000 A 
ATOM     10  C   UNL     1       1.795   5.182  20.875  0.00  0.00    +0.000 A 
ATOM     11  C   UNL     1       1.650   3.867  20.382  0.00  0.00    +0.000 A 
ATOM     12 CL   UNL     1       1.375   2.597  21.522  0.00  0.00    +0.000 Cl
ENDBRANCH   1   9
BRANCH   2  13
ATOM     13  C   UNL     1       1.298   9.729  21.537  0.00  0.00    +0.000 C 
BRANCH  13  14
ATOM     14  N   UNL     1       0.357  10.647  20.889  0.00  0.00    +0.000 N 
ATOM     15  C   UNL     1       0.317  10.945  19.538  0.00  0.00    +0.000 A 
ATOM     16  C   UNL     1      -0.771  11.763  19.335  0.00  0.00    +0.000 A 
ATOM     17  N   UNL     1      -1.425  11.955  20.503  0.00  0.00    +0.000 NA
ATOM     18  C   UNL     1      -0.777  11.274  21.432  0.00  0.00    +0.000 A 
ATOM     19  C   UNL     1      -1.297  11.259  22.830  0.00  0.00    +0.000 C 
BRANCH  15  20
ATOM     20  N   UNL     1       1.225  10.524  18.531  0.00  0.00    +0.000 N 
ATOM     21  O   UNL     1       1.040   9.399  18.027  0.00  0.00    +0.000 OA
ATOM     22  O   UNL     1       2.134  11.292  18.243  0.00  0.00    +0.000 OA
ENDBRANCH  15  20
ENDBRANCH  13  14
ENDBRANCH   2  13
TORSDOF 4
ENDMDL
MODEL 9
REMARK VINA RESULT:      -6.5      1.155      1.549
REMARK  Name = 
REMARK  6 active torsions:
REMARK  status: ('A' for Active; 'I' for Inactive)
REMARK    1  A    between atoms: C_1  and  C_2
REMARK    2  A    between atoms: C_5  and  N_6
REMARK    3  A    between atoms: C_7  and  C_9
REMARK    4  A    between atoms: C_9  and  N_10
REMARK    5  A    between atoms: C_11  and  N_12
REMARK    6  A    between atoms: C_17  and  C_18
REMARK                            x       y       z     vdW  Elec       q    Type
REMARK                         _______ _______ _______ _____ _____    ______ ____
ROOT
ATOM      1  N   UNL     1       5.650   4.192  17.212  0.00  0.00    +0.000 N 
ATOM      2  C   UNL     1       4.788   5.184  17.729  0.00  0.00    +0.000 C 
ATOM      3  O   UNL     1       4.312   6.055  17.020  0.00  0.00    +0.000 OA
ATOM      4  H   UNL     1       6.289   3.733  17.851  0.00  0.00    +0.000 HD
ENDROOT
BRANCH   1   9
ATOM      5  C   UNL     1       6.953   4.155  11.564  0.00  0.00    +0.000 C 
ATOM      6  C   UNL     1       6.646   4.189  13.037  0.00  0.00    +0.000 A 
ATOM      7  C   UNL     1       5.556   3.462  13.527  0.00  0.00    +0.000 A 
ATOM      8  C   UNL     1       5.224   3.471  14.897  0.00  0.00    +0.000 A 
ATOM      9  C   UNL     1       5.995   4.187  15.823  0.00  0.00    +0.000 A 
ATOM     10  C   UNL     1       7.092   4.908  15.338  0.00  0.00    +0.000 A 
ATOM     11  C   UNL     1       7.411   4.917  13.963  0.00  0.00    +0.000 A 
ATOM     12 CL   UNL     1       8.769   5.855  13.449  0.00  0.00    +0.000 Cl
ENDBRANCH   1   9
BRANCH   2  13
ATOM     13  C   UNL     1       4.579   5.286  19.246  0.00  0.00    +0.000 C 
BRANCH  13  14
ATOM     14  N   UNL     1       3.373   4.649  19.785  0.00  0.00    +0.000 N 
ATOM     15  C   UNL     1       3.201   3.292  19.996  0.00  0.00    +0.000 A 
ATOM     16  C   UNL     1       1.978   3.127  20.604  0.00  0.00    +0.000 A 
ATOM     17  N   UNL     1       1.401   4.334  20.808  0.00  0.00    +0.000 NA
ATOM     18  C   UNL     1       2.235   5.250  20.348  0.00  0.00    +0.000 A 
ATOM     19  C   UNL     1       1.886   6.694  20.478  0.00  0.00    +0.000 C 
BRANCH  15  20
ATOM     20  N   UNL     1       4.087   2.241  19.641  0.00  0.00    +0.000 N 
ATOM     21  O   UNL     1       4.962   1.924  20.470  0.00  0.00    +0.000 OA
ATOM     22  O   UNL     1       3.936   1.732  18.537  0.00  0.00    +0.000 OA
ENDBRANCH  15  20
ENDBRANCH  13  14
ENDBRANCH   2  13
TORSDOF 4
ENDMDL
