MODEL 1
REMARK VINA RESULT:      -8.3      0.000      0.000
REMARK  Name = 
REMARK  7 active torsions:
REMARK  status: ('A' for Active; 'I' for Inactive)
REMARK    1  A    between atoms: C_1  and  O_2
REMARK    2  A    between atoms: O_2  and  C_3
REMARK    3  A    between atoms: C_6  and  S_7
REMARK    4  A    between atoms: S_7  and  N_10
REMARK    5  A    between atoms: N_10  and  C_11
REMARK    6  A    between atoms: C_13  and  O_14
REMARK    7  A    between atoms: O_14  and  C_15
REMARK                            x       y       z     vdW  Elec       q    Type
REMARK                         _______ _______ _______ _____ _____    ______ ____
ROOT
ATOM      1  N   UNL     1       6.036   4.195  18.514  0.00  0.00    +0.000 N 
ATOM      2  H   UNL     1       6.312   4.325  19.493  0.00  0.00    +0.000 HD
ENDROOT
BRANCH   1   3
ATOM      3  C   UNL     1       4.720   4.728  18.255  0.00  0.00    +0.000 A 
ATOM      4  C   UNL     1       4.583   6.112  18.117  0.00  0.00    +0.000 A 
ATOM      5  C   UNL     1       3.317   6.685  18.044  0.00  0.00    +0.000 A 
ATOM      6  C   UNL     1       2.197   5.867  18.162  0.00  0.00    +0.000 A 
ATOM      7  C   UNL     1       2.338   4.480  18.335  0.00  0.00    +0.000 A 
ATOM      8  C   UNL     1       1.225   3.670  18.589  0.00  0.00    +0.000 A 
ATOM      9  C   UNL     1       1.388   2.301  18.750  0.00  0.00    +0.000 A 
ATOM     10  C   UNL     1       2.657   1.779  18.599  0.00  0.00    +0.000 A 
ATOM     11  N   UNL     1       3.760   2.530  18.379  0.00  0.00    +0.000 NA
ATOM     12  C   UNL     1       3.609   3.873  18.308  0.00  0.00    +0.000 A 
BRANCH   5  13
ATOM     13  O   UNL     1       3.300   8.044  17.908  0.00  0.00    +0.000 OA
ATOM     14  C   UNL     1       2.022   8.664  17.824  0.00  0.00    +0.000 C 
ENDBRANCH   5  13
ENDBRANCH   1   3
BRANCH   1  15
ATOM     15  S   UNL     1       7.291   4.892  17.579  0.00  0.00    +0.000 S 
ATOM     16  O   UNL     1       8.473   4.103  17.848  0.00  0.00    +0.000 OA
ATOM     17  O   UNL     1       7.308   6.329  17.736  0.00  0.00    +0.000 OA
BRANCH  15  21
ATOM     18  C   UNL     1       6.191   3.880  13.251  0.00  0.00    +0.000 A 
ATOM     19  C   UNL     1       7.191   4.816  13.531  0.00  0.00    +0.000 A 
ATOM     20  C   UNL     1       7.516   5.138  14.850  0.00  0.00    +0.000 A 
ATOM     21  C   UNL     1       6.803   4.550  15.900  0.00  0.00    +0.000 A 
ATOM     22  C   UNL     1       5.810   3.610  15.633  0.00  0.00    +0.000 A 
ATOM     23  C   UNL     1       5.501   3.277  14.304  0.00  0.00    +0.000 A 
BRANCH  18  25
ATOM     24  C   UNL     1       4.680   3.151  11.578  0.00  0.00    +0.000 C 
ATOM     25  O   UNL     1       5.959   3.670  11.921  0.00  0.00    +0.000 OA
ENDBRANCH  18  25
ENDBRANCH  15  21
ENDBRANCH   1  15
TORSDOF 5
ENDMDL
MODEL 2
REMARK VINA RESULT:      -8.2      2.688      6.501
REMARK  Name = 
REMARK  7 active torsions:
REMARK  status: ('A' for Active; 'I' for Inactive)
REMARK    1  A    between atoms: C_1  and  O_2
REMARK    2  A    between atoms: O_2  and  C_3
REMARK    3  A    between atoms: C_6  and  S_7
REMARK    4  A    between atoms: S_7  and  N_10
REMARK    5  A    between atoms: N_10  and  C_11
REMARK    6  A    between atoms: C_13  and  O_14
REMARK    7  A    between atoms: O_14  and  C_15
REMARK                            x       y       z     vdW  Elec       q    Type
REMARK                         _______ _______ _______ _____ _____    ______ ____
ROOT
ATOM      1  N   UNL     1       4.265   2.787  18.083  0.00  0.00    +0.000 N 
ATOM      2  H   UNL     1       4.413   1.823  17.766  0.00  0.00    +0.000 HD
ENDROOT
BRANCH   1   3
ATOM      3  C   UNL     1       4.936   3.739  17.231  0.00  0.00    +0.000 A 
ATOM      4  C   UNL     1       4.782   3.611  15.848  0.00  0.00    +0.000 A 
ATOM      5  C   UNL     1       5.548   4.390  14.985  0.00  0.00    +0.000 A 
ATOM      6  C   UNL     1       6.500   5.254  15.519  0.00  0.00    +0.000 A 
ATOM      7  C   UNL     1       6.676   5.355  16.910  0.00  0.00    +0.000 A 
ATOM      8  C   UNL     1       7.719   6.118  17.448  0.00  0.00    +0.000 A 
ATOM      9  C   UNL     1       7.870   6.208  18.825  0.00  0.00    +0.000 A 
ATOM     10  C   UNL     1       6.937   5.573  19.620  0.00  0.00    +0.000 A 
ATOM     11  N   UNL     1       5.932   4.806  19.139  0.00  0.00    +0.000 NA
ATOM     12  C   UNL     1       5.840   4.651  17.797  0.00  0.00    +0.000 A 
BRANCH   5  13
ATOM     13  O   UNL     1       5.315   4.185  13.655  0.00  0.00    +0.000 OA
ATOM     14  C   UNL     1       6.423   3.763  12.867  0.00  0.00    +0.000 C 
ENDBRANCH   5  13
ENDBRANCH   1   3
BRANCH   1  15
ATOM     15  S   UNL     1       2.566   2.988  18.186  0.00  0.00    +0.000 S 
ATOM     16  O   UNL     1       2.105   2.004  19.140  0.00  0.00    +0.000 OA
ATOM     17  O   UNL     1       1.981   3.072  16.866  0.00  0.00    +0.000 OA
BRANCH  15  21
ATOM     18  C   UNL     1       1.893   7.104  20.074  0.00  0.00    +0.000 A 
ATOM     19  C   UNL     1       2.260   6.990  18.730  0.00  0.00    +0.000 A 
ATOM     20  C   UNL     1       2.481   5.735  18.157  0.00  0.00    +0.000 A 
ATOM     21  C   UNL     1       2.378   4.587  18.949  0.00  0.00    +0.000 A 
ATOM     22  C   UNL     1       2.006   4.689  20.287  0.00  0.00    +0.000 A 
ATOM     23  C   UNL     1       1.766   5.953  20.852  0.00  0.00    +0.000 A 
BRANCH  18  25
ATOM     24  C   UNL     1       0.569   8.636  21.306  0.00  0.00    +0.000 C 
ATOM     25  O   UNL     1       1.724   8.387  20.514  0.00  0.00    +0.000 OA
ENDBRANCH  18  25
ENDBRANCH  15  21
ENDBRANCH   1  15
TORSDOF 5
ENDMDL
MODEL 3
REMARK VINA RESULT:      -8.2      2.631      6.460
REMARK  Name = 
REMARK  7 active torsions:
REMARK  status: ('A' for Active; 'I' for Inactive)
REMARK    1  A    between atoms: C_1  and  O_2
REMARK    2  A    between atoms: O_2  and  C_3
REMARK    3  A    between atoms: C_6  and  S_7
REMARK    4  A    between atoms: S_7  and  N_10
REMARK    5  A    between atoms: N_10  and  C_11
REMARK    6  A    between atoms: C_13  and  O_14
REMARK    7  A    between atoms: O_14  and  C_15
REMARK                            x       y       z     vdW  Elec       q    Type
REMARK                         _______ _______ _______ _____ _____    ______ ____
ROOT
ATOM      1  N   UNL     1       4.308   2.781  18.144  0.00  0.00    +0.000 N 
ATOM      2  H   UNL     1       4.519   1.812  17.885  0.00  0.00    +0.000 HD
ENDROOT
BRANCH   1   3
ATOM      3  C   UNL     1       4.972   3.724  17.276  0.00  0.00    +0.000 A 
ATOM      4  C   UNL     1       4.819   3.571  15.896  0.00  0.00    +0.000 A 
ATOM      5  C   UNL     1       5.578   4.341  15.020  0.00  0.00    +0.000 A 
ATOM      6  C   UNL     1       6.523   5.222  15.539  0.00  0.00    +0.000 A 
ATOM      7  C   UNL     1       6.697   5.349  16.927  0.00  0.00    +0.000 A 
ATOM      8  C   UNL     1       7.733   6.131  17.453  0.00  0.00    +0.000 A 
ATOM      9  C   UNL     1       7.882   6.245  18.828  0.00  0.00    +0.000 A 
ATOM     10  C   UNL     1       6.955   5.616  19.634  0.00  0.00    +0.000 A 
ATOM     11  N   UNL     1       5.957   4.832  19.165  0.00  0.00    +0.000 NA
ATOM     12  C   UNL     1       5.867   4.653  17.827  0.00  0.00    +0.000 A 
BRANCH   5  13
ATOM     13  O   UNL     1       5.347   4.111  13.693  0.00  0.00    +0.000 OA
ATOM     14  C   UNL     1       6.491   3.976  12.857  0.00  0.00    +0.000 C 
ENDBRANCH   5  13
ENDBRANCH   1   3
BRANCH   1  15
ATOM     15  S   UNL     1       2.599   2.897  18.159  0.00  0.00    +0.000 S 
ATOM     16  O   UNL     1       2.142   1.935  19.137  0.00  0.00    +0.000 OA
ATOM     17  O   UNL     1       2.075   2.889  16.811  0.00  0.00    +0.000 OA
BRANCH  15  21
ATOM     18  C   UNL     1       2.006   7.061  19.967  0.00  0.00    +0.000 A 
ATOM     19  C   UNL     1       1.848   5.916  20.752  0.00  0.00    +0.000 A 
ATOM     20  C   UNL     1       2.012   4.645  20.198  0.00  0.00    +0.000 A 
ATOM     21  C   UNL     1       2.294   4.518  18.834  0.00  0.00    +0.000 A 
ATOM     22  C   UNL     1       2.461   5.652  18.043  0.00  0.00    +0.000 A 
ATOM     23  C   UNL     1       2.313   6.929  18.611  0.00  0.00    +0.000 A 
BRANCH  18  25
ATOM     24  C   UNL     1       1.019   9.216  19.946  0.00  0.00    +0.000 C 
ATOM     25  O   UNL     1       1.800   8.241  20.626  0.00  0.00    +0.000 OA
ENDBRANCH  18  25
ENDBRANCH  15  21
ENDBRANCH   1  15
TORSDOF 5
ENDMDL
MODEL 4
REMARK VINA RESULT:      -8.0      3.009      4.286
REMARK  Name = 
REMARK  7 active torsions:
REMARK  status: ('A' for Active; 'I' for Inactive)
REMARK    1  A    between atoms: C_1  and  O_2
REMARK    2  A    between atoms: O_2  and  C_3
REMARK    3  A    between atoms: C_6  and  S_7
REMARK    4  A    between atoms: S_7  and  N_10
REMARK    5  A    between atoms: N_10  and  C_11
REMARK    6  A    between atoms: C_13  and  O_14
REMARK    7  A    between atoms: O_14  and  C_15
REMARK                            x       y       z     vdW  Elec       q    Type
REMARK                         _______ _______ _______ _____ _____    ______ ____
ROOT
ATOM      1  N   UNL     1       4.083   5.164  17.194  0.00  0.00    +0.000 N 
ATOM      2  H   UNL     1       3.756   4.490  16.494  0.00  0.00    +0.000 HD
ENDROOT
BRANCH   1   3
ATOM      3  C   UNL     1       3.110   5.365  18.240  0.00  0.00    +0.000 A 
ATOM      4  C   UNL     1       3.010   6.635  18.814  0.00  0.00    +0.000 A 
ATOM      5  C   UNL     1       2.218   6.833  19.940  0.00  0.00    +0.000 A 
ATOM      6  C   UNL     1       1.571   5.740  20.512  0.00  0.00    +0.000 A 
ATOM      7  C   UNL     1       1.700   4.458  19.952  0.00  0.00    +0.000 A 
ATOM      8  C   UNL     1       1.165   3.336  20.595  0.00  0.00    +0.000 A 
ATOM      9  C   UNL     1       1.300   2.080  20.020  0.00  0.00    +0.000 A 
ATOM     10  C   UNL     1       1.921   1.995  18.790  0.00  0.00    +0.000 A 
ATOM     11  N   UNL     1       2.473   3.051  18.150  0.00  0.00    +0.000 NA
ATOM     12  C   UNL     1       2.415   4.261  18.755  0.00  0.00    +0.000 A 
BRANCH   5  13
ATOM     13  O   UNL     1       2.191   8.113  20.417  0.00  0.00    +0.000 OA
ATOM     14  C   UNL     1       1.116   8.452  21.286  0.00  0.00    +0.000 C 
ENDBRANCH   5  13
ENDBRANCH   1   3
BRANCH   1  15
ATOM     15  S   UNL     1       5.603   4.579  17.728  0.00  0.00    +0.000 S 
ATOM     16  O   UNL     1       6.120   3.768  16.648  0.00  0.00    +0.000 OA
ATOM     17  O   UNL     1       5.503   4.050  19.071  0.00  0.00    +0.000 OA
BRANCH  15  21
ATOM     18  C   UNL     1       8.054   8.430  18.070  0.00  0.00    +0.000 A 
ATOM     19  C   UNL     1       6.993   8.340  17.164  0.00  0.00    +0.000 A 
ATOM     20  C   UNL     1       6.255   7.160  17.047  0.00  0.00    +0.000 A 
ATOM     21  C   UNL     1       6.611   6.045  17.813  0.00  0.00    +0.000 A 
ATOM     22  C   UNL     1       7.661   6.126  18.724  0.00  0.00    +0.000 A 
ATOM     23  C   UNL     1       8.387   7.322  18.851  0.00  0.00    +0.000 A 
BRANCH  18  25
ATOM     24  C   UNL     1       9.230  10.063  19.323  0.00  0.00    +0.000 C 
ATOM     25  O   UNL     1       8.705   9.632  18.073  0.00  0.00    +0.000 OA
ENDBRANCH  18  25
ENDBRANCH  15  21
ENDBRANCH   1  15
TORSDOF 5
ENDMDL
MODEL 5
REMARK VINA RESULT:      -7.9      1.122      1.122
REMARK  Name = 
REMARK  7 active torsions:
REMARK  status: ('A' for Active; 'I' for Inactive)
REMARK    1  A    between atoms: C_1  and  O_2
REMARK    2  A    between atoms: O_2  and  C_3
REMARK    3  A    between atoms: C_6  and  S_7
REMARK    4  A    between atoms: S_7  and  N_10
REMARK    5  A    between atoms: N_10  and  C_11
REMARK    6  A    between atoms: C_13  and  O_14
REMARK    7  A    between atoms: O_14  and  C_15
REMARK                            x       y       z     vdW  Elec       q    Type
REMARK                         _______ _______ _______ _____ _____    ______ ____
ROOT
ATOM      1  N   UNL     1       5.899   4.072  18.655  0.00  0.00    +0.000 N 
ATOM      2  H   UNL     1       6.300   3.937  19.588  0.00  0.00    +0.000 HD
ENDROOT
BRANCH   1   3
ATOM      3  C   UNL     1       4.604   4.707  18.716  0.00  0.00    +0.000 A 
ATOM      4  C   UNL     1       4.437   5.931  18.064  0.00  0.00    +0.000 A 
ATOM      5  C   UNL     1       3.268   6.664  18.243  0.00  0.00    +0.000 A 
ATOM      6  C   UNL     1       2.296   6.184  19.117  0.00  0.00    +0.000 A 
ATOM      7  C   UNL     1       2.481   4.969  19.796  0.00  0.00    +0.000 A 
ATOM      8  C   UNL     1       1.573   4.547  20.775  0.00  0.00    +0.000 A 
ATOM      9  C   UNL     1       1.774   3.339  21.429  0.00  0.00    +0.000 A 
ATOM     10  C   UNL     1       2.851   2.566  21.044  0.00  0.00    +0.000 A 
ATOM     11  N   UNL     1       3.764   2.950  20.123  0.00  0.00    +0.000 NA
ATOM     12  C   UNL     1       3.612   4.167  19.548  0.00  0.00    +0.000 A 
BRANCH   5  13
ATOM     13  O   UNL     1       3.210   7.845  17.557  0.00  0.00    +0.000 OA
ATOM     14  C   UNL     1       2.248   8.796  17.999  0.00  0.00    +0.000 C 
ENDBRANCH   5  13
ENDBRANCH   1   3
BRANCH   1  15
ATOM     15  S   UNL     1       7.080   4.933  17.760  0.00  0.00    +0.000 S 
ATOM     16  O   UNL     1       8.343   4.287  18.042  0.00  0.00    +0.000 OA
ATOM     17  O   UNL     1       6.920   6.359  17.942  0.00  0.00    +0.000 OA
BRANCH  15  21
ATOM     18  C   UNL     1       6.182   3.860  13.401  0.00  0.00    +0.000 A 
ATOM     19  C   UNL     1       7.176   4.791  13.714  0.00  0.00    +0.000 A 
ATOM     20  C   UNL     1       7.440   5.132  15.042  0.00  0.00    +0.000 A 
ATOM     21  C   UNL     1       6.670   4.568  16.065  0.00  0.00    +0.000 A 
ATOM     22  C   UNL     1       5.682   3.633  15.765  0.00  0.00    +0.000 A 
ATOM     23  C   UNL     1       5.435   3.281  14.428  0.00  0.00    +0.000 A 
BRANCH  18  25
ATOM     24  C   UNL     1       4.717   3.210  11.655  0.00  0.00    +0.000 C 
ATOM     25  O   UNL     1       6.013   3.630  12.064  0.00  0.00    +0.000 OA
ENDBRANCH  18  25
ENDBRANCH  15  21
ENDBRANCH   1  15
TORSDOF 5
ENDMDL
MODEL 6
REMARK VINA RESULT:      -7.8      1.080      1.327
REMARK  Name = 
REMARK  7 active torsions:
REMARK  status: ('A' for Active; 'I' for Inactive)
REMARK    1  A    between atoms: C_1  and  O_2
REMARK    2  A    between atoms: O_2  and  C_3
REMARK    3  A    between atoms: C_6  and  S_7
REMARK    4  A    between atoms: S_7  and  N_10
REMARK    5  A    between atoms: N_10  and  C_11
REMARK    6  A    between atoms: C_13  and  O_14
REMARK    7  A    between atoms: O_14  and  C_15
REMARK                            x       y       z     vdW  Elec       q    Type
REMARK                         _______ _______ _______ _____ _____    ______ ____
ROOT
ATOM      1  N   UNL     1       5.876   5.296  19.392  0.00  0.00    +0.000 N 
ATOM      2  H   UNL     1       5.961   5.935  20.190  0.00  0.00    +0.000 HD
ENDROOT
BRANCH   1   3
ATOM      3  C   UNL     1       4.581   5.395  18.763  0.00  0.00    +0.000 A 
ATOM      4  C   UNL     1       4.061   6.668  18.518  0.00  0.00    +0.000 A 
ATOM      5  C   UNL     1       2.748   6.814  18.081  0.00  0.00    +0.000 A 
ATOM      6  C   UNL     1       1.952   5.681  17.942  0.00  0.00    +0.000 A 
ATOM      7  C   UNL     1       2.467   4.404  18.221  0.00  0.00    +0.000 A 
ATOM      8  C   UNL     1       1.638   3.277  18.214  0.00  0.00    +0.000 A 
ATOM      9  C   UNL     1       2.171   2.025  18.488  0.00  0.00    +0.000 A 
ATOM     10  C   UNL     1       3.531   1.935  18.708  0.00  0.00    +0.000 A 
ATOM     11  N   UNL     1       4.360   3.003  18.749  0.00  0.00    +0.000 NA
ATOM     12  C   UNL     1       3.822   4.232  18.566  0.00  0.00    +0.000 A 
BRANCH   5  13
ATOM     13  O   UNL     1       2.344   8.103  17.871  0.00  0.00    +0.000 OA
ATOM     14  C   UNL     1       1.709   8.762  18.961  0.00  0.00    +0.000 C 
ENDBRANCH   5  13
ENDBRANCH   1   3
BRANCH   1  15
ATOM     15  S   UNL     1       7.202   5.653  18.367  0.00  0.00    +0.000 S 
ATOM     16  O   UNL     1       8.238   4.705  18.710  0.00  0.00    +0.000 OA
ATOM     17  O   UNL     1       7.471   7.074  18.357  0.00  0.00    +0.000 OA
BRANCH  15  21
ATOM     18  C   UNL     1       5.510   4.449  14.287  0.00  0.00    +0.000 A 
ATOM     19  C   UNL     1       6.226   3.530  15.059  0.00  0.00    +0.000 A 
ATOM     20  C   UNL     1       6.757   3.901  16.297  0.00  0.00    +0.000 A 
ATOM     21  C   UNL     1       6.608   5.217  16.745  0.00  0.00    +0.000 A 
ATOM     22  C   UNL     1       5.889   6.140  15.987  0.00  0.00    +0.000 A 
ATOM     23  C   UNL     1       5.342   5.755  14.752  0.00  0.00    +0.000 A 
BRANCH  18  25
ATOM     24  C   UNL     1       6.014   3.279  12.288  0.00  0.00    +0.000 C 
ATOM     25  O   UNL     1       5.061   3.965  13.090  0.00  0.00    +0.000 OA
ENDBRANCH  18  25
ENDBRANCH  15  21
ENDBRANCH   1  15
TORSDOF 5
ENDMDL
MODEL 7
REMARK VINA RESULT:      -7.8      2.979      4.317
REMARK  Name = 
REMARK  7 active torsions:
REMARK  status: ('A' for Active; 'I' for Inactive)
REMARK    1  A    between atoms: C_1  and  O_2
REMARK    2  A    between atoms: O_2  and  C_3
REMARK    3  A    between atoms: C_6  and  S_7
REMARK    4  A    between atoms: S_7  and  N_10
REMARK    5  A    between atoms: N_10  and  C_11
REMARK    6  A    between atoms: C_13  and  O_14
REMARK    7  A    between atoms: O_14  and  C_15
REMARK                            x       y       z     vdW  Elec       q    Type
REMARK                         _______ _______ _______ _____ _____    ______ ____
ROOT
ATOM      1  N   UNL     1       4.398   5.349  16.874  0.00  0.00    +0.000 N 
ATOM      2  H   UNL     1       4.139   4.752  16.082  0.00  0.00    +0.000 HD
ENDROOT
BRANCH   1   3
ATOM      3  C   UNL     1       3.354   5.405  17.868  0.00  0.00    +0.000 A 
ATOM      4  C   UNL     1       3.193   6.589  18.592  0.00  0.00    +0.000 A 
ATOM      5  C   UNL     1       2.323   6.632  19.677  0.00  0.00    +0.000 A 
ATOM      6  C   UNL     1       1.659   5.469  20.057  0.00  0.00    +0.000 A 
ATOM      7  C   UNL     1       1.848   4.271  19.347  0.00  0.00    +0.000 A 
ATOM      8  C   UNL     1       1.291   3.070  19.803  0.00  0.00    +0.000 A 
ATOM      9  C   UNL     1       1.487   1.900  19.082  0.00  0.00    +0.000 A 
ATOM     10  C   UNL     1       2.191   1.981  17.897  0.00  0.00    +0.000 A 
ATOM     11  N   UNL     1       2.766   3.116  17.438  0.00  0.00    +0.000 NA
ATOM     12  C   UNL     1       2.645   4.237  18.187  0.00  0.00    +0.000 A 
BRANCH   5  13
ATOM     13  O   UNL     1       2.242   7.839  20.311  0.00  0.00    +0.000 OA
ATOM     14  C   UNL     1       0.990   8.170  20.902  0.00  0.00    +0.000 C 
ENDBRANCH   5  13
ENDBRANCH   1   3
BRANCH   1  15
ATOM     15  S   UNL     1       5.898   4.744  17.441  0.00  0.00    +0.000 S 
ATOM     16  O   UNL     1       6.555   4.163  16.290  0.00  0.00    +0.000 OA
ATOM     17  O   UNL     1       5.715   3.979  18.654  0.00  0.00    +0.000 OA
BRANCH  15  21
ATOM     18  C   UNL     1       8.389   8.451  18.450  0.00  0.00    +0.000 A 
ATOM     19  C   UNL     1       8.541   7.271  19.183  0.00  0.00    +0.000 A 
ATOM     20  C   UNL     1       7.771   6.144  18.887  0.00  0.00    +0.000 A 
ATOM     21  C   UNL     1       6.806   6.214  17.876  0.00  0.00    +0.000 A 
ATOM     22  C   UNL     1       6.651   7.383  17.134  0.00  0.00    +0.000 A 
ATOM     23  C   UNL     1       7.443   8.506  17.425  0.00  0.00    +0.000 A 
BRANCH  18  25
ATOM     24  C   UNL     1       9.078  10.694  18.114  0.00  0.00    +0.000 C 
ATOM     25  O   UNL     1       9.190   9.483  18.853  0.00  0.00    +0.000 OA
ENDBRANCH  18  25
ENDBRANCH  15  21
ENDBRANCH   1  15
TORSDOF 5
ENDMDL
MODEL 8
REMARK VINA RESULT:      -7.7      3.142      5.163
REMARK  Name = 
REMARK  7 active torsions:
REMARK  status: ('A' for Active; 'I' for Inactive)
REMARK    1  A    between atoms: C_1  and  O_2
REMARK    2  A    between atoms: O_2  and  C_3
REMARK    3  A    between atoms: C_6  and  S_7
REMARK    4  A    between atoms: S_7  and  N_10
REMARK    5  A    between atoms: N_10  and  C_11
REMARK    6  A    between atoms: C_13  and  O_14
REMARK    7  A    between atoms: O_14  and  C_15
REMARK                            x       y       z     vdW  Elec       q    Type
REMARK                         _______ _______ _______ _____ _____    ______ ____
ROOT
ATOM      1  N   UNL     1       3.352   5.079  17.259  0.00  0.00    +0.000 N 
ATOM      2  H   UNL     1       2.637   4.491  16.820  0.00  0.00    +0.000 HD
ENDROOT
BRANCH   1   3
ATOM      3  C   UNL     1       2.936   5.546  18.560  0.00  0.00    +0.000 A 
ATOM      4  C   UNL     1       2.772   4.604  19.578  0.00  0.00    +0.000 A 
ATOM      5  C   UNL     1       2.204   4.980  20.792  0.00  0.00    +0.000 A 
ATOM      6  C   UNL     1       1.758   6.289  20.954  0.00  0.00    +0.000 A 
ATOM      7  C   UNL     1       1.894   7.225  19.915  0.00  0.00    +0.000 A 
ATOM      8  C   UNL     1       1.329   8.502  20.020  0.00  0.00    +0.000 A 
ATOM      9  C   UNL     1       1.481   9.412  18.983  0.00  0.00    +0.000 A 
ATOM     10  C   UNL     1       2.242   9.032  17.896  0.00  0.00    +0.000 A 
ATOM     11  N   UNL     1       2.781   7.801  17.746  0.00  0.00    +0.000 NA
ATOM     12  C   UNL     1       2.558   6.888  18.720  0.00  0.00    +0.000 A 
BRANCH   5  13
ATOM     13  O   UNL     1       2.093   3.980  21.717  0.00  0.00    +0.000 OA
ATOM     14  C   UNL     1       2.596   2.702  21.343  0.00  0.00    +0.000 C 
ENDBRANCH   5  13
ENDBRANCH   1   3
BRANCH   1  15
ATOM     15  S   UNL     1       4.790   4.146  17.256  0.00  0.00    +0.000 S 
ATOM     16  O   UNL     1       5.005   3.750  15.882  0.00  0.00    +0.000 OA
ATOM     17  O   UNL     1       4.762   3.162  18.316  0.00  0.00    +0.000 OA
BRANCH  15  21
ATOM     18  C   UNL     1       7.911   7.287  18.422  0.00  0.00    +0.000 A 
ATOM     19  C   UNL     1       7.031   7.518  17.361  0.00  0.00    +0.000 A 
ATOM     20  C   UNL     1       6.089   6.554  16.994  0.00  0.00    +0.000 A 
ATOM     21  C   UNL     1       6.058   5.329  17.667  0.00  0.00    +0.000 A 
ATOM     22  C   UNL     1       6.925   5.090  18.731  0.00  0.00    +0.000 A 
ATOM     23  C   UNL     1       7.857   6.071  19.107  0.00  0.00    +0.000 A 
BRANCH  18  25
ATOM     24  C   UNL     1       8.450   9.578  18.140  0.00  0.00    +0.000 C 
ATOM     25  O   UNL     1       8.793   8.302  18.667  0.00  0.00    +0.000 OA
ENDBRANCH  18  25
ENDBRANCH  15  21
ENDBRANCH   1  15
TORSDOF 5
ENDMDL
MODEL 9
REMARK VINA RESULT:      -7.6      1.203      1.562
REMARK  Name = 
REMARK  7 active torsions:
REMARK  status: ('A' for Active; 'I' for Inactive)
REMARK    1  A    between atoms: C_1  and  O_2
REMARK    2  A    between atoms: O_2  and  C_3
REMARK    3  A    between atoms: C_6  and  S_7
REMARK    4  A    between atoms: S_7  and  N_10
REMARK    5  A    between atoms: N_10  and  C_11
REMARK    6  A    between atoms: C_13  and  O_14
REMARK    7  A    between atoms: O_14  and  C_15
REMARK                            x       y       z     vdW  Elec       q    Type
REMARK                         _______ _______ _______ _____ _____    ______ ____
ROOT
ATOM      1  N   UNL     1       5.820   4.168  18.895  0.00  0.00    +0.000 N 
ATOM      2  H   UNL     1       6.185   4.072  19.848  0.00  0.00    +0.000 HD
ENDROOT
BRANCH   1   3
ATOM      3  C   UNL     1       4.519   4.790  18.880  0.00  0.00    +0.000 A 
ATOM      4  C   UNL     1       4.391   6.040  18.270  0.00  0.00    +0.000 A 
ATOM      5  C   UNL     1       3.204   6.756  18.386  0.00  0.00    +0.000 A 
ATOM      6  C   UNL     1       2.171   6.231  19.158  0.00  0.00    +0.000 A 
ATOM      7  C   UNL     1       2.314   4.989  19.798  0.00  0.00    +0.000 A 
ATOM      8  C   UNL     1       1.336   4.518  20.681  0.00  0.00    +0.000 A 
ATOM      9  C   UNL     1       1.497   3.285  21.298  0.00  0.00    +0.000 A 
ATOM     10  C   UNL     1       2.609   2.537  20.967  0.00  0.00    +0.000 A 
ATOM     11  N   UNL     1       3.588   2.968  20.139  0.00  0.00    +0.000 NA
ATOM     12  C   UNL     1       3.469   4.207  19.606  0.00  0.00    +0.000 A 
BRANCH   5  13
ATOM     13  O   UNL     1       3.188   7.965  17.749  0.00  0.00    +0.000 OA
ATOM     14  C   UNL     1       2.002   8.743  17.879  0.00  0.00    +0.000 C 
ENDBRANCH   5  13
ENDBRANCH   1   3
BRANCH   1  15
ATOM     15  S   UNL     1       7.029   5.007  18.017  0.00  0.00    +0.000 S 
ATOM     16  O   UNL     1       8.289   4.415  18.406  0.00  0.00    +0.000 OA
ATOM     17  O   UNL     1       6.824   6.436  18.104  0.00  0.00    +0.000 OA
BRANCH  15  21
ATOM     18  C   UNL     1       6.092   3.918  13.670  0.00  0.00    +0.000 A 
ATOM     19  C   UNL     1       5.394   3.316  14.720  0.00  0.00    +0.000 A 
ATOM     20  C   UNL     1       5.690   3.635  16.047  0.00  0.00    +0.000 A 
ATOM     21  C   UNL     1       6.725   4.533  16.326  0.00  0.00    +0.000 A 
ATOM     22  C   UNL     1       7.422   5.145  15.287  0.00  0.00    +0.000 A 
ATOM     23  C   UNL     1       7.107   4.834  13.954  0.00  0.00    +0.000 A 
BRANCH  18  25
ATOM     24  C   UNL     1       6.752   3.003  11.586  0.00  0.00    +0.000 C 
ATOM     25  O   UNL     1       5.717   3.506  12.422  0.00  0.00    +0.000 OA
ENDBRANCH  18  25
ENDBRANCH  15  21
ENDBRANCH   1  15
TORSDOF 5
ENDMDL
