MODEL 1
REMARK VINA RESULT:      -7.4      0.000      0.000
REMARK  Name = 
REMARK  4 active torsions:
REMARK  status: ('A' for Active; 'I' for Inactive)
REMARK    1  A    between atoms: C_2  and  C_4
REMARK    2  A    between atoms: C_9  and  N_10
REMARK    3  A    between atoms: N_10  and  S_11
REMARK    4  A    between atoms: S_11  and  C_14
REMARK                            x       y       z     vdW  Elec       q    Type
REMARK                         _______ _______ _______ _____ _____    ______ ____
ROOT
ATOM      1  N   UNL     1       4.962   3.580  19.671  0.00  0.00    +0.000 N 
ATOM      2  H   UNL     1       5.724   2.915  19.507  0.00  0.00    +0.000 HD
ENDROOT
BRANCH   1   8
ATOM      3  C   UNL     1       2.491   3.301  20.025  0.00  0.00    +0.000 A 
ATOM      4  C   UNL     1       1.260   2.851  19.514  0.00  0.00    +0.000 A 
ATOM      5  C   UNL     1       1.191   2.220  18.274  0.00  0.00    +0.000 A 
ATOM      6  C   UNL     1       2.349   2.045  17.523  0.00  0.00    +0.000 A 
ATOM      7  C   UNL     1       3.577   2.500  18.011  0.00  0.00    +0.000 A 
ATOM      8  C   UNL     1       3.662   3.139  19.254  0.00  0.00    +0.000 A 
BRANCH   3  10
ATOM      9  N   UNL     1       2.405   5.344  21.364  0.00  0.00    +0.000 N 
ATOM     10  C   UNL     1       2.418   3.978  21.345  0.00  0.00    +0.000 C 
ATOM     11  O   UNL     1       2.433   3.343  22.391  0.00  0.00    +0.000 OA
ATOM     12  H   UNL     1       2.551   5.758  22.277  0.00  0.00    +0.000 HD
ATOM     13  H   UNL     1       2.793   5.865  20.582  0.00  0.00    +0.000 HD
ENDBRANCH   3  10
ENDBRANCH   1   8
BRANCH   1  14
ATOM     14  S   UNL     1       5.461   5.124  19.186  0.00  0.00    +0.000 S 
ATOM     15  O   UNL     1       4.289   5.965  19.320  0.00  0.00    +0.000 OA
ATOM     16  O   UNL     1       6.678   5.464  19.893  0.00  0.00    +0.000 OA
BRANCH  14  17
ATOM     17  C   UNL     1       5.805   4.986  17.448  0.00  0.00    +0.000 A 
ATOM     18  C   UNL     1       6.981   4.346  17.034  0.00  0.00    +0.000 A 
ATOM     19  C   UNL     1       7.187   4.076  15.677  0.00  0.00    +0.000 A 
ATOM     20  C   UNL     1       6.217   4.438  14.745  0.00  0.00    +0.000 A 
ATOM     21 BR   UNL     1       6.477   4.030  12.916  0.00  0.00    +0.000 Br
ATOM     22  C   UNL     1       5.044   5.076  15.153  0.00  0.00    +0.000 A 
ATOM     23  C   UNL     1       4.830   5.344  16.509  0.00  0.00    +0.000 A 
ENDBRANCH  14  17
ENDBRANCH   1  14
TORSDOF 4
ENDMDL
MODEL 2
REMARK VINA RESULT:      -7.2      2.899      3.493
REMARK  Name = 
REMARK  4 active torsions:
REMARK  status: ('A' for Active; 'I' for Inactive)
REMARK    1  A    between atoms: C_2  and  C_4
REMARK    2  A    between atoms: C_9  and  N_10
REMARK    3  A    between atoms: N_10  and  S_11
REMARK    4  A    between atoms: S_11  and  C_14
REMARK                            x       y       z     vdW  Elec       q    Type
REMARK                         _______ _______ _______ _____ _____    ______ ____
ROOT
ATOM      1  N   UNL     1       3.713   4.884  17.461  0.00  0.00    +0.000 N 
ATOM      2  H   UNL     1       3.749   5.907  17.469  0.00  0.00    +0.000 HD
ENDROOT
BRANCH   1   8
ATOM      3  C   UNL     1       2.085   4.969  19.372  0.00  0.00    +0.000 A 
ATOM      4  C   UNL     1       1.087   4.312  20.114  0.00  0.00    +0.000 A 
ATOM      5  C   UNL     1       0.725   3.000  19.816  0.00  0.00    +0.000 A 
ATOM      6  C   UNL     1       1.346   2.335  18.763  0.00  0.00    +0.000 A 
ATOM      7  C   UNL     1       2.329   2.980  18.008  0.00  0.00    +0.000 A 
ATOM      8  C   UNL     1       2.701   4.299  18.294  0.00  0.00    +0.000 A 
BRANCH   3  10
ATOM      9  N   UNL     1       1.888   6.786  20.995  0.00  0.00    +0.000 N 
ATOM     10  C   UNL     1       2.355   6.372  19.780  0.00  0.00    +0.000 C 
ATOM     11  O   UNL     1       2.921   7.158  19.032  0.00  0.00    +0.000 OA
ATOM     12  H   UNL     1       1.922   7.788  21.144  0.00  0.00    +0.000 HD
ATOM     13  H   UNL     1       1.100   6.309  21.425  0.00  0.00    +0.000 HD
ENDBRANCH   3  10
ENDBRANCH   1   8
BRANCH   1  14
ATOM     14  S   UNL     1       5.287   4.273  17.593  0.00  0.00    +0.000 S 
ATOM     15  O   UNL     1       5.346   3.642  18.896  0.00  0.00    +0.000 OA
ATOM     16  O   UNL     1       5.589   3.503  16.404  0.00  0.00    +0.000 OA
BRANCH  14  17
ATOM     17  C   UNL     1       6.345   5.699  17.658  0.00  0.00    +0.000 A 
ATOM     18  C   UNL     1       5.961   6.865  16.980  0.00  0.00    +0.000 A 
ATOM     19  C   UNL     1       6.688   8.046  17.158  0.00  0.00    +0.000 A 
ATOM     20  C   UNL     1       7.788   8.059  18.015  0.00  0.00    +0.000 A 
ATOM     21 BR   UNL     1       8.742   9.669  18.289  0.00  0.00    +0.000 Br
ATOM     22  C   UNL     1       8.174   6.900  18.692  0.00  0.00    +0.000 A 
ATOM     23  C   UNL     1       7.446   5.717  18.521  0.00  0.00    +0.000 A 
ENDBRANCH  14  17
ENDBRANCH   1  14
TORSDOF 4
ENDMDL
MODEL 3
REMARK VINA RESULT:      -7.1      1.654      2.293
REMARK  Name = 
REMARK  4 active torsions:
REMARK  status: ('A' for Active; 'I' for Inactive)
REMARK    1  A    between atoms: C_2  and  C_4
REMARK    2  A    between atoms: C_9  and  N_10
REMARK    3  A    between atoms: N_10  and  S_11
REMARK    4  A    between atoms: S_11  and  C_14
REMARK                            x       y       z     vdW  Elec       q    Type
REMARK                         _______ _______ _______ _____ _____    ______ ____
ROOT
ATOM      1  N   UNL     1       4.654   3.162  19.019  0.00  0.00    +0.000 N 
ATOM      2  H   UNL     1       4.660   2.696  18.108  0.00  0.00    +0.000 HD
ENDROOT
BRANCH   1   8
ATOM      3  C   UNL     1       2.157   3.365  19.199  0.00  0.00    +0.000 A 
ATOM      4  C   UNL     1       1.006   3.220  19.995  0.00  0.00    +0.000 A 
ATOM      5  C   UNL     1       1.107   2.820  21.327  0.00  0.00    +0.000 A 
ATOM      6  C   UNL     1       2.357   2.545  21.873  0.00  0.00    +0.000 A 
ATOM      7  C   UNL     1       3.507   2.670  21.089  0.00  0.00    +0.000 A 
ATOM      8  C   UNL     1       3.422   3.068  19.749  0.00  0.00    +0.000 A 
BRANCH   3  10
ATOM      9  N   UNL     1       1.469   5.047  17.565  0.00  0.00    +0.000 N 
ATOM     10  C   UNL     1       1.904   3.773  17.793  0.00  0.00    +0.000 C 
ATOM     11  O   UNL     1       2.020   2.981  16.867  0.00  0.00    +0.000 OA
ATOM     12  H   UNL     1       1.126   5.218  16.627  0.00  0.00    +0.000 HD
ATOM     13  H   UNL     1       0.991   5.559  18.302  0.00  0.00    +0.000 HD
ENDBRANCH   3  10
ENDBRANCH   1   8
BRANCH   1  14
ATOM     14  S   UNL     1       5.359   4.694  18.863  0.00  0.00    +0.000 S 
ATOM     15  O   UNL     1       4.279   5.636  19.074  0.00  0.00    +0.000 OA
ATOM     16  O   UNL     1       6.540   4.751  19.700  0.00  0.00    +0.000 OA
BRANCH  14  17
ATOM     17  C   UNL     1       5.836   4.824  17.157  0.00  0.00    +0.000 A 
ATOM     18  C   UNL     1       7.184   5.045  16.840  0.00  0.00    +0.000 A 
ATOM     19  C   UNL     1       7.607   4.980  15.509  0.00  0.00    +0.000 A 
ATOM     20  C   UNL     1       6.686   4.687  14.504  0.00  0.00    +0.000 A 
ATOM     21 BR   UNL     1       7.269   4.552  12.710  0.00  0.00    +0.000 Br
ATOM     22  C   UNL     1       5.343   4.465  14.815  0.00  0.00    +0.000 A 
ATOM     23  C   UNL     1       4.916   4.525  16.146  0.00  0.00    +0.000 A 
ENDBRANCH  14  17
ENDBRANCH   1  14
TORSDOF 4
ENDMDL
MODEL 4
REMARK VINA RESULT:      -7.1      3.277      3.984
REMARK  Name = 
REMARK  4 active torsions:
REMARK  status: ('A' for Active; 'I' for Inactive)
REMARK    1  A    between atoms: C_2  and  C_4
REMARK    2  A    between atoms: C_9  and  N_10
REMARK    3  A    between atoms: N_10  and  S_11
REMARK    4  A    between atoms: S_11  and  C_14
REMARK                            x       y       z     vdW  Elec       q    Type
REMARK                         _______ _______ _______ _____ _____    ______ ____
ROOT
ATOM      1  N   UNL     1       3.785   4.834  17.303  0.00  0.00    +0.000 N 
ATOM      2  H   UNL     1       3.833   5.659  16.699  0.00  0.00    +0.000 HD
ENDROOT
BRANCH   1   8
ATOM      3  C   UNL     1       2.038   3.964  18.884  0.00  0.00    +0.000 A 
ATOM      4  C   UNL     1       1.264   4.182  20.038  0.00  0.00    +0.000 A 
ATOM      5  C   UNL     1       1.350   5.385  20.737  0.00  0.00    +0.000 A 
ATOM      6  C   UNL     1       2.223   6.376  20.300  0.00  0.00    +0.000 A 
ATOM      7  C   UNL     1       3.009   6.167  19.164  0.00  0.00    +0.000 A 
ATOM      8  C   UNL     1       2.936   4.963  18.453  0.00  0.00    +0.000 A 
BRANCH   3  10
ATOM      9  N   UNL     1       0.854   1.833  18.703  0.00  0.00    +0.000 N 
ATOM     10  C   UNL     1       1.867   2.630  18.252  0.00  0.00    +0.000 C 
ATOM     11  O   UNL     1       2.642   2.224  17.396  0.00  0.00    +0.000 OA
ATOM     12  H   UNL     1       0.896   0.872  18.387  0.00  0.00    +0.000 HD
ATOM     13  H   UNL     1       0.484   1.967  19.641  0.00  0.00    +0.000 HD
ENDBRANCH   3  10
ENDBRANCH   1   8
BRANCH   1  14
ATOM     14  S   UNL     1       5.350   4.234  17.547  0.00  0.00    +0.000 S 
ATOM     15  O   UNL     1       5.330   3.636  18.866  0.00  0.00    +0.000 OA
ATOM     16  O   UNL     1       5.727   3.436  16.399  0.00  0.00    +0.000 OA
BRANCH  14  17
ATOM     17  C   UNL     1       6.397   5.666  17.642  0.00  0.00    +0.000 A 
ATOM     18  C   UNL     1       6.025   6.830  16.955  0.00  0.00    +0.000 A 
ATOM     19  C   UNL     1       6.740   8.015  17.153  0.00  0.00    +0.000 A 
ATOM     20  C   UNL     1       7.815   8.034  18.039  0.00  0.00    +0.000 A 
ATOM     21 BR   UNL     1       8.752   9.650  18.341  0.00  0.00    +0.000 Br
ATOM     22  C   UNL     1       8.189   6.877  18.726  0.00  0.00    +0.000 A 
ATOM     23  C   UNL     1       7.474   5.690  18.535  0.00  0.00    +0.000 A 
ENDBRANCH  14  17
ENDBRANCH   1  14
TORSDOF 4
ENDMDL
MODEL 5
REMARK VINA RESULT:      -7.1      4.255      5.865
REMARK  Name = 
REMARK  4 active torsions:
REMARK  status: ('A' for Active; 'I' for Inactive)
REMARK    1  A    between atoms: C_2  and  C_4
REMARK    2  A    between atoms: C_9  and  N_10
REMARK    3  A    between atoms: N_10  and  S_11
REMARK    4  A    between atoms: S_11  and  C_14
REMARK                            x       y       z     vdW  Elec       q    Type
REMARK                         _______ _______ _______ _____ _____    ______ ____
ROOT
ATOM      1  N   UNL     1       4.108   5.816  19.449  0.00  0.00    +0.000 N 
ATOM      2  H   UNL     1       4.517   6.674  19.828  0.00  0.00    +0.000 HD
ENDROOT
BRANCH   1   8
ATOM      3  C   UNL     1       4.794   4.102  17.746  0.00  0.00    +0.000 A 
ATOM      4  C   UNL     1       5.232   3.836  16.436  0.00  0.00    +0.000 A 
ATOM      5  C   UNL     1       5.479   4.876  15.542  0.00  0.00    +0.000 A 
ATOM      6  C   UNL     1       5.276   6.193  15.943  0.00  0.00    +0.000 A 
ATOM      7  C   UNL     1       4.828   6.471  17.237  0.00  0.00    +0.000 A 
ATOM      8  C   UNL     1       4.572   5.437  18.145  0.00  0.00    +0.000 A 
BRANCH   3  10
ATOM      9  N   UNL     1       3.902   1.841  18.011  0.00  0.00    +0.000 N 
ATOM     10  C   UNL     1       4.545   2.901  18.585  0.00  0.00    +0.000 C 
ATOM     11  O   UNL     1       4.847   2.876  19.771  0.00  0.00    +0.000 OA
ATOM     12  H   UNL     1       3.583   1.134  18.663  0.00  0.00    +0.000 HD
ATOM     13  H   UNL     1       3.304   1.990  17.202  0.00  0.00    +0.000 HD
ENDBRANCH   3  10
ENDBRANCH   1   8
BRANCH   1  14
ATOM     14  S   UNL     1       2.434   5.838  19.710  0.00  0.00    +0.000 S 
ATOM     15  O   UNL     1       1.855   5.215  18.538  0.00  0.00    +0.000 OA
ATOM     16  O   UNL     1       2.161   5.297  21.025  0.00  0.00    +0.000 OA
BRANCH  14  17
ATOM     17  C   UNL     1       1.972   7.553  19.668  0.00  0.00    +0.000 A 
ATOM     18  C   UNL     1       2.033   8.247  18.452  0.00  0.00    +0.000 A 
ATOM     19  C   UNL     1       1.514   9.542  18.361  0.00  0.00    +0.000 A 
ATOM     20  C   UNL     1       0.931  10.134  19.481  0.00  0.00    +0.000 A 
ATOM     21 BR   UNL     1       0.188  11.868  19.344  0.00  0.00    +0.000 Br
ATOM     22  C   UNL     1       0.868   9.446  20.695  0.00  0.00    +0.000 A 
ATOM     23  C   UNL     1       1.381   8.148  20.789  0.00  0.00    +0.000 A 
ENDBRANCH  14  17
ENDBRANCH   1  14
TORSDOF 4
ENDMDL
MODEL 6
REMARK VINA RESULT:      -7.1      1.715      2.535
REMARK  Name = 
REMARK  4 active torsions:
REMARK  status: ('A' for Active; 'I' for Inactive)
REMARK    1  A    between atoms: C_2  and  C_4
REMARK    2  A    between atoms: C_9  and  N_10
REMARK    3  A    between atoms: N_10  and  S_11
REMARK    4  A    between atoms: S_11  and  C_14
REMARK                            x       y       z     vdW  Elec       q    Type
REMARK                         _______ _______ _______ _____ _____    ______ ____
ROOT
ATOM      1  N   UNL     1       4.617   3.025  19.022  0.00  0.00    +0.000 N 
ATOM      2  H   UNL     1       4.625   2.496  18.146  0.00  0.00    +0.000 HD
ENDROOT
BRANCH   1   8
ATOM      3  C   UNL     1       2.121   3.256  19.183  0.00  0.00    +0.000 A 
ATOM      4  C   UNL     1       0.968   3.169  19.983  0.00  0.00    +0.000 A 
ATOM      5  C   UNL     1       1.063   2.852  21.337  0.00  0.00    +0.000 A 
ATOM      6  C   UNL     1       2.309   2.604  21.903  0.00  0.00    +0.000 A 
ATOM      7  C   UNL     1       3.462   2.672  21.115  0.00  0.00    +0.000 A 
ATOM      8  C   UNL     1       3.383   2.985  19.753  0.00  0.00    +0.000 A 
BRANCH   3  10
ATOM      9  N   UNL     1       1.321   4.789  17.455  0.00  0.00    +0.000 N 
ATOM     10  C   UNL     1       1.875   3.576  17.753  0.00  0.00    +0.000 C 
ATOM     11  O   UNL     1       2.099   2.762  16.867  0.00  0.00    +0.000 OA
ATOM     12  H   UNL     1       0.994   4.884  16.501  0.00  0.00    +0.000 HD
ATOM     13  H   UNL     1       0.771   5.280  18.155  0.00  0.00    +0.000 HD
ENDBRANCH   3  10
ENDBRANCH   1   8
BRANCH   1  14
ATOM     14  S   UNL     1       5.326   4.541  18.761  0.00  0.00    +0.000 S 
ATOM     15  O   UNL     1       4.228   5.485  18.773  0.00  0.00    +0.000 OA
ATOM     16  O   UNL     1       6.430   4.704  19.685  0.00  0.00    +0.000 OA
BRANCH  14  17
ATOM     17  C   UNL     1       5.950   4.490  17.098  0.00  0.00    +0.000 A 
ATOM     18  C   UNL     1       5.072   4.190  16.048  0.00  0.00    +0.000 A 
ATOM     19  C   UNL     1       5.501   4.313  14.723  0.00  0.00    +0.000 A 
ATOM     20  C   UNL     1       6.799   4.741  14.453  0.00  0.00    +0.000 A 
ATOM     21 BR   UNL     1       7.363   4.951  12.660  0.00  0.00    +0.000 Br
ATOM     22  C   UNL     1       7.678   5.041  15.496  0.00  0.00    +0.000 A 
ATOM     23  C   UNL     1       7.252   4.925  16.824  0.00  0.00    +0.000 A 
ENDBRANCH  14  17
ENDBRANCH   1  14
TORSDOF 4
ENDMDL
MODEL 7
REMARK VINA RESULT:      -7.1      1.701      2.694
REMARK  Name = 
REMARK  4 active torsions:
REMARK  status: ('A' for Active; 'I' for Inactive)
REMARK    1  A    between atoms: C_2  and  C_4
REMARK    2  A    between atoms: C_9  and  N_10
REMARK    3  A    between atoms: N_10  and  S_11
REMARK    4  A    between atoms: S_11  and  C_14
REMARK                            x       y       z     vdW  Elec       q    Type
REMARK                         _______ _______ _______ _____ _____    ______ ____
ROOT
ATOM      1  N   UNL     1       3.696   4.991  18.642  0.00  0.00    +0.000 N 
ATOM      2  H   UNL     1       3.503   5.994  18.701  0.00  0.00    +0.000 HD
ENDROOT
BRANCH   1   8
ATOM      3  C   UNL     1       2.504   2.860  19.229  0.00  0.00    +0.000 A 
ATOM      4  C   UNL     1       1.785   2.125  20.189  0.00  0.00    +0.000 A 
ATOM      5  C   UNL     1       1.472   2.684  21.427  0.00  0.00    +0.000 A 
ATOM      6  C   UNL     1       1.888   3.979  21.724  0.00  0.00    +0.000 A 
ATOM      7  C   UNL     1       2.615   4.714  20.785  0.00  0.00    +0.000 A 
ATOM      8  C   UNL     1       2.940   4.165  19.539  0.00  0.00    +0.000 A 
BRANCH   3  10
ATOM      9  N   UNL     1       3.756   1.168  17.985  0.00  0.00    +0.000 N 
ATOM     10  C   UNL     1       2.790   2.135  17.964  0.00  0.00    +0.000 C 
ATOM     11  O   UNL     1       2.230   2.430  16.917  0.00  0.00    +0.000 OA
ATOM     12  H   UNL     1       4.051   0.843  17.072  0.00  0.00    +0.000 HD
ATOM     13  H   UNL     1       4.483   1.195  18.694  0.00  0.00    +0.000 HD
ENDBRANCH   3  10
ENDBRANCH   1   8
BRANCH   1  14
ATOM     14  S   UNL     1       5.372   4.752  18.579  0.00  0.00    +0.000 S 
ATOM     15  O   UNL     1       5.951   5.946  19.160  0.00  0.00    +0.000 OA
ATOM     16  O   UNL     1       5.679   3.453  19.141  0.00  0.00    +0.000 OA
BRANCH  14  17
ATOM     17  C   UNL     1       5.786   4.762  16.851  0.00  0.00    +0.000 A 
ATOM     18  C   UNL     1       7.106   5.040  16.467  0.00  0.00    +0.000 A 
ATOM     19  C   UNL     1       7.490   4.886  15.132  0.00  0.00    +0.000 A 
ATOM     20  C   UNL     1       6.561   4.447  14.190  0.00  0.00    +0.000 A 
ATOM     21 BR   UNL     1       7.095   4.194  12.393  0.00  0.00    +0.000 Br
ATOM     22  C   UNL     1       5.246   4.168  14.568  0.00  0.00    +0.000 A 
ATOM     23  C   UNL     1       4.857   4.317  15.904  0.00  0.00    +0.000 A 
ENDBRANCH  14  17
ENDBRANCH   1  14
TORSDOF 4
ENDMDL
MODEL 8
REMARK VINA RESULT:      -7.0      4.558      5.930
REMARK  Name = 
REMARK  4 active torsions:
REMARK  status: ('A' for Active; 'I' for Inactive)
REMARK    1  A    between atoms: C_2  and  C_4
REMARK    2  A    between atoms: C_9  and  N_10
REMARK    3  A    between atoms: N_10  and  S_11
REMARK    4  A    between atoms: S_11  and  C_14
REMARK                            x       y       z     vdW  Elec       q    Type
REMARK                         _______ _______ _______ _____ _____    ______ ____
ROOT
ATOM      1  N   UNL     1       3.412   6.150  19.810  0.00  0.00    +0.000 N 
ATOM      2  H   UNL     1       4.422   6.293  19.894  0.00  0.00    +0.000 HD
ENDROOT
BRANCH   1   8
ATOM      3  C   UNL     1       3.585   3.657  19.557  0.00  0.00    +0.000 A 
ATOM      4  C   UNL     1       3.070   2.390  19.885  0.00  0.00    +0.000 A 
ATOM      5  C   UNL     1       1.930   2.267  20.678  0.00  0.00    +0.000 A 
ATOM      6  C   UNL     1       1.301   3.410  21.164  0.00  0.00    +0.000 A 
ATOM      7  C   UNL     1       1.811   4.674  20.858  0.00  0.00    +0.000 A 
ATOM      8  C   UNL     1       2.957   4.814  20.066  0.00  0.00    +0.000 A 
BRANCH   3  10
ATOM      9  N   UNL     1       4.764   3.019  17.513  0.00  0.00    +0.000 N 
ATOM     10  C   UNL     1       4.818   3.643  18.727  0.00  0.00    +0.000 C 
ATOM     11  O   UNL     1       5.869   4.117  19.136  0.00  0.00    +0.000 OA
ATOM     12  H   UNL     1       5.665   2.864  17.076  0.00  0.00    +0.000 HD
ATOM     13  H   UNL     1       4.068   2.297  17.345  0.00  0.00    +0.000 HD
ENDBRANCH   3  10
ENDBRANCH   1   8
BRANCH   1  14
ATOM     14  S   UNL     1       2.860   6.911  18.401  0.00  0.00    +0.000 S 
ATOM     15  O   UNL     1       4.048   7.433  17.757  0.00  0.00    +0.000 OA
ATOM     16  O   UNL     1       1.993   5.997  17.687  0.00  0.00    +0.000 OA
BRANCH  14  17
ATOM     17  C   UNL     1       1.914   8.309  18.958  0.00  0.00    +0.000 A 
ATOM     18  C   UNL     1       1.434   9.228  18.015  0.00  0.00    +0.000 A 
ATOM     19  C   UNL     1       0.549  10.235  18.411  0.00  0.00    +0.000 A 
ATOM     20  C   UNL     1       0.141  10.314  19.741  0.00  0.00    +0.000 A 
ATOM     21 BR   UNL     1      -1.093  11.649  20.265  0.00  0.00    +0.000 Br
ATOM     22  C   UNL     1       0.616   9.401  20.684  0.00  0.00    +0.000 A 
ATOM     23  C   UNL     1       1.499   8.388  20.293  0.00  0.00    +0.000 A 
ENDBRANCH  14  17
ENDBRANCH   1  14
TORSDOF 4
ENDMDL
MODEL 9
REMARK VINA RESULT:      -7.0      3.218      5.330
REMARK  Name = 
REMARK  4 active torsions:
REMARK  status: ('A' for Active; 'I' for Inactive)
REMARK    1  A    between atoms: C_2  and  C_4
REMARK    2  A    between atoms: C_9  and  N_10
REMARK    3  A    between atoms: N_10  and  S_11
REMARK    4  A    between atoms: S_11  and  C_14
REMARK                            x       y       z     vdW  Elec       q    Type
REMARK                         _______ _______ _______ _____ _____    ______ ____
ROOT
ATOM      1  N   UNL     1       5.329   3.507  18.841  0.00  0.00    +0.000 N 
ATOM      2  H   UNL     1       5.781   3.758  19.724  0.00  0.00    +0.000 HD
ENDROOT
BRANCH   1   8
ATOM      3  C   UNL     1       6.769   5.231  17.717  0.00  0.00    +0.000 A 
ATOM      4  C   UNL     1       7.240   5.785  16.514  0.00  0.00    +0.000 A 
ATOM      5  C   UNL     1       6.791   5.306  15.285  0.00  0.00    +0.000 A 
ATOM      6  C   UNL     1       5.877   4.258  15.244  0.00  0.00    +0.000 A 
ATOM      7  C   UNL     1       5.411   3.688  16.432  0.00  0.00    +0.000 A 
ATOM      8  C   UNL     1       5.856   4.156  17.675  0.00  0.00    +0.000 A 
BRANCH   3  10
ATOM      9  N   UNL     1       8.182   6.893  18.821  0.00  0.00    +0.000 N 
ATOM     10  C   UNL     1       7.348   5.819  18.953  0.00  0.00    +0.000 C 
ATOM     11  O   UNL     1       7.142   5.325  20.054  0.00  0.00    +0.000 OA
ATOM     12  H   UNL     1       8.701   7.133  19.657  0.00  0.00    +0.000 HD
ATOM     13  H   UNL     1       8.672   7.048  17.944  0.00  0.00    +0.000 HD
ENDBRANCH   3  10
ENDBRANCH   1   8
BRANCH   1  14
ATOM     14  S   UNL     1       3.649   3.517  19.054  0.00  0.00    +0.000 S 
ATOM     15  O   UNL     1       3.106   2.937  17.843  0.00  0.00    +0.000 OA
ATOM     16  O   UNL     1       3.339   2.926  20.340  0.00  0.00    +0.000 OA
BRANCH  14  17
ATOM     17  C   UNL     1       3.184   5.232  19.064  0.00  0.00    +0.000 A 
ATOM     18  C   UNL     1       3.265   5.968  17.873  0.00  0.00    +0.000 A 
ATOM     19  C   UNL     1       2.745   7.264  17.819  0.00  0.00    +0.000 A 
ATOM     20  C   UNL     1       2.141   7.816  18.948  0.00  0.00    +0.000 A 
ATOM     21 BR   UNL     1       1.397   9.552  18.858  0.00  0.00    +0.000 Br
ATOM     22  C   UNL     1       2.059   7.086  20.136  0.00  0.00    +0.000 A 
ATOM     23  C   UNL     1       2.573   5.787  20.194  0.00  0.00    +0.000 A 
ENDBRANCH  14  17
ENDBRANCH   1  14
TORSDOF 4
ENDMDL
