MODEL 1
REMARK VINA RESULT:      -8.2      0.000      0.000
REMARK  Name = 
REMARK  3 active torsions:
REMARK  status: ('A' for Active; 'I' for Inactive)
REMARK    1  A    between atoms: N_6  and  C_7
REMARK    2  A    between atoms: N_17  and  C_18
REMARK    3  A    between atoms: C_18  and  C_19
REMARK                            x       y       z     vdW  Elec       q    Type
REMARK                         _______ _______ _______ _____ _____    ______ ____
ROOT
ATOM      1  O   UNL     1       0.484  11.395  21.933  0.00  0.00    +0.000 OA
ATOM      2  N   UNL     1       0.665  10.189  22.131  0.00  0.00    +0.000 N 
ATOM      3  O   UNL     1       0.564   9.635  23.239  0.00  0.00    +0.000 OA
ATOM      4  C   UNL     1       1.036   9.364  20.985  0.00  0.00    +0.000 A 
ATOM      5  N   UNL     1       1.438   8.096  21.269  0.00  0.00    +0.000 NA
ATOM      6  N   UNL     1       1.823   7.613  20.042  0.00  0.00    +0.000 N 
ATOM      7  N   UNL     1       1.614   8.560  19.017  0.00  0.00    +0.000 N 
ATOM      8  O   UNL     1       1.842   8.328  17.796  0.00  0.00    +0.000 OA
ATOM      9  C   UNL     1       1.093   9.677  19.580  0.00  0.00    +0.000 A 
ATOM     10  N   UNL     1       0.778  10.749  18.792  0.00  0.00    +0.000 N 
ATOM     11  H   UNL     1       0.980  10.698  17.791  0.00  0.00    +0.000 HD
ENDROOT
BRANCH   6  12
ATOM     12  C   UNL     1       2.381   6.302  19.967  0.00  0.00    +0.000 A 
ATOM     13  C   UNL     1       1.698   5.230  20.568  0.00  0.00    +0.000 A 
ATOM     14  C   UNL     1       2.228   3.934  20.509  0.00  0.00    +0.000 A 
ATOM     15  C   UNL     1       3.441   3.712  19.865  0.00  0.00    +0.000 A 
ATOM     16 CL   UNL     1       4.101   2.127  19.795  0.00  0.00    +0.000 Cl
ATOM     17  C   UNL     1       4.127   4.771  19.277  0.00  0.00    +0.000 A 
ATOM     18  C   UNL     1       3.599   6.064  19.325  0.00  0.00    +0.000 A 
ENDBRANCH   6  12
BRANCH  10  19
ATOM     19  C   UNL     1      -0.301  11.678  19.118  0.00  0.00    +0.000 C 
BRANCH  19  20
ATOM     20  C   UNL     1      -1.619  11.266  18.505  0.00  0.00    +0.000 A 
ATOM     21  C   UNL     1      -1.691  10.315  17.468  0.00  0.00    +0.000 A 
ATOM     22  C   UNL     1      -2.912   9.964  16.892  0.00  0.00    +0.000 A 
ATOM     23  C   UNL     1      -4.090  10.551  17.343  0.00  0.00    +0.000 A 
ATOM     24  C   UNL     1      -4.043  11.494  18.368  0.00  0.00    +0.000 A 
ATOM     25  C   UNL     1      -2.820  11.850  18.943  0.00  0.00    +0.000 A 
ATOM     26 CL   UNL     1      -2.845  13.046  20.194  0.00  0.00    +0.000 Cl
ENDBRANCH  19  20
ENDBRANCH  10  19
TORSDOF 3
ENDMDL
MODEL 2
REMARK VINA RESULT:      -8.1      3.182      7.783
REMARK  Name = 
REMARK  3 active torsions:
REMARK  status: ('A' for Active; 'I' for Inactive)
REMARK    1  A    between atoms: N_6  and  C_7
REMARK    2  A    between atoms: N_17  and  C_18
REMARK    3  A    between atoms: C_18  and  C_19
REMARK                            x       y       z     vdW  Elec       q    Type
REMARK                         _______ _______ _______ _____ _____    ______ ____
ROOT
ATOM      1  O   UNL     1       2.720   3.419  19.721  0.00  0.00    +0.000 OA
ATOM      2  N   UNL     1       2.403   4.262  20.567  0.00  0.00    +0.000 N 
ATOM      3  O   UNL     1       2.224   4.015  21.773  0.00  0.00    +0.000 OA
ATOM      4  C   UNL     1       2.213   5.637  20.116  0.00  0.00    +0.000 A 
ATOM      5  N   UNL     1       1.657   6.489  21.017  0.00  0.00    +0.000 NA
ATOM      6  N   UNL     1       1.498   7.645  20.293  0.00  0.00    +0.000 N 
ATOM      7  N   UNL     1       1.995   7.511  18.979  0.00  0.00    +0.000 N 
ATOM      8  O   UNL     1       2.009   8.455  18.139  0.00  0.00    +0.000 OA
ATOM      9  C   UNL     1       2.477   6.252  18.840  0.00  0.00    +0.000 A 
ATOM     10  N   UNL     1       3.037   5.868  17.654  0.00  0.00    +0.000 N 
ATOM     11  H   UNL     1       3.045   6.532  16.877  0.00  0.00    +0.000 HD
ENDROOT
BRANCH   6  12
ATOM     12  C   UNL     1       0.863   8.760  20.913  0.00  0.00    +0.000 A 
ATOM     13  C   UNL     1       0.616   8.727  22.297  0.00  0.00    +0.000 A 
ATOM     14  C   UNL     1      -0.010   9.811  22.929  0.00  0.00    +0.000 A 
ATOM     15  C   UNL     1      -0.399  10.916  22.179  0.00  0.00    +0.000 A 
ATOM     16 CL   UNL     1      -1.173  12.246  22.945  0.00  0.00    +0.000 Cl
ATOM     17  C   UNL     1      -0.166  10.952  20.807  0.00  0.00    +0.000 A 
ATOM     18  C   UNL     1       0.465   9.877  20.174  0.00  0.00    +0.000 A 
ENDBRANCH   6  12
BRANCH  10  19
ATOM     19  C   UNL     1       4.096   4.866  17.569  0.00  0.00    +0.000 C 
BRANCH  19  20
ATOM     20  C   UNL     1       5.454   5.436  17.907  0.00  0.00    +0.000 A 
ATOM     21  C   UNL     1       6.096   5.150  19.127  0.00  0.00    +0.000 A 
ATOM     22  C   UNL     1       7.339   5.705  19.439  0.00  0.00    +0.000 A 
ATOM     23  C   UNL     1       7.969   6.553  18.535  0.00  0.00    +0.000 A 
ATOM     24  C   UNL     1       7.353   6.851  17.321  0.00  0.00    +0.000 A 
ATOM     25  C   UNL     1       6.106   6.300  17.009  0.00  0.00    +0.000 A 
ATOM     26 CL   UNL     1       5.397   6.737  15.492  0.00  0.00    +0.000 Cl
ENDBRANCH  19  20
ENDBRANCH  10  19
TORSDOF 3
ENDMDL
MODEL 3
REMARK VINA RESULT:      -8.0      3.336      8.007
REMARK  Name = 
REMARK  3 active torsions:
REMARK  status: ('A' for Active; 'I' for Inactive)
REMARK    1  A    between atoms: N_6  and  C_7
REMARK    2  A    between atoms: N_17  and  C_18
REMARK    3  A    between atoms: C_18  and  C_19
REMARK                            x       y       z     vdW  Elec       q    Type
REMARK                         _______ _______ _______ _____ _____    ______ ____
ROOT
ATOM      1  O   UNL     1       2.850   3.410  19.591  0.00  0.00    +0.000 OA
ATOM      2  N   UNL     1       2.408   4.215  20.418  0.00  0.00    +0.000 N 
ATOM      3  O   UNL     1       1.996   3.905  21.550  0.00  0.00    +0.000 OA
ATOM      4  C   UNL     1       2.355   5.621  20.033  0.00  0.00    +0.000 A 
ATOM      5  N   UNL     1       1.668   6.444  20.870  0.00  0.00    +0.000 NA
ATOM      6  N   UNL     1       1.689   7.647  20.208  0.00  0.00    +0.000 N 
ATOM      7  N   UNL     1       2.420   7.568  19.003  0.00  0.00    +0.000 N 
ATOM      8  O   UNL     1       2.625   8.559  18.246  0.00  0.00    +0.000 OA
ATOM      9  C   UNL     1       2.876   6.299  18.872  0.00  0.00    +0.000 A 
ATOM     10  N   UNL     1       3.636   5.960  17.788  0.00  0.00    +0.000 N 
ATOM     11  H   UNL     1       3.814   6.669  17.073  0.00  0.00    +0.000 HD
ENDROOT
BRANCH   6  12
ATOM     12  C   UNL     1       0.987   8.752  20.773  0.00  0.00    +0.000 A 
ATOM     13  C   UNL     1       0.881   8.856  22.171  0.00  0.00    +0.000 A 
ATOM     14  C   UNL     1       0.193   9.931  22.749  0.00  0.00    +0.000 A 
ATOM     15  C   UNL     1      -0.398  10.891  21.934  0.00  0.00    +0.000 A 
ATOM     16 CL   UNL     1      -1.249  12.209  22.635  0.00  0.00    +0.000 Cl
ATOM     17  C   UNL     1      -0.306  10.789  20.549  0.00  0.00    +0.000 A 
ATOM     18  C   UNL     1       0.386   9.723  19.968  0.00  0.00    +0.000 A 
ENDBRANCH   6  12
BRANCH  10  19
ATOM     19  C   UNL     1       4.657   4.917  17.835  0.00  0.00    +0.000 C 
BRANCH  19  20
ATOM     20  C   UNL     1       5.460   4.842  16.557  0.00  0.00    +0.000 A 
ATOM     21  C   UNL     1       4.940   4.254  15.387  0.00  0.00    +0.000 A 
ATOM     22  C   UNL     1       5.703   4.165  14.222  0.00  0.00    +0.000 A 
ATOM     23  C   UNL     1       7.000   4.668  14.198  0.00  0.00    +0.000 A 
ATOM     24  C   UNL     1       7.535   5.254  15.343  0.00  0.00    +0.000 A 
ATOM     25  C   UNL     1       6.774   5.339  16.513  0.00  0.00    +0.000 A 
ATOM     26 CL   UNL     1       7.519   6.060  17.899  0.00  0.00    +0.000 Cl
ENDBRANCH  19  20
ENDBRANCH  10  19
TORSDOF 3
ENDMDL
MODEL 4
REMARK VINA RESULT:      -7.9      2.891      7.835
REMARK  Name = 
REMARK  3 active torsions:
REMARK  status: ('A' for Active; 'I' for Inactive)
REMARK    1  A    between atoms: N_6  and  C_7
REMARK    2  A    between atoms: N_17  and  C_18
REMARK    3  A    between atoms: C_18  and  C_19
REMARK                            x       y       z     vdW  Elec       q    Type
REMARK                         _______ _______ _______ _____ _____    ______ ____
ROOT
ATOM      1  O   UNL     1       2.665   3.789  19.123  0.00  0.00    +0.000 OA
ATOM      2  N   UNL     1       2.278   4.519  20.042  0.00  0.00    +0.000 N 
ATOM      3  O   UNL     1       1.973   4.117  21.178  0.00  0.00    +0.000 OA
ATOM      4  C   UNL     1       2.161   5.948  19.768  0.00  0.00    +0.000 A 
ATOM      5  N   UNL     1       1.531   6.687  20.720  0.00  0.00    +0.000 NA
ATOM      6  N   UNL     1       1.469   7.936  20.150  0.00  0.00    +0.000 N 
ATOM      7  N   UNL     1       2.094   7.965  18.886  0.00  0.00    +0.000 N 
ATOM      8  O   UNL     1       2.211   9.014  18.190  0.00  0.00    +0.000 OA
ATOM      9  C   UNL     1       2.565   6.723  18.622  0.00  0.00    +0.000 A 
ATOM     10  N   UNL     1       3.236   6.485  17.455  0.00  0.00    +0.000 N 
ATOM     11  H   UNL     1       3.336   7.248  16.783  0.00  0.00    +0.000 HD
ENDROOT
BRANCH   6  12
ATOM     12  C   UNL     1       0.793   8.976  20.853  0.00  0.00    +0.000 A 
ATOM     13  C   UNL     1       0.706   8.913  22.255  0.00  0.00    +0.000 A 
ATOM     14  C   UNL     1       0.045   9.922  22.967  0.00  0.00    +0.000 A 
ATOM     15  C   UNL     1      -0.538  10.983  22.282  0.00  0.00    +0.000 A 
ATOM     16 CL   UNL     1      -1.357  12.222  23.148  0.00  0.00    +0.000 Cl
ATOM     17  C   UNL     1      -0.464  11.047  20.893  0.00  0.00    +0.000 A 
ATOM     18  C   UNL     1       0.202  10.047  20.179  0.00  0.00    +0.000 A 
ENDBRANCH   6  12
BRANCH  10  19
ATOM     19  C   UNL     1       4.280   5.471  17.338  0.00  0.00    +0.000 C 
BRANCH  19  20
ATOM     20  C   UNL     1       5.632   5.984  17.779  0.00  0.00    +0.000 A 
ATOM     21  C   UNL     1       6.235   7.102  17.171  0.00  0.00    +0.000 A 
ATOM     22  C   UNL     1       7.497   7.548  17.569  0.00  0.00    +0.000 A 
ATOM     23  C   UNL     1       8.180   6.891  18.586  0.00  0.00    +0.000 A 
ATOM     24  C   UNL     1       7.602   5.782  19.202  0.00  0.00    +0.000 A 
ATOM     25  C   UNL     1       6.341   5.330  18.802  0.00  0.00    +0.000 A 
ATOM     26 CL   UNL     1       5.703   3.934  19.599  0.00  0.00    +0.000 Cl
ENDBRANCH  19  20
ENDBRANCH  10  19
TORSDOF 3
ENDMDL
MODEL 5
REMARK VINA RESULT:      -7.8      3.196      8.131
REMARK  Name = 
REMARK  3 active torsions:
REMARK  status: ('A' for Active; 'I' for Inactive)
REMARK    1  A    between atoms: N_6  and  C_7
REMARK    2  A    between atoms: N_17  and  C_18
REMARK    3  A    between atoms: C_18  and  C_19
REMARK                            x       y       z     vdW  Elec       q    Type
REMARK                         _______ _______ _______ _____ _____    ______ ____
ROOT
ATOM      1  O   UNL     1       2.359   2.921  19.738  0.00  0.00    +0.000 OA
ATOM      2  N   UNL     1       2.128   3.844  20.526  0.00  0.00    +0.000 N 
ATOM      3  O   UNL     1       1.900   3.692  21.739  0.00  0.00    +0.000 OA
ATOM      4  C   UNL     1       2.110   5.202  19.992  0.00  0.00    +0.000 A 
ATOM      5  N   UNL     1       1.642   6.166  20.829  0.00  0.00    +0.000 NA
ATOM      6  N   UNL     1       1.634   7.287  20.036  0.00  0.00    +0.000 N 
ATOM      7  N   UNL     1       2.134   7.018  18.744  0.00  0.00    +0.000 N 
ATOM      8  O   UNL     1       2.274   7.902  17.852  0.00  0.00    +0.000 OA
ATOM      9  C   UNL     1       2.467   5.705  18.690  0.00  0.00    +0.000 A 
ATOM     10  N   UNL     1       2.998   5.188  17.542  0.00  0.00    +0.000 N 
ATOM     11  H   UNL     1       3.099   5.799  16.728  0.00  0.00    +0.000 HD
ENDROOT
BRANCH   6  12
ATOM     12  C   UNL     1       1.123   8.504  20.576  0.00  0.00    +0.000 A 
ATOM     13  C   UNL     1       1.004   8.640  21.970  0.00  0.00    +0.000 A 
ATOM     14  C   UNL     1       0.502   9.826  22.524  0.00  0.00    +0.000 A 
ATOM     15  C   UNL     1       0.110  10.866  21.688  0.00  0.00    +0.000 A 
ATOM     16 CL   UNL     1      -0.513  12.321  22.358  0.00  0.00    +0.000 Cl
ATOM     17  C   UNL     1       0.216  10.735  20.306  0.00  0.00    +0.000 A 
ATOM     18  C   UNL     1       0.724   9.557  19.749  0.00  0.00    +0.000 A 
ENDBRANCH   6  12
BRANCH  10  19
ATOM     19  C   UNL     1       3.933   4.066  17.540  0.00  0.00    +0.000 C 
BRANCH  19  20
ATOM     20  C   UNL     1       5.342   4.492  17.883  0.00  0.00    +0.000 A 
ATOM     21  C   UNL     1       5.670   5.027  19.145  0.00  0.00    +0.000 A 
ATOM     22  C   UNL     1       6.969   5.442  19.439  0.00  0.00    +0.000 A 
ATOM     23  C   UNL     1       7.971   5.327  18.482  0.00  0.00    +0.000 A 
ATOM     24  C   UNL     1       7.671   4.800  17.227  0.00  0.00    +0.000 A 
ATOM     25  C   UNL     1       6.368   4.388  16.928  0.00  0.00    +0.000 A 
ATOM     26 CL   UNL     1       6.072   3.768  15.341  0.00  0.00    +0.000 Cl
ENDBRANCH  19  20
ENDBRANCH  10  19
TORSDOF 3
ENDMDL
MODEL 6
REMARK VINA RESULT:      -7.5      3.215      8.017
REMARK  Name = 
REMARK  3 active torsions:
REMARK  status: ('A' for Active; 'I' for Inactive)
REMARK    1  A    between atoms: N_6  and  C_7
REMARK    2  A    between atoms: N_17  and  C_18
REMARK    3  A    between atoms: C_18  and  C_19
REMARK                            x       y       z     vdW  Elec       q    Type
REMARK                         _______ _______ _______ _____ _____    ______ ____
ROOT
ATOM      1  O   UNL     1       3.055   4.230  19.649  0.00  0.00    +0.000 OA
ATOM      2  N   UNL     1       2.504   5.091  20.343  0.00  0.00    +0.000 N 
ATOM      3  O   UNL     1       2.060   4.894  21.488  0.00  0.00    +0.000 OA
ATOM      4  C   UNL     1       2.354   6.427  19.773  0.00  0.00    +0.000 A 
ATOM      5  N   UNL     1       1.557   7.284  20.465  0.00  0.00    +0.000 NA
ATOM      6  N   UNL     1       1.513   8.390  19.651  0.00  0.00    +0.000 N 
ATOM      7  N   UNL     1       2.310   8.223  18.499  0.00  0.00    +0.000 N 
ATOM      8  O   UNL     1       2.471   9.123  17.626  0.00  0.00    +0.000 OA
ATOM      9  C   UNL     1       2.877   6.994  18.556  0.00  0.00    +0.000 A 
ATOM     10  N   UNL     1       3.719   6.588  17.559  0.00  0.00    +0.000 N 
ATOM     11  H   UNL     1       3.874   7.212  16.764  0.00  0.00    +0.000 HD
ENDROOT
BRANCH   6  12
ATOM     12  C   UNL     1       0.692   9.490  20.035  0.00  0.00    +0.000 A 
ATOM     13  C   UNL     1      -0.247   9.999  19.121  0.00  0.00    +0.000 A 
ATOM     14  C   UNL     1      -1.063  11.082  19.475  0.00  0.00    +0.000 A 
ATOM     15  C   UNL     1      -0.933  11.662  20.732  0.00  0.00    +0.000 A 
ATOM     16 CL   UNL     1      -1.925  12.995  21.172  0.00  0.00    +0.000 Cl
ATOM     17  C   UNL     1       0.001  11.170  21.640  0.00  0.00    +0.000 A 
ATOM     18  C   UNL     1       0.812  10.085  21.294  0.00  0.00    +0.000 A 
ENDBRANCH   6  12
BRANCH  10  19
ATOM     19  C   UNL     1       4.819   5.656  17.785  0.00  0.00    +0.000 C 
BRANCH  19  20
ATOM     20  C   UNL     1       5.495   5.241  16.499  0.00  0.00    +0.000 A 
ATOM     21  C   UNL     1       4.886   4.351  15.594  0.00  0.00    +0.000 A 
ATOM     22  C   UNL     1       5.533   3.954  14.422  0.00  0.00    +0.000 A 
ATOM     23  C   UNL     1       6.801   4.443  14.127  0.00  0.00    +0.000 A 
ATOM     24  C   UNL     1       7.424   5.325  15.008  0.00  0.00    +0.000 A 
ATOM     25  C   UNL     1       6.779   5.720  16.184  0.00  0.00    +0.000 A 
ATOM     26 CL   UNL     1       7.629   6.799  17.236  0.00  0.00    +0.000 Cl
ENDBRANCH  19  20
ENDBRANCH  10  19
TORSDOF 3
ENDMDL
MODEL 7
REMARK VINA RESULT:      -7.4      2.252      7.811
REMARK  Name = 
REMARK  3 active torsions:
REMARK  status: ('A' for Active; 'I' for Inactive)
REMARK    1  A    between atoms: N_6  and  C_7
REMARK    2  A    between atoms: N_17  and  C_18
REMARK    3  A    between atoms: C_18  and  C_19
REMARK                            x       y       z     vdW  Elec       q    Type
REMARK                         _______ _______ _______ _____ _____    ______ ____
ROOT
ATOM      1  O   UNL     1       3.116   8.617  17.984  0.00  0.00    +0.000 OA
ATOM      2  N   UNL     1       2.217   9.460  18.070  0.00  0.00    +0.000 N 
ATOM      3  O   UNL     1       1.978  10.323  17.208  0.00  0.00    +0.000 OA
ATOM      4  C   UNL     1       1.390   9.448  19.272  0.00  0.00    +0.000 A 
ATOM      5  N   UNL     1       0.560  10.513  19.436  0.00  0.00    +0.000 NA
ATOM      6  N   UNL     1       0.011  10.288  20.675  0.00  0.00    +0.000 N 
ATOM      7  N   UNL     1       0.467   9.077  21.238  0.00  0.00    +0.000 N 
ATOM      8  O   UNL     1       0.063   8.628  22.348  0.00  0.00    +0.000 OA
ATOM      9  C   UNL     1       1.328   8.507  20.362  0.00  0.00    +0.000 A 
ATOM     10  N   UNL     1       1.903   7.303  20.662  0.00  0.00    +0.000 N 
ATOM     11  H   UNL     1       1.698   6.874  21.567  0.00  0.00    +0.000 HD
ENDROOT
BRANCH   6  12
ATOM     12  C   UNL     1      -0.876  11.264  21.218  0.00  0.00    +0.000 A 
ATOM     13  C   UNL     1      -0.818  11.556  22.592  0.00  0.00    +0.000 A 
ATOM     14  C   UNL     1      -1.681  12.510  23.148  0.00  0.00    +0.000 A 
ATOM     15  C   UNL     1      -2.607  13.159  22.338  0.00  0.00    +0.000 A 
ATOM     16 CL   UNL     1      -3.674  14.325  23.014  0.00  0.00    +0.000 Cl
ATOM     17  C   UNL     1      -2.676  12.868  20.979  0.00  0.00    +0.000 A 
ATOM     18  C   UNL     1      -1.812  11.924  20.418  0.00  0.00    +0.000 A 
ENDBRANCH   6  12
BRANCH  10  19
ATOM     19  C   UNL     1       2.291   6.337  19.638  0.00  0.00    +0.000 C 
BRANCH  19  20
ATOM     20  C   UNL     1       1.997   4.913  20.051  0.00  0.00    +0.000 A 
ATOM     21  C   UNL     1       2.190   4.469  21.374  0.00  0.00    +0.000 A 
ATOM     22  C   UNL     1       1.941   3.144  21.736  0.00  0.00    +0.000 A 
ATOM     23  C   UNL     1       1.488   2.236  20.786  0.00  0.00    +0.000 A 
ATOM     24  C   UNL     1       1.289   2.652  19.471  0.00  0.00    +0.000 A 
ATOM     25  C   UNL     1       1.543   3.978  19.105  0.00  0.00    +0.000 A 
ATOM     26 CL   UNL     1       1.295   4.410  17.448  0.00  0.00    +0.000 Cl
ENDBRANCH  19  20
ENDBRANCH  10  19
TORSDOF 3
ENDMDL
MODEL 8
REMARK VINA RESULT:      -7.4      1.158      1.613
REMARK  Name = 
REMARK  3 active torsions:
REMARK  status: ('A' for Active; 'I' for Inactive)
REMARK    1  A    between atoms: N_6  and  C_7
REMARK    2  A    between atoms: N_17  and  C_18
REMARK    3  A    between atoms: C_18  and  C_19
REMARK                            x       y       z     vdW  Elec       q    Type
REMARK                         _______ _______ _______ _____ _____    ______ ____
ROOT
ATOM      1  O   UNL     1      -0.168  11.282  22.073  0.00  0.00    +0.000 OA
ATOM      2  N   UNL     1       0.237  10.118  21.979  0.00  0.00    +0.000 N 
ATOM      3  O   UNL     1       0.278   9.309  22.921  0.00  0.00    +0.000 OA
ATOM      4  C   UNL     1       0.711   9.670  20.673  0.00  0.00    +0.000 A 
ATOM      5  N   UNL     1       1.348   8.469  20.649  0.00  0.00    +0.000 NA
ATOM      6  N   UNL     1       1.771   8.369  19.346  0.00  0.00    +0.000 N 
ATOM      7  N   UNL     1       1.357   9.476  18.575  0.00  0.00    +0.000 N 
ATOM      8  O   UNL     1       1.580   9.585  17.336  0.00  0.00    +0.000 OA
ATOM      9  C   UNL     1       0.661  10.312  19.383  0.00  0.00    +0.000 A 
ATOM     10  N   UNL     1       0.128  11.462  18.871  0.00  0.00    +0.000 N 
ATOM     11  H   UNL     1       0.300  11.688  17.889  0.00  0.00    +0.000 HD
ENDROOT
BRANCH   6  12
ATOM     12  C   UNL     1       2.555   7.240  18.966  0.00  0.00    +0.000 A 
ATOM     13  C   UNL     1       3.390   7.332  17.839  0.00  0.00    +0.000 A 
ATOM     14  C   UNL     1       4.168   6.236  17.444  0.00  0.00    +0.000 A 
ATOM     15  C   UNL     1       4.102   5.048  18.165  0.00  0.00    +0.000 A 
ATOM     16 CL   UNL     1       5.047   3.695  17.684  0.00  0.00    +0.000 Cl
ATOM     17  C   UNL     1       3.270   4.946  19.277  0.00  0.00    +0.000 A 
ATOM     18  C   UNL     1       2.499   6.040  19.679  0.00  0.00    +0.000 A 
ENDBRANCH   6  12
BRANCH  10  19
ATOM     19  C   UNL     1      -1.089  12.071  19.399  0.00  0.00    +0.000 C 
BRANCH  19  20
ATOM     20  C   UNL     1      -2.300  11.768  18.547  0.00  0.00    +0.000 A 
ATOM     21  C   UNL     1      -2.178  11.255  17.241  0.00  0.00    +0.000 A 
ATOM     22  C   UNL     1      -3.304  11.006  16.454  0.00  0.00    +0.000 A 
ATOM     23  C   UNL     1      -4.576  11.257  16.958  0.00  0.00    +0.000 A 
ATOM     24  C   UNL     1      -4.720  11.763  18.248  0.00  0.00    +0.000 A 
ATOM     25  C   UNL     1      -3.594  12.019  19.036  0.00  0.00    +0.000 A 
ATOM     26 CL   UNL     1      -3.857  12.669  20.617  0.00  0.00    +0.000 Cl
ENDBRANCH  19  20
ENDBRANCH  10  19
TORSDOF 3
ENDMDL
MODEL 9
REMARK VINA RESULT:      -7.3      2.190      3.213
REMARK  Name = 
REMARK  3 active torsions:
REMARK  status: ('A' for Active; 'I' for Inactive)
REMARK    1  A    between atoms: N_6  and  C_7
REMARK    2  A    between atoms: N_17  and  C_18
REMARK    3  A    between atoms: C_18  and  C_19
REMARK                            x       y       z     vdW  Elec       q    Type
REMARK                         _______ _______ _______ _____ _____    ______ ____
ROOT
ATOM      1  O   UNL     1       1.018  10.915  21.525  0.00  0.00    +0.000 OA
ATOM      2  N   UNL     1       1.025   9.680  21.537  0.00  0.00    +0.000 N 
ATOM      3  O   UNL     1       0.719   8.984  22.520  0.00  0.00    +0.000 OA
ATOM      4  C   UNL     1       1.435   8.993  20.315  0.00  0.00    +0.000 A 
ATOM      5  N   UNL     1       1.642   7.654  20.424  0.00  0.00    +0.000 NA
ATOM      6  N   UNL     1       2.117   7.313  19.181  0.00  0.00    +0.000 N 
ATOM      7  N   UNL     1       2.155   8.424  18.312  0.00  0.00    +0.000 N 
ATOM      8  O   UNL     1       2.506   8.350  17.100  0.00  0.00    +0.000 OA
ATOM      9  C   UNL     1       1.707   9.505  18.995  0.00  0.00    +0.000 A 
ATOM     10  N   UNL     1       1.626  10.717  18.369  0.00  0.00    +0.000 N 
ATOM     11  H   UNL     1       1.945  10.791  17.400  0.00  0.00    +0.000 HD
ENDROOT
BRANCH   6  12
ATOM     12  C   UNL     1       2.517   5.964  18.948  0.00  0.00    +0.000 A 
ATOM     13  C   UNL     1       1.783   5.177  18.043  0.00  0.00    +0.000 A 
ATOM     14  C   UNL     1       2.155   3.848  17.799  0.00  0.00    +0.000 A 
ATOM     15  C   UNL     1       3.247   3.304  18.467  0.00  0.00    +0.000 A 
ATOM     16 CL   UNL     1       3.706   1.673  18.180  0.00  0.00    +0.000 Cl
ATOM     17  C   UNL     1       3.972   4.074  19.372  0.00  0.00    +0.000 A 
ATOM     18  C   UNL     1       3.610   5.402  19.612  0.00  0.00    +0.000 A 
ENDBRANCH   6  12
BRANCH  10  19
ATOM     19  C   UNL     1       0.636  11.728  18.730  0.00  0.00    +0.000 C 
BRANCH  19  20
ATOM     20  C   UNL     1       1.191  13.131  18.650  0.00  0.00    +0.000 A 
ATOM     21  C   UNL     1       2.463  13.396  18.107  0.00  0.00    +0.000 A 
ATOM     22  C   UNL     1       2.976  14.693  18.064  0.00  0.00    +0.000 A 
ATOM     23  C   UNL     1       2.226  15.755  18.557  0.00  0.00    +0.000 A 
ATOM     24  C   UNL     1       0.964  15.517  19.099  0.00  0.00    +0.000 A 
ATOM     25  C   UNL     1       0.451  14.217  19.147  0.00  0.00    +0.000 A 
ATOM     26 CL   UNL     1      -1.113  14.003  19.856  0.00  0.00    +0.000 Cl
ENDBRANCH  19  20
ENDBRANCH  10  19
TORSDOF 3
ENDMDL
