MODEL 1
REMARK VINA RESULT:      -7.3      0.000      0.000
REMARK  Name = 
REMARK  3 active torsions:
REMARK  status: ('A' for Active; 'I' for Inactive)
REMARK    1  A    between atoms: C_2  and  C_3
REMARK    2  A    between atoms: C_3  and  C_14
REMARK    3  A    between atoms: C_4  and  C_5
REMARK                            x       y       z     vdW  Elec       q    Type
REMARK                         _______ _______ _______ _____ _____    ______ ____
ROOT
ATOM      1  C   UNL     1       5.414   4.503  15.531  0.00  0.00    +0.000 C 
ATOM      2  C   UNL     1       4.546   3.732  16.221  0.00  0.00    +0.000 C 
ENDROOT
BRANCH   2   3
ATOM      3  C   UNL     1       3.836   4.042  17.461  0.00  0.00    +0.000 A 
ATOM      4  C   UNL     1       3.204   5.300  17.588  0.00  0.00    +0.000 A 
ATOM      5  C   UNL     1       2.495   5.633  18.746  0.00  0.00    +0.000 A 
ATOM      6  C   UNL     1       2.451   4.697  19.753  0.00  0.00    +0.000 A 
ATOM      7  C   UNL     1       3.048   3.462  19.623  0.00  0.00    +0.000 A 
ATOM      8  C   UNL     1       3.734   3.095  18.484  0.00  0.00    +0.000 A 
ATOM      9  O   UNL     1       2.882   2.693  20.735  0.00  0.00    +0.000 OA
ATOM     10  C   UNL     1       2.285   3.654  21.629  0.00  0.00    +0.000 C 
ATOM     11  O   UNL     1       1.851   4.857  20.962  0.00  0.00    +0.000 OA
ENDBRANCH   2   3
BRANCH   1  12
ATOM     12  C   UNL     1       5.835   5.896  15.893  0.00  0.00    +0.000 C 
ATOM     13  O   UNL     1       5.342   6.844  15.283  0.00  0.00    +0.000 OA
ATOM     14  N   UNL     1       6.801   6.097  16.876  0.00  0.00    +0.000 N 
ATOM     15  C   UNL     1       7.462   5.084  17.718  0.00  0.00    +0.000 C 
ATOM     16  C   UNL     1       7.842   5.616  19.107  0.00  0.00    +0.000 C 
ATOM     17  O   UNL     1       8.538   6.864  19.034  0.00  0.00    +0.000 OA
ATOM     18  C   UNL     1       7.735   7.844  18.361  0.00  0.00    +0.000 C 
ATOM     19  C   UNL     1       7.460   7.411  16.921  0.00  0.00    +0.000 C 
ENDBRANCH   1  12
BRANCH   1  21
ATOM     20  N   UNL     1       6.108   3.507  13.029  0.00  0.00    +0.000 NA
ATOM     21  C   UNL     1       5.793   3.959  14.164  0.00  0.00    +0.000 C 
ENDBRANCH   1  21
TORSDOF 3
ENDMDL
MODEL 2
REMARK VINA RESULT:      -7.2      3.182      5.480
REMARK  Name = 
REMARK  3 active torsions:
REMARK  status: ('A' for Active; 'I' for Inactive)
REMARK    1  A    between atoms: C_2  and  C_3
REMARK    2  A    between atoms: C_3  and  C_14
REMARK    3  A    between atoms: C_4  and  C_5
REMARK                            x       y       z     vdW  Elec       q    Type
REMARK                         _______ _______ _______ _____ _____    ______ ____
ROOT
ATOM      1  C   UNL     1       3.278   5.347  17.544  0.00  0.00    +0.000 C 
ATOM      2  C   UNL     1       3.462   6.673  17.719  0.00  0.00    +0.000 C 
ENDROOT
BRANCH   2   3
ATOM      3  C   UNL     1       2.600   7.631  18.410  0.00  0.00    +0.000 A 
ATOM      4  C   UNL     1       2.042   8.701  17.673  0.00  0.00    +0.000 A 
ATOM      5  C   UNL     1       1.195   9.629  18.286  0.00  0.00    +0.000 A 
ATOM      6  C   UNL     1       0.941   9.466  19.628  0.00  0.00    +0.000 A 
ATOM      7  C   UNL     1       1.466   8.412  20.344  0.00  0.00    +0.000 A 
ATOM      8  C   UNL     1       2.286   7.467  19.762  0.00  0.00    +0.000 A 
ATOM      9  O   UNL     1       1.088   8.441  21.652  0.00  0.00    +0.000 OA
ATOM     10  C   UNL     1       0.432   9.725  21.703  0.00  0.00    +0.000 C 
ATOM     11  O   UNL     1       0.182  10.288  20.400  0.00  0.00    +0.000 OA
ENDBRANCH   2   3
BRANCH   1  12
ATOM     12  C   UNL     1       2.119   4.544  18.053  0.00  0.00    +0.000 C 
ATOM     13  O   UNL     1       1.124   4.416  17.341  0.00  0.00    +0.000 OA
ATOM     14  N   UNL     1       2.164   3.990  19.330  0.00  0.00    +0.000 N 
ATOM     15  C   UNL     1       3.282   4.019  20.291  0.00  0.00    +0.000 C 
ATOM     16  C   UNL     1       3.328   2.776  21.191  0.00  0.00    +0.000 C 
ATOM     17  O   UNL     1       2.056   2.488  21.778  0.00  0.00    +0.000 OA
ATOM     18  C   UNL     1       1.068   2.290  20.757  0.00  0.00    +0.000 C 
ATOM     19  C   UNL     1       0.891   3.564  19.930  0.00  0.00    +0.000 C 
ENDBRANCH   1  12
BRANCH   1  21
ATOM     20  N   UNL     1       5.479   4.003  16.504  0.00  0.00    +0.000 NA
ATOM     21  C   UNL     1       4.481   4.612  16.975  0.00  0.00    +0.000 C 
ENDBRANCH   1  21
TORSDOF 3
ENDMDL
MODEL 3
REMARK VINA RESULT:      -7.2      2.787      4.474
REMARK  Name = 
REMARK  3 active torsions:
REMARK  status: ('A' for Active; 'I' for Inactive)
REMARK    1  A    between atoms: C_2  and  C_3
REMARK    2  A    between atoms: C_3  and  C_14
REMARK    3  A    between atoms: C_4  and  C_5
REMARK                            x       y       z     vdW  Elec       q    Type
REMARK                         _______ _______ _______ _____ _____    ______ ____
ROOT
ATOM      1  C   UNL     1       3.846   3.796  19.048  0.00  0.00    +0.000 C 
ATOM      2  C   UNL     1       2.648   4.372  19.285  0.00  0.00    +0.000 C 
ENDROOT
BRANCH   2   3
ATOM      3  C   UNL     1       2.315   5.794  19.348  0.00  0.00    +0.000 A 
ATOM      4  C   UNL     1       1.852   6.332  20.570  0.00  0.00    +0.000 A 
ATOM      5  C   UNL     1       1.543   7.691  20.684  0.00  0.00    +0.000 A 
ATOM      6  C   UNL     1       1.693   8.471  19.561  0.00  0.00    +0.000 A 
ATOM      7  C   UNL     1       2.164   7.954  18.374  0.00  0.00    +0.000 A 
ATOM      8  C   UNL     1       2.500   6.623  18.237  0.00  0.00    +0.000 A 
ATOM      9  O   UNL     1       2.236   8.898  17.395  0.00  0.00    +0.000 OA
ATOM     10  C   UNL     1       1.582  10.003  18.052  0.00  0.00    +0.000 C 
ATOM     11  O   UNL     1       1.401   9.796  19.467  0.00  0.00    +0.000 OA
ENDBRANCH   2   3
BRANCH   1  12
ATOM     12  C   UNL     1       5.131   4.517  18.772  0.00  0.00    +0.000 C 
ATOM     13  O   UNL     1       5.843   4.850  19.719  0.00  0.00    +0.000 OA
ATOM     14  N   UNL     1       5.482   4.835  17.462  0.00  0.00    +0.000 N 
ATOM     15  C   UNL     1       4.767   4.485  16.222  0.00  0.00    +0.000 C 
ATOM     16  C   UNL     1       5.707   4.296  15.023  0.00  0.00    +0.000 C 
ATOM     17  O   UNL     1       6.627   5.382  14.883  0.00  0.00    +0.000 OA
ATOM     18  C   UNL     1       7.412   5.527  16.075  0.00  0.00    +0.000 C 
ATOM     19  C   UNL     1       6.516   5.862  17.268  0.00  0.00    +0.000 C 
ENDBRANCH   1  12
BRANCH   1  21
ATOM     20  N   UNL     1       3.746   1.046  18.646  0.00  0.00    +0.000 NA
ATOM     21  C   UNL     1       3.791   2.293  18.828  0.00  0.00    +0.000 C 
ENDBRANCH   1  21
TORSDOF 3
ENDMDL
MODEL 4
REMARK VINA RESULT:      -7.0      2.949      4.554
REMARK  Name = 
REMARK  3 active torsions:
REMARK  status: ('A' for Active; 'I' for Inactive)
REMARK    1  A    between atoms: C_2  and  C_3
REMARK    2  A    between atoms: C_3  and  C_14
REMARK    3  A    between atoms: C_4  and  C_5
REMARK                            x       y       z     vdW  Elec       q    Type
REMARK                         _______ _______ _______ _____ _____    ______ ____
ROOT
ATOM      1  C   UNL     1       4.146   4.078  19.074  0.00  0.00    +0.000 C 
ATOM      2  C   UNL     1       3.626   5.086  19.806  0.00  0.00    +0.000 C 
ENDROOT
BRANCH   2   3
ATOM      3  C   UNL     1       3.035   6.341  19.343  0.00  0.00    +0.000 A 
ATOM      4  C   UNL     1       3.355   6.806  18.047  0.00  0.00    +0.000 A 
ATOM      5  C   UNL     1       2.798   7.990  17.552  0.00  0.00    +0.000 A 
ATOM      6  C   UNL     1       1.945   8.682  18.379  0.00  0.00    +0.000 A 
ATOM      7  C   UNL     1       1.615   8.220  19.634  0.00  0.00    +0.000 A 
ATOM      8  C   UNL     1       2.129   7.045  20.141  0.00  0.00    +0.000 A 
ATOM      9  O   UNL     1       0.757   9.057  20.280  0.00  0.00    +0.000 OA
ATOM     10  C   UNL     1       0.745  10.172  19.365  0.00  0.00    +0.000 C 
ATOM     11  O   UNL     1       1.346   9.868  18.091  0.00  0.00    +0.000 OA
ENDBRANCH   2   3
BRANCH   1  12
ATOM     12  C   UNL     1       4.215   4.021  17.577  0.00  0.00    +0.000 C 
ATOM     13  O   UNL     1       3.248   3.585  16.953  0.00  0.00    +0.000 OA
ATOM     14  N   UNL     1       5.376   4.418  16.919  0.00  0.00    +0.000 N 
ATOM     15  C   UNL     1       6.601   4.989  17.507  0.00  0.00    +0.000 C 
ATOM     16  C   UNL     1       7.316   5.967  16.565  0.00  0.00    +0.000 C 
ATOM     17  O   UNL     1       7.494   5.422  15.255  0.00  0.00    +0.000 OA
ATOM     18  C   UNL     1       6.225   5.067  14.687  0.00  0.00    +0.000 C 
ATOM     19  C   UNL     1       5.548   3.983  15.525  0.00  0.00    +0.000 C 
ENDBRANCH   1  12
BRANCH   1  21
ATOM     20  N   UNL     1       4.734   1.780  20.525  0.00  0.00    +0.000 NA
ATOM     21  C   UNL     1       4.467   2.822  19.867  0.00  0.00    +0.000 C 
ENDBRANCH   1  21
TORSDOF 3
ENDMDL
MODEL 5
REMARK VINA RESULT:      -7.0      3.657      5.767
REMARK  Name = 
REMARK  3 active torsions:
REMARK  status: ('A' for Active; 'I' for Inactive)
REMARK    1  A    between atoms: C_2  and  C_3
REMARK    2  A    between atoms: C_3  and  C_14
REMARK    3  A    between atoms: C_4  and  C_5
REMARK                            x       y       z     vdW  Elec       q    Type
REMARK                         _______ _______ _______ _____ _____    ______ ____
ROOT
ATOM      1  C   UNL     1       2.186   4.671  20.282  0.00  0.00    +0.000 C 
ATOM      2  C   UNL     1       1.928   5.898  20.782  0.00  0.00    +0.000 C 
ENDROOT
BRANCH   2   3
ATOM      3  C   UNL     1       1.842   7.174  20.072  0.00  0.00    +0.000 A 
ATOM      4  C   UNL     1       2.441   7.285  18.797  0.00  0.00    +0.000 A 
ATOM      5  C   UNL     1       2.365   8.477  18.070  0.00  0.00    +0.000 A 
ATOM      6  C   UNL     1       1.701   9.532  18.652  0.00  0.00    +0.000 A 
ATOM      7  C   UNL     1       1.098   9.420  19.886  0.00  0.00    +0.000 A 
ATOM      8  C   UNL     1       1.135   8.250  20.616  0.00  0.00    +0.000 A 
ATOM      9  O   UNL     1       0.498  10.580  20.272  0.00  0.00    +0.000 OA
ATOM     10  C   UNL     1       0.958  11.467  19.232  0.00  0.00    +0.000 C 
ATOM     11  O   UNL     1       1.564  10.776  18.121  0.00  0.00    +0.000 OA
ENDBRANCH   2   3
BRANCH   1  12
ATOM     12  C   UNL     1       2.428   4.340  18.840  0.00  0.00    +0.000 C 
ATOM     13  O   UNL     1       1.464   4.116  18.110  0.00  0.00    +0.000 OA
ATOM     14  N   UNL     1       3.732   4.249  18.358  0.00  0.00    +0.000 N 
ATOM     15  C   UNL     1       4.987   4.515  19.083  0.00  0.00    +0.000 C 
ATOM     16  C   UNL     1       6.100   5.055  18.173  0.00  0.00    +0.000 C 
ATOM     17  O   UNL     1       6.260   4.265  16.991  0.00  0.00    +0.000 OA
ATOM     18  C   UNL     1       5.032   4.219  16.251  0.00  0.00    +0.000 C 
ATOM     19  C   UNL     1       3.934   3.551  17.080  0.00  0.00    +0.000 C 
ENDBRANCH   1  12
BRANCH   1  21
ATOM     20  N   UNL     1       1.803   2.586  22.083  0.00  0.00    +0.000 NA
ATOM     21  C   UNL     1       1.976   3.531  21.266  0.00  0.00    +0.000 C 
ENDBRANCH   1  21
TORSDOF 3
ENDMDL
MODEL 6
REMARK VINA RESULT:      -7.0      0.695      1.527
REMARK  Name = 
REMARK  3 active torsions:
REMARK  status: ('A' for Active; 'I' for Inactive)
REMARK    1  A    between atoms: C_2  and  C_3
REMARK    2  A    between atoms: C_3  and  C_14
REMARK    3  A    between atoms: C_4  and  C_5
REMARK                            x       y       z     vdW  Elec       q    Type
REMARK                         _______ _______ _______ _____ _____    ______ ____
ROOT
ATOM      1  C   UNL     1       5.414   4.476  15.453  0.00  0.00    +0.000 C 
ATOM      2  C   UNL     1       4.608   3.686  16.195  0.00  0.00    +0.000 C 
ENDROOT
BRANCH   2   3
ATOM      3  C   UNL     1       3.989   3.972  17.488  0.00  0.00    +0.000 A 
ATOM      4  C   UNL     1       4.029   2.982  18.496  0.00  0.00    +0.000 A 
ATOM      5  C   UNL     1       3.470   3.218  19.756  0.00  0.00    +0.000 A 
ATOM      6  C   UNL     1       2.872   4.439  19.965  0.00  0.00    +0.000 A 
ATOM      7  C   UNL     1       2.850   5.413  18.991  0.00  0.00    +0.000 A 
ATOM      8  C   UNL     1       3.414   5.219  17.747  0.00  0.00    +0.000 A 
ATOM      9  O   UNL     1       2.211   6.541  19.408  0.00  0.00    +0.000 OA
ATOM     10  C   UNL     1       1.679   6.086  20.669  0.00  0.00    +0.000 C 
ATOM     11  O   UNL     1       2.239   4.831  21.103  0.00  0.00    +0.000 OA
ENDBRANCH   2   3
BRANCH   1  12
ATOM     12  C   UNL     1       5.845   5.869  15.800  0.00  0.00    +0.000 C 
ATOM     13  O   UNL     1       5.369   6.814  15.172  0.00  0.00    +0.000 OA
ATOM     14  N   UNL     1       6.801   6.074  16.792  0.00  0.00    +0.000 N 
ATOM     15  C   UNL     1       7.442   5.065  17.655  0.00  0.00    +0.000 C 
ATOM     16  C   UNL     1       7.811   5.612  19.041  0.00  0.00    +0.000 C 
ATOM     17  O   UNL     1       8.521   6.852  18.960  0.00  0.00    +0.000 OA
ATOM     18  C   UNL     1       7.736   7.831  18.264  0.00  0.00    +0.000 C 
ATOM     19  C   UNL     1       7.473   7.381  16.826  0.00  0.00    +0.000 C 
ENDBRANCH   1  12
BRANCH   1  21
ATOM     20  N   UNL     1       5.930   3.520  12.893  0.00  0.00    +0.000 NA
ATOM     21  C   UNL     1       5.696   3.953  14.053  0.00  0.00    +0.000 C 
ENDBRANCH   1  21
TORSDOF 3
ENDMDL
MODEL 7
REMARK VINA RESULT:      -7.0      3.448      5.859
REMARK  Name = 
REMARK  3 active torsions:
REMARK  status: ('A' for Active; 'I' for Inactive)
REMARK    1  A    between atoms: C_2  and  C_3
REMARK    2  A    between atoms: C_3  and  C_14
REMARK    3  A    between atoms: C_4  and  C_5
REMARK                            x       y       z     vdW  Elec       q    Type
REMARK                         _______ _______ _______ _____ _____    ______ ____
ROOT
ATOM      1  C   UNL     1       3.194   5.411  17.602  0.00  0.00    +0.000 C 
ATOM      2  C   UNL     1       3.330   6.736  17.824  0.00  0.00    +0.000 C 
ENDROOT
BRANCH   2   3
ATOM      3  C   UNL     1       2.435   7.638  18.548  0.00  0.00    +0.000 A 
ATOM      4  C   UNL     1       2.208   7.411  19.925  0.00  0.00    +0.000 A 
ATOM      5  C   UNL     1       1.378   8.259  20.664  0.00  0.00    +0.000 A 
ATOM      6  C   UNL     1       0.785   9.305  19.996  0.00  0.00    +0.000 A 
ATOM      7  C   UNL     1       1.021   9.541  18.659  0.00  0.00    +0.000 A 
ATOM      8  C   UNL     1       1.854   8.736  17.909  0.00  0.00    +0.000 A 
ATOM      9  O   UNL     1       0.337  10.625  18.200  0.00  0.00    +0.000 OA
ATOM     10  C   UNL     1      -0.488  10.915  19.347  0.00  0.00    +0.000 C 
ATOM     11  O   UNL     1      -0.083  10.203  20.533  0.00  0.00    +0.000 OA
ENDBRANCH   2   3
BRANCH   1  12
ATOM     12  C   UNL     1       2.065   4.549  18.082  0.00  0.00    +0.000 C 
ATOM     13  O   UNL     1       1.084   4.393  17.356  0.00  0.00    +0.000 OA
ATOM     14  N   UNL     1       2.121   3.973  19.349  0.00  0.00    +0.000 N 
ATOM     15  C   UNL     1       3.225   4.031  20.323  0.00  0.00    +0.000 C 
ATOM     16  C   UNL     1       3.315   2.774  21.200  0.00  0.00    +0.000 C 
ATOM     17  O   UNL     1       2.051   2.421  21.767  0.00  0.00    +0.000 OA
ATOM     18  C   UNL     1       1.084   2.200  20.731  0.00  0.00    +0.000 C 
ATOM     19  C   UNL     1       0.861   3.481  19.926  0.00  0.00    +0.000 C 
ENDBRANCH   1  12
BRANCH   1  21
ATOM     20  N   UNL     1       5.440   4.184  16.515  0.00  0.00    +0.000 NA
ATOM     21  C   UNL     1       4.422   4.741  17.008  0.00  0.00    +0.000 C 
ENDBRANCH   1  21
TORSDOF 3
ENDMDL
MODEL 8
REMARK VINA RESULT:      -6.9      2.978      5.072
REMARK  Name = 
REMARK  3 active torsions:
REMARK  status: ('A' for Active; 'I' for Inactive)
REMARK    1  A    between atoms: C_2  and  C_3
REMARK    2  A    between atoms: C_3  and  C_14
REMARK    3  A    between atoms: C_4  and  C_5
REMARK                            x       y       z     vdW  Elec       q    Type
REMARK                         _______ _______ _______ _____ _____    ______ ____
ROOT
ATOM      1  C   UNL     1       4.270   6.180  17.335  0.00  0.00    +0.000 C 
ATOM      2  C   UNL     1       3.563   7.319  17.172  0.00  0.00    +0.000 C 
ENDROOT
BRANCH   2   3
ATOM      3  C   UNL     1       2.677   7.987  18.125  0.00  0.00    +0.000 A 
ATOM      4  C   UNL     1       2.060   9.201  17.745  0.00  0.00    +0.000 A 
ATOM      5  C   UNL     1       1.188   9.865  18.614  0.00  0.00    +0.000 A 
ATOM      6  C   UNL     1       0.970   9.297  19.848  0.00  0.00    +0.000 A 
ATOM      7  C   UNL     1       1.553   8.103  20.212  0.00  0.00    +0.000 A 
ATOM      8  C   UNL     1       2.399   7.413  19.369  0.00  0.00    +0.000 A 
ATOM      9  O   UNL     1       1.202   7.723  21.472  0.00  0.00    +0.000 OA
ATOM     10  C   UNL     1       0.495   8.902  21.910  0.00  0.00    +0.000 C 
ATOM     11  O   UNL     1       0.195   9.816  20.837  0.00  0.00    +0.000 OA
ENDBRANCH   2   3
BRANCH   1  12
ATOM     12  C   UNL     1       4.313   5.338  18.574  0.00  0.00    +0.000 C 
ATOM     13  O   UNL     1       5.138   5.605  19.448  0.00  0.00    +0.000 OA
ATOM     14  N   UNL     1       3.455   4.249  18.705  0.00  0.00    +0.000 N 
ATOM     15  C   UNL     1       2.394   3.814  17.778  0.00  0.00    +0.000 C 
ATOM     16  C   UNL     1       1.215   3.140  18.493  0.00  0.00    +0.000 C 
ATOM     17  O   UNL     1       1.646   2.129  19.408  0.00  0.00    +0.000 OA
ATOM     18  C   UNL     1       2.530   2.688  20.389  0.00  0.00    +0.000 C 
ATOM     19  C   UNL     1       3.789   3.240  19.721  0.00  0.00    +0.000 C 
ENDBRANCH   1  12
BRANCH   1  21
ATOM     20  N   UNL     1       6.092   5.651  15.300  0.00  0.00    +0.000 NA
ATOM     21  C   UNL     1       5.266   5.891  16.223  0.00  0.00    +0.000 C 
ENDBRANCH   1  21
TORSDOF 3
ENDMDL
MODEL 9
REMARK VINA RESULT:      -6.9      2.791      4.287
REMARK  Name = 
REMARK  3 active torsions:
REMARK  status: ('A' for Active; 'I' for Inactive)
REMARK    1  A    between atoms: C_2  and  C_3
REMARK    2  A    between atoms: C_3  and  C_14
REMARK    3  A    between atoms: C_4  and  C_5
REMARK                            x       y       z     vdW  Elec       q    Type
REMARK                         _______ _______ _______ _____ _____    ______ ____
ROOT
ATOM      1  C   UNL     1       3.836   3.873  19.087  0.00  0.00    +0.000 C 
ATOM      2  C   UNL     1       2.636   4.439  19.339  0.00  0.00    +0.000 C 
ENDROOT
BRANCH   2   3
ATOM      3  C   UNL     1       2.296   5.859  19.420  0.00  0.00    +0.000 A 
ATOM      4  C   UNL     1       2.460   6.665  18.271  0.00  0.00    +0.000 A 
ATOM      5  C   UNL     1       2.127   8.023  18.294  0.00  0.00    +0.000 A 
ATOM      6  C   UNL     1       1.651   8.538  19.477  0.00  0.00    +0.000 A 
ATOM      7  C   UNL     1       1.470   7.751  20.592  0.00  0.00    +0.000 A 
ATOM      8  C   UNL     1       1.767   6.403  20.594  0.00  0.00    +0.000 A 
ATOM      9  O   UNL     1       0.991   8.461  21.651  0.00  0.00    +0.000 OA
ATOM     10  C   UNL     1       1.075   9.800  21.123  0.00  0.00    +0.000 C 
ATOM     11  O   UNL     1       1.320   9.838  19.703  0.00  0.00    +0.000 OA
ENDBRANCH   2   3
BRANCH   1  12
ATOM     12  C   UNL     1       5.115   4.604  18.809  0.00  0.00    +0.000 C 
ATOM     13  O   UNL     1       5.823   4.947  19.755  0.00  0.00    +0.000 OA
ATOM     14  N   UNL     1       5.463   4.922  17.498  0.00  0.00    +0.000 N 
ATOM     15  C   UNL     1       4.752   4.561  16.259  0.00  0.00    +0.000 C 
ATOM     16  C   UNL     1       5.694   4.377  15.061  0.00  0.00    +0.000 C 
ATOM     17  O   UNL     1       6.605   5.470  14.918  0.00  0.00    +0.000 OA
ATOM     18  C   UNL     1       7.388   5.626  16.110  0.00  0.00    +0.000 C 
ATOM     19  C   UNL     1       6.488   5.957  17.301  0.00  0.00    +0.000 C 
ENDBRANCH   1  12
BRANCH   1  21
ATOM     20  N   UNL     1       3.749   1.127  18.655  0.00  0.00    +0.000 NA
ATOM     21  C   UNL     1       3.789   2.372  18.851  0.00  0.00    +0.000 C 
ENDBRANCH   1  21
TORSDOF 3
ENDMDL
