MODEL 1
REMARK VINA RESULT:      -7.9      0.000      0.000
REMARK  Name = 
REMARK  9 active torsions:
REMARK  status: ('A' for Active; 'I' for Inactive)
REMARK    1  A    between atoms: C_1  and  C_2
REMARK    2  A    between atoms: C_4  and  C_5
REMARK    3  A    between atoms: C_12  and  C_13
REMARK    4  A    between atoms: C_13  and  C_14
REMARK    5  A    between atoms: C_14  and  C_15
REMARK    6  A    between atoms: C_15  and  C_16
REMARK    7  A    between atoms: C_16  and  C_17
REMARK    8  A    between atoms: C_20  and  C_21
REMARK    9  A    between atoms: C_21  and  O_23
REMARK                            x       y       z     vdW  Elec       q    Type
REMARK                         _______ _______ _______ _____ _____    ______ ____
ROOT
ATOM      1  C   UNL     1       5.849   6.564  16.586  0.00  0.00    +0.000 C 
ENDROOT
BRANCH   1   7
ATOM      2  C   UNL     1       7.979   5.385  18.914  0.00  0.00    +0.000 C 
ATOM      3  C   UNL     1       7.752   6.715  18.325  0.00  0.00    +0.000 A 
ATOM      4  O   UNL     1       8.536   7.732  18.777  0.00  0.00    +0.000 OA
ATOM      5  C   UNL     1       8.103   8.833  18.085  0.00  0.00    +0.000 A 
ATOM      6  N   UNL     1       7.127   8.583  17.234  0.00  0.00    +0.000 NA
ATOM      7  C   UNL     1       6.893   7.237  17.383  0.00  0.00    +0.000 A 
BRANCH   5   8
ATOM      8  C   UNL     1       8.753  10.093  18.405  0.00  0.00    +0.000 A 
ATOM      9  C   UNL     1       9.596  10.210  19.518  0.00  0.00    +0.000 A 
ATOM     10  C   UNL     1      10.193  11.432  19.836  0.00  0.00    +0.000 A 
ATOM     11  C   UNL     1       9.952  12.548  19.038  0.00  0.00    +0.000 A 
ATOM     12  C   UNL     1       9.123  12.446  17.923  0.00  0.00    +0.000 A 
ATOM     13  C   UNL     1       8.527  11.223  17.605  0.00  0.00    +0.000 A 
ENDBRANCH   5   8
ENDBRANCH   1   7
BRANCH   1  14
ATOM     14  C   UNL     1       6.418   5.409  15.763  0.00  0.00    +0.000 C 
BRANCH  14  15
ATOM     15  C   UNL     1       5.480   4.219  15.872  0.00  0.00    +0.000 C 
BRANCH  15  16
ATOM     16  C   UNL     1       5.143   3.851  17.313  0.00  0.00    +0.000 C 
BRANCH  16  17
ATOM     17  C   UNL     1       3.641   3.614  17.454  0.00  0.00    +0.000 C 
ATOM     18  C   UNL     1       3.261   2.509  18.436  0.00  0.00    +0.000 C 
ATOM     19  O   UNL     1       1.855   2.308  18.345  0.00  0.00    +0.000 OA
ATOM     20  C   UNL     1       1.125   3.476  18.667  0.00  0.00    +0.000 C 
ATOM     21  O   UNL     1       1.495   4.625  17.880  0.00  0.00    +0.000 OA
ATOM     22  C   UNL     1       2.904   4.867  17.899  0.00  0.00    +0.000 C 
BRANCH  20  23
ATOM     23  C   UNL     1       1.026   3.868  20.167  0.00  0.00    +0.000 C 
ATOM     24  O   UNL     1       1.189   4.982  20.630  0.00  0.00    +0.000 OA
BRANCH  23  25
ATOM     25  O   UNL     1       0.713   2.788  20.943  0.00  0.00    +0.000 OA
ATOM     26  H   UNL     1       0.072   3.067  21.637  0.00  0.00    +0.000 HD
ENDBRANCH  23  25
ENDBRANCH  20  23
ENDBRANCH  16  17
ENDBRANCH  15  16
ENDBRANCH  14  15
ENDBRANCH   1  14
TORSDOF 8
ENDMDL
MODEL 2
REMARK VINA RESULT:      -7.7      1.032      1.700
REMARK  Name = 
REMARK  9 active torsions:
REMARK  status: ('A' for Active; 'I' for Inactive)
REMARK    1  A    between atoms: C_1  and  C_2
REMARK    2  A    between atoms: C_4  and  C_5
REMARK    3  A    between atoms: C_12  and  C_13
REMARK    4  A    between atoms: C_13  and  C_14
REMARK    5  A    between atoms: C_14  and  C_15
REMARK    6  A    between atoms: C_15  and  C_16
REMARK    7  A    between atoms: C_16  and  C_17
REMARK    8  A    between atoms: C_20  and  C_21
REMARK    9  A    between atoms: C_21  and  O_23
REMARK                            x       y       z     vdW  Elec       q    Type
REMARK                         _______ _______ _______ _____ _____    ______ ____
ROOT
ATOM      1  C   UNL     1       6.591   6.341  16.408  0.00  0.00    +0.000 C 
ENDROOT
BRANCH   1   7
ATOM      2  C   UNL     1       8.047   5.518  19.333  0.00  0.00    +0.000 C 
ATOM      3  C   UNL     1       7.962   6.765  18.556  0.00  0.00    +0.000 A 
ATOM      4  O   UNL     1       8.580   7.860  19.077  0.00  0.00    +0.000 OA
ATOM      5  C   UNL     1       8.328   8.859  18.173  0.00  0.00    +0.000 A 
ATOM      6  N   UNL     1       7.617   8.475  17.131  0.00  0.00    +0.000 NA
ATOM      7  C   UNL     1       7.375   7.143  17.368  0.00  0.00    +0.000 A 
BRANCH   5   8
ATOM      8  C   UNL     1       8.848  10.175  18.505  0.00  0.00    +0.000 A 
ATOM      9  C   UNL     1       8.581  11.285  17.693  0.00  0.00    +0.000 A 
ATOM     10  C   UNL     1       9.109  12.540  18.003  0.00  0.00    +0.000 A 
ATOM     11  C   UNL     1       9.908  12.695  19.133  0.00  0.00    +0.000 A 
ATOM     12  C   UNL     1      10.176  11.603  19.956  0.00  0.00    +0.000 A 
ATOM     13  C   UNL     1       9.647  10.348  19.645  0.00  0.00    +0.000 A 
ENDBRANCH   5   8
ENDBRANCH   1   7
BRANCH   1  14
ATOM     14  C   UNL     1       5.088   6.551  16.588  0.00  0.00    +0.000 C 
BRANCH  14  15
ATOM     15  C   UNL     1       4.595   5.641  17.701  0.00  0.00    +0.000 C 
BRANCH  15  16
ATOM     16  C   UNL     1       3.707   4.508  17.198  0.00  0.00    +0.000 C 
BRANCH  16  17
ATOM     17  C   UNL     1       2.531   4.303  18.152  0.00  0.00    +0.000 C 
ATOM     18  C   UNL     1       2.158   2.844  18.398  0.00  0.00    +0.000 C 
ATOM     19  O   UNL     1       0.966   2.823  19.176  0.00  0.00    +0.000 OA
ATOM     20  C   UNL     1       1.130   3.469  20.423  0.00  0.00    +0.000 C 
ATOM     21  O   UNL     1       1.605   4.824  20.315  0.00  0.00    +0.000 OA
ATOM     22  C   UNL     1       2.786   4.926  19.515  0.00  0.00    +0.000 C 
BRANCH  20  23
ATOM     23  C   UNL     1       1.925   2.712  21.523  0.00  0.00    +0.000 C 
ATOM     24  O   UNL     1       3.113   2.449  21.497  0.00  0.00    +0.000 OA
BRANCH  23  25
ATOM     25  O   UNL     1       1.119   2.369  22.571  0.00  0.00    +0.000 OA
ATOM     26  H   UNL     1       0.238   2.099  22.225  0.00  0.00    +0.000 HD
ENDBRANCH  23  25
ENDBRANCH  20  23
ENDBRANCH  16  17
ENDBRANCH  15  16
ENDBRANCH  14  15
ENDBRANCH   1  14
TORSDOF 8
ENDMDL
MODEL 3
REMARK VINA RESULT:      -7.7      2.837      9.526
REMARK  Name = 
REMARK  9 active torsions:
REMARK  status: ('A' for Active; 'I' for Inactive)
REMARK    1  A    between atoms: C_1  and  C_2
REMARK    2  A    between atoms: C_4  and  C_5
REMARK    3  A    between atoms: C_12  and  C_13
REMARK    4  A    between atoms: C_13  and  C_14
REMARK    5  A    between atoms: C_14  and  C_15
REMARK    6  A    between atoms: C_15  and  C_16
REMARK    7  A    between atoms: C_16  and  C_17
REMARK    8  A    between atoms: C_20  and  C_21
REMARK    9  A    between atoms: C_21  and  O_23
REMARK                            x       y       z     vdW  Elec       q    Type
REMARK                         _______ _______ _______ _____ _____    ______ ____
ROOT
ATOM      1  C   UNL     1       7.611   6.201  18.379  0.00  0.00    +0.000 C 
ENDROOT
BRANCH   1   7
ATOM      2  C   UNL     1       6.688   4.448  15.654  0.00  0.00    +0.000 C 
ATOM      3  C   UNL     1       6.071   4.680  16.970  0.00  0.00    +0.000 A 
ATOM      4  O   UNL     1       4.866   4.090  17.198  0.00  0.00    +0.000 OA
ATOM      5  C   UNL     1       4.526   4.482  18.467  0.00  0.00    +0.000 A 
ATOM      6  N   UNL     1       5.423   5.254  19.048  0.00  0.00    +0.000 NA
ATOM      7  C   UNL     1       6.409   5.390  18.101  0.00  0.00    +0.000 A 
BRANCH   5   8
ATOM      8  C   UNL     1       3.240   4.021  18.962  0.00  0.00    +0.000 A 
ATOM      9  C   UNL     1       2.419   3.193  18.185  0.00  0.00    +0.000 A 
ATOM     10  C   UNL     1       1.172   2.778  18.656  0.00  0.00    +0.000 A 
ATOM     11  C   UNL     1       0.736   3.188  19.914  0.00  0.00    +0.000 A 
ATOM     12  C   UNL     1       1.544   4.004  20.702  0.00  0.00    +0.000 A 
ATOM     13  C   UNL     1       2.792   4.418  20.230  0.00  0.00    +0.000 A 
ENDBRANCH   5   8
ENDBRANCH   1   7
BRANCH   1  14
ATOM     14  C   UNL     1       7.610   7.506  17.585  0.00  0.00    +0.000 C 
BRANCH  14  15
ATOM     15  C   UNL     1       8.375   8.559  18.370  0.00  0.00    +0.000 C 
BRANCH  15  16
ATOM     16  C   UNL     1       8.238   9.960  17.784  0.00  0.00    +0.000 C 
BRANCH  16  17
ATOM     17  C   UNL     1       9.385  10.844  18.270  0.00  0.00    +0.000 C 
ATOM     18  C   UNL     1       9.199  12.335  17.999  0.00  0.00    +0.000 C 
ATOM     19  O   UNL     1      10.402  13.000  18.368  0.00  0.00    +0.000 OA
ATOM     20  C   UNL     1      10.716  12.820  19.735  0.00  0.00    +0.000 C 
ATOM     21  O   UNL     1      10.793  11.438  20.134  0.00  0.00    +0.000 OA
ATOM     22  C   UNL     1       9.627  10.698  19.764  0.00  0.00    +0.000 C 
BRANCH  20  23
ATOM     23  C   UNL     1       9.888  13.628  20.772  0.00  0.00    +0.000 C 
ATOM     24  O   UNL     1       9.624  13.278  21.908  0.00  0.00    +0.000 OA
BRANCH  23  25
ATOM     25  O   UNL     1       9.480  14.826  20.259  0.00  0.00    +0.000 OA
ATOM     26  H   UNL     1       9.243  14.705  19.311  0.00  0.00    +0.000 HD
ENDBRANCH  23  25
ENDBRANCH  20  23
ENDBRANCH  16  17
ENDBRANCH  15  16
ENDBRANCH  14  15
ENDBRANCH   1  14
TORSDOF 8
ENDMDL
MODEL 4
REMARK VINA RESULT:      -7.6      2.577      9.268
REMARK  Name = 
REMARK  9 active torsions:
REMARK  status: ('A' for Active; 'I' for Inactive)
REMARK    1  A    between atoms: C_1  and  C_2
REMARK    2  A    between atoms: C_4  and  C_5
REMARK    3  A    between atoms: C_12  and  C_13
REMARK    4  A    between atoms: C_13  and  C_14
REMARK    5  A    between atoms: C_14  and  C_15
REMARK    6  A    between atoms: C_15  and  C_16
REMARK    7  A    between atoms: C_16  and  C_17
REMARK    8  A    between atoms: C_20  and  C_21
REMARK    9  A    between atoms: C_21  and  O_23
REMARK                            x       y       z     vdW  Elec       q    Type
REMARK                         _______ _______ _______ _____ _____    ______ ____
ROOT
ATOM      1  C   UNL     1       6.354   7.160  17.244  0.00  0.00    +0.000 C 
ENDROOT
BRANCH   1   7
ATOM      2  C   UNL     1       6.048   4.442  15.277  0.00  0.00    +0.000 C 
ATOM      3  C   UNL     1       5.344   4.909  16.482  0.00  0.00    +0.000 A 
ATOM      4  O   UNL     1       4.340   4.120  16.954  0.00  0.00    +0.000 OA
ATOM      5  C   UNL     1       3.860   4.792  18.048  0.00  0.00    +0.000 A 
ATOM      6  N   UNL     1       4.488   5.923  18.301  0.00  0.00    +0.000 NA
ATOM      7  C   UNL     1       5.433   6.009  17.307  0.00  0.00    +0.000 A 
BRANCH   5   8
ATOM      8  C   UNL     1       2.734   4.183  18.736  0.00  0.00    +0.000 A 
ATOM      9  C   UNL     1       2.418   4.531  20.056  0.00  0.00    +0.000 A 
ATOM     10  C   UNL     1       1.352   3.920  20.720  0.00  0.00    +0.000 A 
ATOM     11  C   UNL     1       0.590   2.956  20.064  0.00  0.00    +0.000 A 
ATOM     12  C   UNL     1       0.886   2.605  18.749  0.00  0.00    +0.000 A 
ATOM     13  C   UNL     1       1.952   3.218  18.085  0.00  0.00    +0.000 A 
ENDBRANCH   5   8
ENDBRANCH   1   7
BRANCH   1  14
ATOM     14  C   UNL     1       7.743   6.805  17.771  0.00  0.00    +0.000 C 
BRANCH  14  15
ATOM     15  C   UNL     1       8.317   8.010  18.497  0.00  0.00    +0.000 C 
BRANCH  15  16
ATOM     16  C   UNL     1       8.041   9.328  17.780  0.00  0.00    +0.000 C 
BRANCH  16  17
ATOM     17  C   UNL     1       9.076  10.373  18.191  0.00  0.00    +0.000 C 
ATOM     18  C   UNL     1       8.703  11.811  17.840  0.00  0.00    +0.000 C 
ATOM     19  O   UNL     1       9.819  12.639  18.146  0.00  0.00    +0.000 OA
ATOM     20  C   UNL     1      10.172  12.580  19.514  0.00  0.00    +0.000 C 
ATOM     21  O   UNL     1      10.425  11.244  19.989  0.00  0.00    +0.000 OA
ATOM     22  C   UNL     1       9.355  10.346  19.686  0.00  0.00    +0.000 C 
BRANCH  20  23
ATOM     23  C   UNL     1       9.265  13.340  20.520  0.00  0.00    +0.000 C 
ATOM     24  O   UNL     1       8.307  14.037  20.239  0.00  0.00    +0.000 OA
BRANCH  23  25
ATOM     25  O   UNL     1       9.664  13.126  21.809  0.00  0.00    +0.000 OA
ATOM     26  H   UNL     1       9.098  13.659  22.413  0.00  0.00    +0.000 HD
ENDBRANCH  23  25
ENDBRANCH  20  23
ENDBRANCH  16  17
ENDBRANCH  15  16
ENDBRANCH  14  15
ENDBRANCH   1  14
TORSDOF 8
ENDMDL
MODEL 5
REMARK VINA RESULT:      -7.5      3.023      9.611
REMARK  Name = 
REMARK  9 active torsions:
REMARK  status: ('A' for Active; 'I' for Inactive)
REMARK    1  A    between atoms: C_1  and  C_2
REMARK    2  A    between atoms: C_4  and  C_5
REMARK    3  A    between atoms: C_12  and  C_13
REMARK    4  A    between atoms: C_13  and  C_14
REMARK    5  A    between atoms: C_14  and  C_15
REMARK    6  A    between atoms: C_15  and  C_16
REMARK    7  A    between atoms: C_16  and  C_17
REMARK    8  A    between atoms: C_20  and  C_21
REMARK    9  A    between atoms: C_21  and  O_23
REMARK                            x       y       z     vdW  Elec       q    Type
REMARK                         _______ _______ _______ _____ _____    ______ ____
ROOT
ATOM      1  C   UNL     1       7.832   6.698  18.507  0.00  0.00    +0.000 C 
ENDROOT
BRANCH   1   7
ATOM      2  C   UNL     1       6.995   4.396  16.194  0.00  0.00    +0.000 C 
ATOM      3  C   UNL     1       6.388   4.828  17.464  0.00  0.00    +0.000 A 
ATOM      4  O   UNL     1       5.237   4.206  17.840  0.00  0.00    +0.000 OA
ATOM      5  C   UNL     1       4.894   4.807  19.023  0.00  0.00    +0.000 A 
ATOM      6  N   UNL     1       5.739   5.739  19.418  0.00  0.00    +0.000 NA
ATOM      7  C   UNL     1       6.693   5.763  18.428  0.00  0.00    +0.000 A 
BRANCH   5   8
ATOM      8  C   UNL     1       3.658   4.355  19.641  0.00  0.00    +0.000 A 
ATOM      9  C   UNL     1       2.650   5.264  19.993  0.00  0.00    +0.000 A 
ATOM     10  C   UNL     1       1.479   4.825  20.613  0.00  0.00    +0.000 A 
ATOM     11  C   UNL     1       1.305   3.470  20.884  0.00  0.00    +0.000 A 
ATOM     12  C   UNL     1       2.293   2.554  20.533  0.00  0.00    +0.000 A 
ATOM     13  C   UNL     1       3.465   2.993  19.912  0.00  0.00    +0.000 A 
ENDBRANCH   5   8
ENDBRANCH   1   7
BRANCH   1  14
ATOM     14  C   UNL     1       7.821   7.705  17.358  0.00  0.00    +0.000 C 
BRANCH  14  15
ATOM     15  C   UNL     1       7.858   9.110  17.935  0.00  0.00    +0.000 C 
BRANCH  15  16
ATOM     16  C   UNL     1       9.080   9.365  18.812  0.00  0.00    +0.000 C 
BRANCH  16  17
ATOM     17  C   UNL     1       9.229  10.862  19.077  0.00  0.00    +0.000 C 
ATOM     18  C   UNL     1      10.650  11.311  19.405  0.00  0.00    +0.000 C 
ATOM     19  O   UNL     1      10.601  12.686  19.770  0.00  0.00    +0.000 OA
ATOM     20  C   UNL     1      10.093  13.499  18.730  0.00  0.00    +0.000 C 
ATOM     21  O   UNL     1       8.799  13.085  18.252  0.00  0.00    +0.000 OA
ATOM     22  C   UNL     1       8.766  11.701  17.896  0.00  0.00    +0.000 C 
BRANCH  20  23
ATOM     23  C   UNL     1      11.034  13.797  17.530  0.00  0.00    +0.000 C 
ATOM     24  O   UNL     1      11.352  13.012  16.656  0.00  0.00    +0.000 OA
BRANCH  23  25
ATOM     25  O   UNL     1      11.475  15.089  17.554  0.00  0.00    +0.000 OA
ATOM     26  H   UNL     1      10.699  15.695  17.534  0.00  0.00    +0.000 HD
ENDBRANCH  23  25
ENDBRANCH  20  23
ENDBRANCH  16  17
ENDBRANCH  15  16
ENDBRANCH  14  15
ENDBRANCH   1  14
TORSDOF 8
ENDMDL
MODEL 6
REMARK VINA RESULT:      -7.5      1.100      2.050
REMARK  Name = 
REMARK  9 active torsions:
REMARK  status: ('A' for Active; 'I' for Inactive)
REMARK    1  A    between atoms: C_1  and  C_2
REMARK    2  A    between atoms: C_4  and  C_5
REMARK    3  A    between atoms: C_12  and  C_13
REMARK    4  A    between atoms: C_13  and  C_14
REMARK    5  A    between atoms: C_14  and  C_15
REMARK    6  A    between atoms: C_15  and  C_16
REMARK    7  A    between atoms: C_16  and  C_17
REMARK    8  A    between atoms: C_20  and  C_21
REMARK    9  A    between atoms: C_21  and  O_23
REMARK                            x       y       z     vdW  Elec       q    Type
REMARK                         _______ _______ _______ _____ _____    ______ ____
ROOT
ATOM      1  C   UNL     1       6.355   6.050  16.455  0.00  0.00    +0.000 C 
ENDROOT
BRANCH   1   7
ATOM      2  C   UNL     1       8.069   5.281  19.252  0.00  0.00    +0.000 C 
ATOM      3  C   UNL     1       7.886   6.521  18.481  0.00  0.00    +0.000 A 
ATOM      4  O   UNL     1       8.516   7.635  18.946  0.00  0.00    +0.000 OA
ATOM      5  C   UNL     1       8.164   8.623  18.064  0.00  0.00    +0.000 A 
ATOM      6  N   UNL     1       7.380   8.214  17.085  0.00  0.00    +0.000 NA
ATOM      7  C   UNL     1       7.194   6.877  17.345  0.00  0.00    +0.000 A 
BRANCH   5   8
ATOM      8  C   UNL     1       8.674   9.954  18.348  0.00  0.00    +0.000 A 
ATOM      9  C   UNL     1       8.307  11.053  17.560  0.00  0.00    +0.000 A 
ATOM     10  C   UNL     1       8.825  12.323  17.822  0.00  0.00    +0.000 A 
ATOM     11  C   UNL     1       9.714  12.504  18.878  0.00  0.00    +0.000 A 
ATOM     12  C   UNL     1      10.081  11.423  19.677  0.00  0.00    +0.000 A 
ATOM     13  C   UNL     1       9.562  10.152  19.415  0.00  0.00    +0.000 A 
ENDBRANCH   5   8
ENDBRANCH   1   7
BRANCH   1  14
ATOM     14  C   UNL     1       4.922   6.575  16.378  0.00  0.00    +0.000 C 
BRANCH  14  15
ATOM     15  C   UNL     1       4.281   6.457  17.750  0.00  0.00    +0.000 C 
BRANCH  15  16
ATOM     16  C   UNL     1       2.824   6.907  17.771  0.00  0.00    +0.000 C 
BRANCH  16  17
ATOM     17  C   UNL     1       1.939   5.789  18.319  0.00  0.00    +0.000 C 
ATOM     18  C   UNL     1       2.099   4.446  17.610  0.00  0.00    +0.000 C 
ATOM     19  O   UNL     1       1.114   3.559  18.127  0.00  0.00    +0.000 OA
ATOM     20  C   UNL     1       1.251   3.359  19.520  0.00  0.00    +0.000 C 
ATOM     21  O   UNL     1       1.241   4.581  20.284  0.00  0.00    +0.000 OA
ATOM     22  C   UNL     1       2.188   5.535  19.797  0.00  0.00    +0.000 C 
BRANCH  20  23
ATOM     23  C   UNL     1       2.407   2.440  20.002  0.00  0.00    +0.000 C 
ATOM     24  O   UNL     1       3.086   1.714  19.299  0.00  0.00    +0.000 OA
BRANCH  23  25
ATOM     25  O   UNL     1       2.597   2.545  21.350  0.00  0.00    +0.000 OA
ATOM     26  H   UNL     1       1.908   2.017  21.814  0.00  0.00    +0.000 HD
ENDBRANCH  23  25
ENDBRANCH  20  23
ENDBRANCH  16  17
ENDBRANCH  15  16
ENDBRANCH  14  15
ENDBRANCH   1  14
TORSDOF 8
ENDMDL
MODEL 7
REMARK VINA RESULT:      -7.5      1.238      1.996
REMARK  Name = 
REMARK  9 active torsions:
REMARK  status: ('A' for Active; 'I' for Inactive)
REMARK    1  A    between atoms: C_1  and  C_2
REMARK    2  A    between atoms: C_4  and  C_5
REMARK    3  A    between atoms: C_12  and  C_13
REMARK    4  A    between atoms: C_13  and  C_14
REMARK    5  A    between atoms: C_14  and  C_15
REMARK    6  A    between atoms: C_15  and  C_16
REMARK    7  A    between atoms: C_16  and  C_17
REMARK    8  A    between atoms: C_20  and  C_21
REMARK    9  A    between atoms: C_21  and  O_23
REMARK                            x       y       z     vdW  Elec       q    Type
REMARK                         _______ _______ _______ _____ _____    ______ ____
ROOT
ATOM      1  C   UNL     1       6.178   6.329  16.591  0.00  0.00    +0.000 C 
ENDROOT
BRANCH   1   7
ATOM      2  C   UNL     1       8.085   5.365  19.196  0.00  0.00    +0.000 C 
ATOM      3  C   UNL     1       7.888   6.647  18.500  0.00  0.00    +0.000 A 
ATOM      4  O   UNL     1       8.597   7.714  18.961  0.00  0.00    +0.000 OA
ATOM      5  C   UNL     1       8.212   8.755  18.158  0.00  0.00    +0.000 A 
ATOM      6  N   UNL     1       7.335   8.422  17.230  0.00  0.00    +0.000 NA
ATOM      7  C   UNL     1       7.119   7.082  17.444  0.00  0.00    +0.000 A 
BRANCH   5   8
ATOM      8  C   UNL     1       8.796  10.052  18.458  0.00  0.00    +0.000 A 
ATOM      9  C   UNL     1       9.591  10.242  19.596  0.00  0.00    +0.000 A 
ATOM     10  C   UNL     1      10.124  11.498  19.894  0.00  0.00    +0.000 A 
ATOM     11  C   UNL     1       9.866  12.576  19.051  0.00  0.00    +0.000 A 
ATOM     12  C   UNL     1       9.084  12.402  17.911  0.00  0.00    +0.000 A 
ATOM     13  C   UNL     1       8.552  11.144  17.613  0.00  0.00    +0.000 A 
ENDBRANCH   5   8
ENDBRANCH   1   7
BRANCH   1  14
ATOM     14  C   UNL     1       4.783   6.952  16.599  0.00  0.00    +0.000 C 
BRANCH  14  15
ATOM     15  C   UNL     1       3.872   6.107  17.474  0.00  0.00    +0.000 C 
BRANCH  15  16
ATOM     16  C   UNL     1       4.152   6.270  18.964  0.00  0.00    +0.000 C 
BRANCH  16  17
ATOM     17  C   UNL     1       3.438   5.175  19.753  0.00  0.00    +0.000 C 
ATOM     18  C   UNL     1       1.924   5.141  19.566  0.00  0.00    +0.000 C 
ATOM     19  O   UNL     1       1.393   4.177  20.470  0.00  0.00    +0.000 OA
ATOM     20  C   UNL     1       1.912   2.882  20.237  0.00  0.00    +0.000 C 
ATOM     21  O   UNL     1       3.351   2.821  20.265  0.00  0.00    +0.000 OA
ATOM     22  C   UNL     1       3.954   3.788  19.402  0.00  0.00    +0.000 C 
BRANCH  20  23
ATOM     23  C   UNL     1       1.369   2.104  19.007  0.00  0.00    +0.000 C 
ATOM     24  O   UNL     1       0.239   2.167  18.559  0.00  0.00    +0.000 OA
BRANCH  23  25
ATOM     25  O   UNL     1       2.338   1.319  18.449  0.00  0.00    +0.000 OA
ATOM     26  H   UNL     1       2.226   1.317  17.471  0.00  0.00    +0.000 HD
ENDBRANCH  23  25
ENDBRANCH  20  23
ENDBRANCH  16  17
ENDBRANCH  15  16
ENDBRANCH  14  15
ENDBRANCH   1  14
TORSDOF 8
ENDMDL
MODEL 8
REMARK VINA RESULT:      -7.5      2.811      9.614
REMARK  Name = 
REMARK  9 active torsions:
REMARK  status: ('A' for Active; 'I' for Inactive)
REMARK    1  A    between atoms: C_1  and  C_2
REMARK    2  A    between atoms: C_4  and  C_5
REMARK    3  A    between atoms: C_12  and  C_13
REMARK    4  A    between atoms: C_13  and  C_14
REMARK    5  A    between atoms: C_14  and  C_15
REMARK    6  A    between atoms: C_15  and  C_16
REMARK    7  A    between atoms: C_16  and  C_17
REMARK    8  A    between atoms: C_20  and  C_21
REMARK    9  A    between atoms: C_21  and  O_23
REMARK                            x       y       z     vdW  Elec       q    Type
REMARK                         _______ _______ _______ _____ _____    ______ ____
ROOT
ATOM      1  C   UNL     1       6.528   6.728  16.826  0.00  0.00    +0.000 C 
ENDROOT
BRANCH   1   7
ATOM      2  C   UNL     1       5.981   3.755  15.338  0.00  0.00    +0.000 C 
ATOM      3  C   UNL     1       5.460   4.391  16.559  0.00  0.00    +0.000 A 
ATOM      4  O   UNL     1       4.557   3.681  17.289  0.00  0.00    +0.000 OA
ATOM      5  C   UNL     1       4.237   4.504  18.336  0.00  0.00    +0.000 A 
ATOM      6  N   UNL     1       4.873   5.659  18.325  0.00  0.00    +0.000 NA
ATOM      7  C   UNL     1       5.652   5.599  17.194  0.00  0.00    +0.000 A 
BRANCH   5   8
ATOM      8  C   UNL     1       3.242   4.003  19.270  0.00  0.00    +0.000 A 
ATOM      9  C   UNL     1       1.919   4.464  19.234  0.00  0.00    +0.000 A 
ATOM     10  C   UNL     1       0.977   4.000  20.154  0.00  0.00    +0.000 A 
ATOM     11  C   UNL     1       1.351   3.066  21.117  0.00  0.00    +0.000 A 
ATOM     12  C   UNL     1       2.661   2.592  21.160  0.00  0.00    +0.000 A 
ATOM     13  C   UNL     1       3.603   3.056  20.239  0.00  0.00    +0.000 A 
ENDBRANCH   5   8
ENDBRANCH   1   7
BRANCH   1  14
ATOM     14  C   UNL     1       7.507   7.075  17.946  0.00  0.00    +0.000 C 
BRANCH  14  15
ATOM     15  C   UNL     1       7.912   8.533  17.811  0.00  0.00    +0.000 C 
BRANCH  15  16
ATOM     16  C   UNL     1       8.913   8.978  18.872  0.00  0.00    +0.000 C 
BRANCH  16  17
ATOM     17  C   UNL     1       8.985  10.503  18.916  0.00  0.00    +0.000 C 
ATOM     18  C   UNL     1       9.477  11.079  20.241  0.00  0.00    +0.000 C 
ATOM     19  O   UNL     1       9.346  12.495  20.178  0.00  0.00    +0.000 OA
ATOM     20  C   UNL     1      10.105  13.057  19.126  0.00  0.00    +0.000 C 
ATOM     21  O   UNL     1       9.810  12.492  17.833  0.00  0.00    +0.000 OA
ATOM     22  C   UNL     1       9.891  11.065  17.831  0.00  0.00    +0.000 C 
BRANCH  20  23
ATOM     23  C   UNL     1      11.643  13.155  19.325  0.00  0.00    +0.000 C 
ATOM     24  O   UNL     1      12.331  12.396  19.982  0.00  0.00    +0.000 OA
BRANCH  23  25
ATOM     25  O   UNL     1      12.165  14.221  18.649  0.00  0.00    +0.000 OA
ATOM     26  H   UNL     1      12.785  13.891  17.959  0.00  0.00    +0.000 HD
ENDBRANCH  23  25
ENDBRANCH  20  23
ENDBRANCH  16  17
ENDBRANCH  15  16
ENDBRANCH  14  15
ENDBRANCH   1  14
TORSDOF 8
ENDMDL
MODEL 9
REMARK VINA RESULT:      -7.5      3.118      9.887
REMARK  Name = 
REMARK  9 active torsions:
REMARK  status: ('A' for Active; 'I' for Inactive)
REMARK    1  A    between atoms: C_1  and  C_2
REMARK    2  A    between atoms: C_4  and  C_5
REMARK    3  A    between atoms: C_12  and  C_13
REMARK    4  A    between atoms: C_13  and  C_14
REMARK    5  A    between atoms: C_14  and  C_15
REMARK    6  A    between atoms: C_15  and  C_16
REMARK    7  A    between atoms: C_16  and  C_17
REMARK    8  A    between atoms: C_20  and  C_21
REMARK    9  A    between atoms: C_21  and  O_23
REMARK                            x       y       z     vdW  Elec       q    Type
REMARK                         _______ _______ _______ _____ _____    ______ ____
ROOT
ATOM      1  C   UNL     1       7.683   6.467  18.210  0.00  0.00    +0.000 C 
ENDROOT
BRANCH   1   7
ATOM      2  C   UNL     1       5.935   5.591  15.466  0.00  0.00    +0.000 C 
ATOM      3  C   UNL     1       5.701   5.441  16.911  0.00  0.00    +0.000 A 
ATOM      4  O   UNL     1       4.545   4.827  17.288  0.00  0.00    +0.000 OA
ATOM      5  C   UNL     1       4.580   4.840  18.658  0.00  0.00    +0.000 A 
ATOM      6  N   UNL     1       5.663   5.398  19.162  0.00  0.00    +0.000 NA
ATOM      7  C   UNL     1       6.381   5.788  18.057  0.00  0.00    +0.000 A 
BRANCH   5   8
ATOM      8  C   UNL     1       3.428   4.273  19.338  0.00  0.00    +0.000 A 
ATOM      9  C   UNL     1       3.167   2.897  19.295  0.00  0.00    +0.000 A 
ATOM     10  C   UNL     1       2.041   2.364  19.927  0.00  0.00    +0.000 A 
ATOM     11  C   UNL     1       1.167   3.206  20.610  0.00  0.00    +0.000 A 
ATOM     12  C   UNL     1       1.418   4.575  20.669  0.00  0.00    +0.000 A 
ATOM     13  C   UNL     1       2.544   5.107  20.038  0.00  0.00    +0.000 A 
ENDBRANCH   5   8
ENDBRANCH   1   7
BRANCH   1  14
ATOM     14  C   UNL     1       7.637   7.904  17.691  0.00  0.00    +0.000 C 
BRANCH  14  15
ATOM     15  C   UNL     1       8.652   8.736  18.457  0.00  0.00    +0.000 C 
BRANCH  15  16
ATOM     16  C   UNL     1       8.482  10.236  18.242  0.00  0.00    +0.000 C 
BRANCH  16  17
ATOM     17  C   UNL     1       9.715  10.980  18.752  0.00  0.00    +0.000 C 
ATOM     18  C   UNL     1      10.641  11.504  17.658  0.00  0.00    +0.000 C 
ATOM     19  O   UNL     1      11.803  12.033  18.285  0.00  0.00    +0.000 OA
ATOM     20  C   UNL     1      11.499  13.091  19.172  0.00  0.00    +0.000 C 
ATOM     21  O   UNL     1      10.531  12.742  20.179  0.00  0.00    +0.000 OA
ATOM     22  C   UNL     1       9.345  12.171  19.621  0.00  0.00    +0.000 C 
BRANCH  20  23
ATOM     23  C   UNL     1      11.145  14.469  18.548  0.00  0.00    +0.000 C 
ATOM     24  O   UNL     1      11.281  14.785  17.380  0.00  0.00    +0.000 OA
BRANCH  23  25
ATOM     25  O   UNL     1      10.631  15.321  19.484  0.00  0.00    +0.000 OA
ATOM     26  H   UNL     1      11.269  15.402  20.230  0.00  0.00    +0.000 HD
ENDBRANCH  23  25
ENDBRANCH  20  23
ENDBRANCH  16  17
ENDBRANCH  15  16
ENDBRANCH  14  15
ENDBRANCH   1  14
TORSDOF 8
ENDMDL
