MODEL 1
REMARK VINA RESULT:      -7.4      0.000      0.000
REMARK  Name = 
REMARK  6 active torsions:
REMARK  status: ('A' for Active; 'I' for Inactive)
REMARK    1  A    between atoms: C_1  and  C_2
REMARK    2  A    between atoms: C_4  and  C_5
REMARK    3  A    between atoms: C_8  and  S_9
REMARK    4  A    between atoms: S_9  and  N_12
REMARK    5  A    between atoms: C_15  and  C_16
REMARK    6  A    between atoms: C_21  and  C_22
REMARK                            x       y       z     vdW  Elec       q    Type
REMARK                         _______ _______ _______ _____ _____    ______ ____
ROOT
ATOM      1  N   UNL     1       0.152  10.336  19.897  0.00  0.00    +0.000 NA
ATOM      2  C   UNL     1      -1.149   9.948  19.287  0.00  0.00    +0.000 C 
ATOM      3  C   UNL     1      -1.651  11.029  18.349  0.00  0.00    +0.000 C 
ATOM      4  C   UNL     1      -1.771  12.391  19.031  0.00  0.00    +0.000 C 
ATOM      5  C   UNL     1      -0.388  12.768  19.566  0.00  0.00    +0.000 C 
ATOM      6  C   UNL     1       0.193  11.700  20.496  0.00  0.00    +0.000 C 
ENDROOT
BRANCH   4   7
ATOM      7  C   UNL     1      -2.831  12.484  20.151  0.00  0.00    +0.000 C 
ATOM      8  O   UNL     1      -2.506  12.520  21.330  0.00  0.00    +0.000 OA
ATOM      9  N   UNL     1      -4.167  12.626  19.761  0.00  0.00    +0.000 N 
ATOM     10  C   UNL     1      -5.166  13.031  20.757  0.00  0.00    +0.000 C 
ATOM     11  C   UNL     1      -6.284  11.996  20.896  0.00  0.00    +0.000 C 
ATOM     12  C   UNL     1      -6.898  11.598  19.545  0.00  0.00    +0.000 C 
ATOM     13  C   UNL     1      -7.773  12.705  18.952  0.00  0.00    +0.000 C 
ATOM     14  C   UNL     1      -5.784  11.196  18.572  0.00  0.00    +0.000 C 
ATOM     15  C   UNL     1      -4.704  12.270  18.447  0.00  0.00    +0.000 C 
ENDBRANCH   4   7
BRANCH   1  16
ATOM     16  S   UNL     1       0.761   9.124  20.959  0.00  0.00    +0.000 S 
ATOM     17  O   UNL     1      -0.343   8.312  21.424  0.00  0.00    +0.000 OA
ATOM     18  O   UNL     1       1.682   9.744  21.893  0.00  0.00    +0.000 OA
BRANCH  16  22
ATOM     19  C   UNL     1       3.015   6.251  19.132  0.00  0.00    +0.000 A 
ATOM     20  C   UNL     1       3.049   7.135  18.073  0.00  0.00    +0.000 A 
ATOM     21  S   UNL     1       2.168   8.566  18.410  0.00  0.00    +0.000 S 
ATOM     22  C   UNL     1       1.762   8.026  19.984  0.00  0.00    +0.000 A 
ATOM     23  C   UNL     1       2.281   6.771  20.239  0.00  0.00    +0.000 A 
BRANCH  19  27
ATOM     24  C   UNL     1       3.617   1.419  18.600  0.00  0.00    +0.000 C 
ATOM     25  C   UNL     1       3.757   2.855  18.885  0.00  0.00    +0.000 A 
ATOM     26  N   UNL     1       2.866   3.815  18.832  0.00  0.00    +0.000 NA
ATOM     27  C   UNL     1       3.614   4.918  19.160  0.00  0.00    +0.000 A 
ATOM     28  N   UNL     1       4.903   4.669  19.422  0.00  0.00    +0.000 NA
ATOM     29  O   UNL     1       5.004   3.288  19.238  0.00  0.00    +0.000 OA
ENDBRANCH  19  27
ENDBRANCH  16  22
ENDBRANCH   1  16
TORSDOF 4
ENDMDL
MODEL 2
REMARK VINA RESULT:      -7.4      3.545      4.676
REMARK  Name = 
REMARK  6 active torsions:
REMARK  status: ('A' for Active; 'I' for Inactive)
REMARK    1  A    between atoms: C_1  and  C_2
REMARK    2  A    between atoms: C_4  and  C_5
REMARK    3  A    between atoms: C_8  and  S_9
REMARK    4  A    between atoms: S_9  and  N_12
REMARK    5  A    between atoms: C_15  and  C_16
REMARK    6  A    between atoms: C_21  and  C_22
REMARK                            x       y       z     vdW  Elec       q    Type
REMARK                         _______ _______ _______ _____ _____    ______ ____
ROOT
ATOM      1  N   UNL     1       2.449   7.410  19.202  0.00  0.00    +0.000 NA
ATOM      2  C   UNL     1       2.522   8.120  17.895  0.00  0.00    +0.000 C 
ATOM      3  C   UNL     1       2.429   9.621  18.091  0.00  0.00    +0.000 C 
ATOM      4  C   UNL     1       1.173  10.040  18.853  0.00  0.00    +0.000 C 
ATOM      5  C   UNL     1       1.198   9.340  20.212  0.00  0.00    +0.000 C 
ATOM      6  C   UNL     1       1.324   7.819  20.088  0.00  0.00    +0.000 C 
ENDROOT
BRANCH   4   7
ATOM      7  C   UNL     1      -0.165   9.774  18.128  0.00  0.00    +0.000 C 
ATOM      8  O   UNL     1      -0.222   9.036  17.154  0.00  0.00    +0.000 OA
ATOM      9  N   UNL     1      -1.320  10.329  18.688  0.00  0.00    +0.000 N 
ATOM     10  C   UNL     1      -2.635   9.858  18.235  0.00  0.00    +0.000 C 
ATOM     11  C   UNL     1      -3.482  10.997  17.664  0.00  0.00    +0.000 C 
ATOM     12  C   UNL     1      -3.562  12.209  18.605  0.00  0.00    +0.000 C 
ATOM     13  C   UNL     1      -4.444  11.944  19.827  0.00  0.00    +0.000 C 
ATOM     14  C   UNL     1      -2.148  12.625  19.028  0.00  0.00    +0.000 C 
ATOM     15  C   UNL     1      -1.348  11.463  19.613  0.00  0.00    +0.000 C 
ENDBRANCH   4   7
BRANCH   1  16
ATOM     16  S   UNL     1       2.565   5.700  19.020  0.00  0.00    +0.000 S 
ATOM     17  O   UNL     1       1.551   5.260  18.087  0.00  0.00    +0.000 OA
ATOM     18  O   UNL     1       2.687   5.100  20.336  0.00  0.00    +0.000 OA
BRANCH  16  22
ATOM     19  C   UNL     1       5.846   4.970  16.701  0.00  0.00    +0.000 A 
ATOM     20  C   UNL     1       6.525   4.930  17.901  0.00  0.00    +0.000 A 
ATOM     21  S   UNL     1       5.483   5.215  19.233  0.00  0.00    +0.000 S 
ATOM     22  C   UNL     1       4.112   5.362  18.214  0.00  0.00    +0.000 A 
ATOM     23  C   UNL     1       4.451   5.207  16.884  0.00  0.00    +0.000 A 
BRANCH  19  27
ATOM     24  C   UNL     1       6.582   3.514  12.082  0.00  0.00    +0.000 C 
ATOM     25  C   UNL     1       6.647   4.135  13.414  0.00  0.00    +0.000 A 
ATOM     26  N   UNL     1       5.932   3.902  14.488  0.00  0.00    +0.000 NA
ATOM     27  C   UNL     1       6.437   4.822  15.372  0.00  0.00    +0.000 A 
ATOM     28  N   UNL     1       7.428   5.583  14.892  0.00  0.00    +0.000 NA
ATOM     29  O   UNL     1       7.572   5.127  13.580  0.00  0.00    +0.000 OA
ENDBRANCH  19  27
ENDBRANCH  16  22
ENDBRANCH   1  16
TORSDOF 4
ENDMDL
MODEL 3
REMARK VINA RESULT:      -7.2      2.469      3.406
REMARK  Name = 
REMARK  6 active torsions:
REMARK  status: ('A' for Active; 'I' for Inactive)
REMARK    1  A    between atoms: C_1  and  C_2
REMARK    2  A    between atoms: C_4  and  C_5
REMARK    3  A    between atoms: C_8  and  S_9
REMARK    4  A    between atoms: S_9  and  N_12
REMARK    5  A    between atoms: C_15  and  C_16
REMARK    6  A    between atoms: C_21  and  C_22
REMARK                            x       y       z     vdW  Elec       q    Type
REMARK                         _______ _______ _______ _____ _____    ______ ____
ROOT
ATOM      1  N   UNL     1       0.845  10.604  20.063  0.00  0.00    +0.000 NA
ATOM      2  C   UNL     1       0.892  12.088  20.183  0.00  0.00    +0.000 C 
ATOM      3  C   UNL     1       0.618  12.524  21.609  0.00  0.00    +0.000 C 
ATOM      4  C   UNL     1      -0.710  11.991  22.143  0.00  0.00    +0.000 C 
ATOM      5  C   UNL     1      -0.664  10.464  22.067  0.00  0.00    +0.000 C 
ATOM      6  C   UNL     1      -0.358   9.956  20.656  0.00  0.00    +0.000 C 
ENDROOT
BRANCH   4   7
ATOM      7  C   UNL     1      -1.975  12.534  21.443  0.00  0.00    +0.000 C 
ATOM      8  O   UNL     1      -1.945  12.899  20.275  0.00  0.00    +0.000 OA
ATOM      9  N   UNL     1      -3.174  12.497  22.162  0.00  0.00    +0.000 N 
ATOM     10  C   UNL     1      -4.443  12.699  21.452  0.00  0.00    +0.000 C 
ATOM     11  C   UNL     1      -5.223  13.892  22.008  0.00  0.00    +0.000 C 
ATOM     12  C   UNL     1      -5.382  13.839  23.536  0.00  0.00    +0.000 C 
ATOM     13  C   UNL     1      -6.379  12.768  23.983  0.00  0.00    +0.000 C 
ATOM     14  C   UNL     1      -4.011  13.623  24.188  0.00  0.00    +0.000 C 
ATOM     15  C   UNL     1      -3.280  12.408  23.619  0.00  0.00    +0.000 C 
ENDBRANCH   4   7
BRANCH   1  16
ATOM     16  S   UNL     1       1.166  10.070  18.456  0.00  0.00    +0.000 S 
ATOM     17  O   UNL     1       2.160  10.940  17.865  0.00  0.00    +0.000 OA
ATOM     18  O   UNL     1      -0.098   9.813  17.791  0.00  0.00    +0.000 OA
BRANCH  16  22
ATOM     19  C   UNL     1       3.141   6.504  18.224  0.00  0.00    +0.000 A 
ATOM     20  C   UNL     1       2.775   6.364  19.547  0.00  0.00    +0.000 A 
ATOM     21  S   UNL     1       1.884   7.716  20.109  0.00  0.00    +0.000 S 
ATOM     22  C   UNL     1       1.955   8.483  18.578  0.00  0.00    +0.000 A 
ATOM     23  C   UNL     1       2.658   7.723  17.663  0.00  0.00    +0.000 A 
BRANCH  19  27
ATOM     24  C   UNL     1       6.720   4.665  15.431  0.00  0.00    +0.000 C 
ATOM     25  C   UNL     1       5.527   4.893  16.261  0.00  0.00    +0.000 A 
ATOM     26  N   UNL     1       5.021   6.014  16.718  0.00  0.00    +0.000 NA
ATOM     27  C   UNL     1       3.951   5.565  17.451  0.00  0.00    +0.000 A 
ATOM     28  N   UNL     1       3.778   4.237  17.445  0.00  0.00    +0.000 NA
ATOM     29  O   UNL     1       4.833   3.783  16.650  0.00  0.00    +0.000 OA
ENDBRANCH  19  27
ENDBRANCH  16  22
ENDBRANCH   1  16
TORSDOF 4
ENDMDL
MODEL 4
REMARK VINA RESULT:      -7.1      1.010      1.166
REMARK  Name = 
REMARK  6 active torsions:
REMARK  status: ('A' for Active; 'I' for Inactive)
REMARK    1  A    between atoms: C_1  and  C_2
REMARK    2  A    between atoms: C_4  and  C_5
REMARK    3  A    between atoms: C_8  and  S_9
REMARK    4  A    between atoms: S_9  and  N_12
REMARK    5  A    between atoms: C_15  and  C_16
REMARK    6  A    between atoms: C_21  and  C_22
REMARK                            x       y       z     vdW  Elec       q    Type
REMARK                         _______ _______ _______ _____ _____    ______ ____
ROOT
ATOM      1  N   UNL     1       0.255  10.511  20.515  0.00  0.00    +0.000 NA
ATOM      2  C   UNL     1      -0.876  10.132  19.624  0.00  0.00    +0.000 C 
ATOM      3  C   UNL     1      -1.226  11.268  18.682  0.00  0.00    +0.000 C 
ATOM      4  C   UNL     1      -1.546  12.567  19.419  0.00  0.00    +0.000 C 
ATOM      5  C   UNL     1      -0.320  12.943  20.253  0.00  0.00    +0.000 C 
ATOM      6  C   UNL     1       0.109  11.824  21.205  0.00  0.00    +0.000 C 
ENDROOT
BRANCH   4   7
ATOM      7  C   UNL     1      -2.815  12.539  20.299  0.00  0.00    +0.000 C 
ATOM      8  O   UNL     1      -2.741  12.597  21.519  0.00  0.00    +0.000 OA
ATOM      9  N   UNL     1      -4.051  12.545  19.645  0.00  0.00    +0.000 N 
ATOM     10  C   UNL     1      -5.268  12.834  20.413  0.00  0.00    +0.000 C 
ATOM     11  C   UNL     1      -6.277  11.686  20.335  0.00  0.00    +0.000 C 
ATOM     12  C   UNL     1      -6.560  11.240  18.892  0.00  0.00    +0.000 C 
ATOM     13  C   UNL     1      -7.406  12.255  18.121  0.00  0.00    +0.000 C 
ATOM     14  C   UNL     1      -5.236  10.966  18.170  0.00  0.00    +0.000 C 
ATOM     15  C   UNL     1      -4.270  12.147  18.253  0.00  0.00    +0.000 C 
ENDBRANCH   4   7
BRANCH   1  16
ATOM     16  S   UNL     1       0.690   9.238  21.592  0.00  0.00    +0.000 S 
ATOM     17  O   UNL     1      -0.515   8.686  22.174  0.00  0.00    +0.000 OA
ATOM     18  O   UNL     1       1.788   9.689  22.425  0.00  0.00    +0.000 OA
BRANCH  16  22
ATOM     19  C   UNL     1       2.047   5.884  19.699  0.00  0.00    +0.000 A 
ATOM     20  C   UNL     1       2.484   6.765  18.731  0.00  0.00    +0.000 A 
ATOM     21  S   UNL     1       2.095   8.387  19.123  0.00  0.00    +0.000 S 
ATOM     22  C   UNL     1       1.369   7.925  20.605  0.00  0.00    +0.000 A 
ATOM     23  C   UNL     1       1.414   6.556  20.786  0.00  0.00    +0.000 A 
BRANCH  19  27
ATOM     24  C   UNL     1       3.675   1.389  18.633  0.00  0.00    +0.000 C 
ATOM     25  C   UNL     1       2.949   2.566  19.135  0.00  0.00    +0.000 A 
ATOM     26  N   UNL     1       3.083   3.833  18.825  0.00  0.00    +0.000 NA
ATOM     27  C   UNL     1       2.166   4.428  19.655  0.00  0.00    +0.000 A 
ATOM     28  N   UNL     1       1.477   3.585  20.434  0.00  0.00    +0.000 NA
ATOM     29  O   UNL     1       2.000   2.336  20.090  0.00  0.00    +0.000 OA
ENDBRANCH  19  27
ENDBRANCH  16  22
ENDBRANCH   1  16
TORSDOF 4
ENDMDL
MODEL 5
REMARK VINA RESULT:      -7.0      2.368      3.165
REMARK  Name = 
REMARK  6 active torsions:
REMARK  status: ('A' for Active; 'I' for Inactive)
REMARK    1  A    between atoms: C_1  and  C_2
REMARK    2  A    between atoms: C_4  and  C_5
REMARK    3  A    between atoms: C_8  and  S_9
REMARK    4  A    between atoms: S_9  and  N_12
REMARK    5  A    between atoms: C_15  and  C_16
REMARK    6  A    between atoms: C_21  and  C_22
REMARK                            x       y       z     vdW  Elec       q    Type
REMARK                         _______ _______ _______ _____ _____    ______ ____
ROOT
ATOM      1  N   UNL     1       1.018  10.389  19.942  0.00  0.00    +0.000 NA
ATOM      2  C   UNL     1       1.084  11.875  20.015  0.00  0.00    +0.000 C 
ATOM      3  C   UNL     1       0.832  12.358  21.430  0.00  0.00    +0.000 C 
ATOM      4  C   UNL     1      -0.496  11.859  21.996  0.00  0.00    +0.000 C 
ATOM      5  C   UNL     1      -0.469  10.329  21.967  0.00  0.00    +0.000 C 
ATOM      6  C   UNL     1      -0.185   9.774  20.569  0.00  0.00    +0.000 C 
ENDROOT
BRANCH   4   7
ATOM      7  C   UNL     1      -1.763  12.394  21.293  0.00  0.00    +0.000 C 
ATOM      8  O   UNL     1      -1.753  12.684  20.105  0.00  0.00    +0.000 OA
ATOM      9  N   UNL     1      -2.942  12.440  22.043  0.00  0.00    +0.000 N 
ATOM     10  C   UNL     1      -4.224  12.635  21.353  0.00  0.00    +0.000 C 
ATOM     11  C   UNL     1      -4.954  13.884  21.851  0.00  0.00    +0.000 C 
ATOM     12  C   UNL     1      -5.074  13.932  23.382  0.00  0.00    +0.000 C 
ATOM     13  C   UNL     1      -6.089  12.922  23.922  0.00  0.00    +0.000 C 
ATOM     14  C   UNL     1      -3.693  13.715  24.013  0.00  0.00    +0.000 C 
ATOM     15  C   UNL     1      -3.013  12.445  23.505  0.00  0.00    +0.000 C 
ENDBRANCH   4   7
BRANCH   1  16
ATOM     16  S   UNL     1       1.313   9.802  18.349  0.00  0.00    +0.000 S 
ATOM     17  O   UNL     1       2.234  10.698  17.684  0.00  0.00    +0.000 OA
ATOM     18  O   UNL     1       0.044   9.443  17.743  0.00  0.00    +0.000 OA
BRANCH  16  22
ATOM     19  C   UNL     1       2.973   6.147  19.095  0.00  0.00    +0.000 A 
ATOM     20  C   UNL     1       3.852   6.484  18.087  0.00  0.00    +0.000 A 
ATOM     21  S   UNL     1       3.505   8.029  17.429  0.00  0.00    +0.000 S 
ATOM     22  C   UNL     1       2.197   8.269  18.510  0.00  0.00    +0.000 A 
ATOM     23  C   UNL     1       2.025   7.182  19.346  0.00  0.00    +0.000 A 
BRANCH  19  27
ATOM     24  C   UNL     1       1.473   2.468  21.961  0.00  0.00    +0.000 C 
ATOM     25  C   UNL     1       2.206   3.378  21.067  0.00  0.00    +0.000 A 
ATOM     26  N   UNL     1       1.918   4.600  20.688  0.00  0.00    +0.000 NA
ATOM     27  C   UNL     1       2.951   4.884  19.831  0.00  0.00    +0.000 A 
ATOM     28  N   UNL     1       3.852   3.904  19.686  0.00  0.00    +0.000 NA
ATOM     29  O   UNL     1       3.356   2.892  20.512  0.00  0.00    +0.000 OA
ENDBRANCH  19  27
ENDBRANCH  16  22
ENDBRANCH   1  16
TORSDOF 4
ENDMDL
MODEL 6
REMARK VINA RESULT:      -6.9      1.043      1.159
REMARK  Name = 
REMARK  6 active torsions:
REMARK  status: ('A' for Active; 'I' for Inactive)
REMARK    1  A    between atoms: C_1  and  C_2
REMARK    2  A    between atoms: C_4  and  C_5
REMARK    3  A    between atoms: C_8  and  S_9
REMARK    4  A    between atoms: S_9  and  N_12
REMARK    5  A    between atoms: C_15  and  C_16
REMARK    6  A    between atoms: C_21  and  C_22
REMARK                            x       y       z     vdW  Elec       q    Type
REMARK                         _______ _______ _______ _____ _____    ______ ____
ROOT
ATOM      1  N   UNL     1       0.037  10.792  20.433  0.00  0.00    +0.000 NA
ATOM      2  C   UNL     1      -1.311  10.544  19.851  0.00  0.00    +0.000 C 
ATOM      3  C   UNL     1      -1.807  11.763  19.098  0.00  0.00    +0.000 C 
ATOM      4  C   UNL     1      -1.827  13.023  19.963  0.00  0.00    +0.000 C 
ATOM      5  C   UNL     1      -0.402  13.266  20.464  0.00  0.00    +0.000 C 
ATOM      6  C   UNL     1       0.174  12.058  21.207  0.00  0.00    +0.000 C 
ENDROOT
BRANCH   4   7
ATOM      7  C   UNL     1      -2.823  13.004  21.143  0.00  0.00    +0.000 C 
ATOM      8  O   UNL     1      -2.434  12.905  22.299  0.00  0.00    +0.000 OA
ATOM      9  N   UNL     1      -4.175  13.206  20.846  0.00  0.00    +0.000 N 
ATOM     10  C   UNL     1      -5.111  13.511  21.935  0.00  0.00    +0.000 C 
ATOM     11  C   UNL     1      -6.239  12.481  22.021  0.00  0.00    +0.000 C 
ATOM     12  C   UNL     1      -6.933  12.244  20.671  0.00  0.00    +0.000 C 
ATOM     13  C   UNL     1      -7.817  13.422  20.253  0.00  0.00    +0.000 C 
ATOM     14  C   UNL     1      -5.881  11.939  19.599  0.00  0.00    +0.000 C 
ATOM     15  C   UNL     1      -4.789  13.005  19.533  0.00  0.00    +0.000 C 
ENDBRANCH   4   7
BRANCH   1  16
ATOM     16  S   UNL     1       0.640   9.422  21.287  0.00  0.00    +0.000 S 
ATOM     17  O   UNL     1      -0.479   8.623  21.738  0.00  0.00    +0.000 OA
ATOM     18  O   UNL     1       1.668   9.865  22.210  0.00  0.00    +0.000 OA
BRANCH  16  22
ATOM     19  C   UNL     1       2.563   6.682  18.948  0.00  0.00    +0.000 A 
ATOM     20  C   UNL     1       2.555   7.681  17.996  0.00  0.00    +0.000 A 
ATOM     21  S   UNL     1       1.787   9.102  18.571  0.00  0.00    +0.000 S 
ATOM     22  C   UNL     1       1.490   8.401  20.106  0.00  0.00    +0.000 A 
ATOM     23  C   UNL     1       1.959   7.103  20.169  0.00  0.00    +0.000 A 
BRANCH  19  27
ATOM     24  C   UNL     1       4.443   2.266  19.928  0.00  0.00    +0.000 C 
ATOM     25  C   UNL     1       3.887   3.479  19.308  0.00  0.00    +0.000 A 
ATOM     26  N   UNL     1       3.624   4.650  19.836  0.00  0.00    +0.000 NA
ATOM     27  C   UNL     1       3.088   5.329  18.771  0.00  0.00    +0.000 A 
ATOM     28  N   UNL     1       3.029   4.634  17.628  0.00  0.00    +0.000 NA
ATOM     29  O   UNL     1       3.562   3.393  17.984  0.00  0.00    +0.000 OA
ENDBRANCH  19  27
ENDBRANCH  16  22
ENDBRANCH   1  16
TORSDOF 4
ENDMDL
MODEL 7
REMARK VINA RESULT:      -6.8      2.105      2.590
REMARK  Name = 
REMARK  6 active torsions:
REMARK  status: ('A' for Active; 'I' for Inactive)
REMARK    1  A    between atoms: C_1  and  C_2
REMARK    2  A    between atoms: C_4  and  C_5
REMARK    3  A    between atoms: C_8  and  S_9
REMARK    4  A    between atoms: S_9  and  N_12
REMARK    5  A    between atoms: C_15  and  C_16
REMARK    6  A    between atoms: C_21  and  C_22
REMARK                            x       y       z     vdW  Elec       q    Type
REMARK                         _______ _______ _______ _____ _____    ______ ____
ROOT
ATOM      1  N   UNL     1       0.240  10.738  20.569  0.00  0.00    +0.000 NA
ATOM      2  C   UNL     1      -1.206  11.062  20.709  0.00  0.00    +0.000 C 
ATOM      3  C   UNL     1      -1.546  12.347  19.979  0.00  0.00    +0.000 C 
ATOM      4  C   UNL     1      -0.693  13.528  20.436  0.00  0.00    +0.000 C 
ATOM      5  C   UNL     1       0.773  13.165  20.193  0.00  0.00    +0.000 C 
ATOM      6  C   UNL     1       1.176  11.856  20.878  0.00  0.00    +0.000 C 
ENDROOT
BRANCH   4   7
ATOM      7  C   UNL     1      -0.907  13.978  21.899  0.00  0.00    +0.000 C 
ATOM      8  O   UNL     1       0.036  14.089  22.671  0.00  0.00    +0.000 OA
ATOM      9  N   UNL     1      -2.202  14.348  22.274  0.00  0.00    +0.000 N 
ATOM     10  C   UNL     1      -2.404  15.073  23.534  0.00  0.00    +0.000 C 
ATOM     11  C   UNL     1      -3.343  14.320  24.480  0.00  0.00    +0.000 C 
ATOM     12  C   UNL     1      -4.656  13.898  23.803  0.00  0.00    +0.000 C 
ATOM     13  C   UNL     1      -5.592  15.082  23.552  0.00  0.00    +0.000 C 
ATOM     14  C   UNL     1      -4.347  13.155  22.498  0.00  0.00    +0.000 C 
ATOM     15  C   UNL     1      -3.427  13.954  21.576  0.00  0.00    +0.000 C 
ENDBRANCH   4   7
BRANCH   1  16
ATOM     16  S   UNL     1       0.662   9.275  21.376  0.00  0.00    +0.000 S 
ATOM     17  O   UNL     1      -0.548   8.534  21.661  0.00  0.00    +0.000 OA
ATOM     18  O   UNL     1       1.620   9.581  22.421  0.00  0.00    +0.000 OA
BRANCH  16  22
ATOM     19  C   UNL     1       2.732   6.595  19.094  0.00  0.00    +0.000 A 
ATOM     20  C   UNL     1       2.594   7.537  18.095  0.00  0.00    +0.000 A 
ATOM     21  S   UNL     1       1.723   8.913  18.631  0.00  0.00    +0.000 S 
ATOM     22  C   UNL     1       1.553   8.272  20.211  0.00  0.00    +0.000 A 
ATOM     23  C   UNL     1       2.141   7.026  20.318  0.00  0.00    +0.000 A 
BRANCH  19  27
ATOM     24  C   UNL     1       3.451   1.864  18.049  0.00  0.00    +0.000 C 
ATOM     25  C   UNL     1       3.561   3.269  18.472  0.00  0.00    +0.000 A 
ATOM     26  N   UNL     1       2.641   4.199  18.554  0.00  0.00    +0.000 NA
ATOM     27  C   UNL     1       3.371   5.287  18.962  0.00  0.00    +0.000 A 
ATOM     28  N   UNL     1       4.677   5.057  19.144  0.00  0.00    +0.000 NA
ATOM     29  O   UNL     1       4.809   3.705  18.816  0.00  0.00    +0.000 OA
ENDBRANCH  19  27
ENDBRANCH  16  22
ENDBRANCH   1  16
TORSDOF 4
ENDMDL
MODEL 8
REMARK VINA RESULT:      -6.8      1.716      1.973
REMARK  Name = 
REMARK  6 active torsions:
REMARK  status: ('A' for Active; 'I' for Inactive)
REMARK    1  A    between atoms: C_1  and  C_2
REMARK    2  A    between atoms: C_4  and  C_5
REMARK    3  A    between atoms: C_8  and  S_9
REMARK    4  A    between atoms: S_9  and  N_12
REMARK    5  A    between atoms: C_15  and  C_16
REMARK    6  A    between atoms: C_21  and  C_22
REMARK                            x       y       z     vdW  Elec       q    Type
REMARK                         _______ _______ _______ _____ _____    ______ ____
ROOT
ATOM      1  N   UNL     1       0.382   9.829  19.954  0.00  0.00    +0.000 NA
ATOM      2  C   UNL     1      -0.854   9.507  19.188  0.00  0.00    +0.000 C 
ATOM      3  C   UNL     1      -1.139  10.573  18.148  0.00  0.00    +0.000 C 
ATOM      4  C   UNL     1      -1.241  11.973  18.751  0.00  0.00    +0.000 C 
ATOM      5  C   UNL     1       0.084  12.274  19.454  0.00  0.00    +0.000 C 
ATOM      6  C   UNL     1       0.450  11.215  20.497  0.00  0.00    +0.000 C 
ENDROOT
BRANCH   4   7
ATOM      7  C   UNL     1      -2.430  12.199  19.711  0.00  0.00    +0.000 C 
ATOM      8  O   UNL     1      -2.251  12.386  20.907  0.00  0.00    +0.000 OA
ATOM      9  N   UNL     1      -3.706  12.282  19.145  0.00  0.00    +0.000 N 
ATOM     10  C   UNL     1      -4.816  12.803  19.951  0.00  0.00    +0.000 C 
ATOM     11  C   UNL     1      -5.952  11.786  20.082  0.00  0.00    +0.000 C 
ATOM     12  C   UNL     1      -6.399  11.217  18.726  0.00  0.00    +0.000 C 
ATOM     13  C   UNL     1      -7.184  12.234  17.895  0.00  0.00    +0.000 C 
ATOM     14  C   UNL     1      -5.177  10.702  17.956  0.00  0.00    +0.000 C 
ATOM     15  C   UNL     1      -4.080  11.759  17.830  0.00  0.00    +0.000 C 
ENDBRANCH   4   7
BRANCH   1  16
ATOM     16  S   UNL     1       0.746   8.631  21.137  0.00  0.00    +0.000 S 
ATOM     17  O   UNL     1      -0.482   7.969  21.525  0.00  0.00    +0.000 OA
ATOM     18  O   UNL     1       1.632   9.211  22.129  0.00  0.00    +0.000 OA
BRANCH  16  22
ATOM     19  C   UNL     1       3.224   6.156  19.038  0.00  0.00    +0.000 A 
ATOM     20  C   UNL     1       2.602   5.147  19.745  0.00  0.00    +0.000 A 
ATOM     21  S   UNL     1       1.421   5.761  20.826  0.00  0.00    +0.000 S 
ATOM     22  C   UNL     1       1.712   7.376  20.333  0.00  0.00    +0.000 A 
ATOM     23  C   UNL     1       2.702   7.441  19.370  0.00  0.00    +0.000 A 
BRANCH  19  27
ATOM     24  C   UNL     1       7.367   4.600  16.939  0.00  0.00    +0.000 C 
ATOM     25  C   UNL     1       6.094   5.253  17.280  0.00  0.00    +0.000 A 
ATOM     26  N   UNL     1       5.415   5.240  18.402  0.00  0.00    +0.000 NA
ATOM     27  C   UNL     1       4.311   5.988  18.076  0.00  0.00    +0.000 A 
ATOM     28  N   UNL     1       4.299   6.463  16.824  0.00  0.00    +0.000 NA
ATOM     29  O   UNL     1       5.491   5.971  16.287  0.00  0.00    +0.000 OA
ENDBRANCH  19  27
ENDBRANCH  16  22
ENDBRANCH   1  16
TORSDOF 4
ENDMDL
MODEL 9
REMARK VINA RESULT:      -6.8      2.176      3.046
REMARK  Name = 
REMARK  6 active torsions:
REMARK  status: ('A' for Active; 'I' for Inactive)
REMARK    1  A    between atoms: C_1  and  C_2
REMARK    2  A    between atoms: C_4  and  C_5
REMARK    3  A    between atoms: C_8  and  S_9
REMARK    4  A    between atoms: S_9  and  N_12
REMARK    5  A    between atoms: C_15  and  C_16
REMARK    6  A    between atoms: C_21  and  C_22
REMARK                            x       y       z     vdW  Elec       q    Type
REMARK                         _______ _______ _______ _____ _____    ______ ____
ROOT
ATOM      1  N   UNL     1       0.812  11.008  20.159  0.00  0.00    +0.000 NA
ATOM      2  C   UNL     1       0.744  12.488  20.014  0.00  0.00    +0.000 C 
ATOM      3  C   UNL     1       0.501  13.153  21.355  0.00  0.00    +0.000 C 
ATOM      4  C   UNL     1      -0.754  12.632  22.052  0.00  0.00    +0.000 C 
ATOM      5  C   UNL     1      -0.588  11.123  22.243  0.00  0.00    +0.000 C 
ATOM      6  C   UNL     1      -0.306  10.392  20.928  0.00  0.00    +0.000 C 
ENDROOT
BRANCH   4   7
ATOM      7  C   UNL     1      -2.090  12.947  21.343  0.00  0.00    +0.000 C 
ATOM      8  O   UNL     1      -2.125  13.223  20.152  0.00  0.00    +0.000 OA
ATOM      9  N   UNL     1      -3.263  12.807  22.092  0.00  0.00    +0.000 N 
ATOM     10  C   UNL     1      -4.557  12.784  21.399  0.00  0.00    +0.000 C 
ATOM     11  C   UNL     1      -5.483  13.902  21.884  0.00  0.00    +0.000 C 
ATOM     12  C   UNL     1      -5.612  13.945  23.415  0.00  0.00    +0.000 C 
ATOM     13  C   UNL     1      -6.450  12.789  23.963  0.00  0.00    +0.000 C 
ATOM     14  C   UNL     1      -4.216  13.962  24.049  0.00  0.00    +0.000 C 
ATOM     15  C   UNL     1      -3.337  12.815  23.553  0.00  0.00    +0.000 C 
ENDBRANCH   4   7
BRANCH   1  16
ATOM     16  S   UNL     1       1.101  10.218  18.655  0.00  0.00    +0.000 S 
ATOM     17  O   UNL     1       2.228  10.851  18.005  0.00  0.00    +0.000 OA
ATOM     18  O   UNL     1      -0.165  10.049  17.968  0.00  0.00    +0.000 OA
BRANCH  16  22
ATOM     19  C   UNL     1       2.500   6.396  18.983  0.00  0.00    +0.000 A 
ATOM     20  C   UNL     1       2.195   6.537  20.321  0.00  0.00    +0.000 A 
ATOM     21  S   UNL     1       1.552   8.088  20.668  0.00  0.00    +0.000 S 
ATOM     22  C   UNL     1       1.648   8.569  19.026  0.00  0.00    +0.000 A 
ATOM     23  C   UNL     1       2.173   7.565  18.235  0.00  0.00    +0.000 A 
BRANCH  19  27
ATOM     24  C   UNL     1       3.590   1.742  17.913  0.00  0.00    +0.000 C 
ATOM     25  C   UNL     1       3.494   3.208  17.988  0.00  0.00    +0.000 A 
ATOM     26  N   UNL     1       2.858   3.968  18.847  0.00  0.00    +0.000 NA
ATOM     27  C   UNL     1       3.113   5.225  18.359  0.00  0.00    +0.000 A 
ATOM     28  N   UNL     1       3.881   5.261  17.262  0.00  0.00    +0.000 NA
ATOM     29  O   UNL     1       4.138   3.912  17.009  0.00  0.00    +0.000 OA
ENDBRANCH  19  27
ENDBRANCH  16  22
ENDBRANCH   1  16
TORSDOF 4
ENDMDL
