MODEL 1
REMARK VINA RESULT:      -7.7      0.000      0.000
REMARK  Name = 
REMARK  5 active torsions:
REMARK  status: ('A' for Active; 'I' for Inactive)
REMARK    1  A    between atoms: C_1  and  C_2
REMARK    2  A    between atoms: C_5  and  C_6
REMARK    3  A    between atoms: C_13  and  C_14
REMARK    4  A    between atoms: N_16  and  C_17
REMARK    5  A    between atoms: C_17  and  C_18
REMARK                            x       y       z     vdW  Elec       q    Type
REMARK                         _______ _______ _______ _____ _____    ______ ____
ROOT
ATOM      1  C   UNL     1       1.867   3.449  21.443  0.00  0.00    +0.000 C 
ATOM      2  C   UNL     1       2.946   3.482  20.437  0.00  0.00    +0.000 A 
ATOM      3  O   UNL     1       3.870   2.500  20.562  0.00  0.00    +0.000 OA
ATOM      4  N   UNL     1       4.831   2.639  19.600  0.00  0.00    +0.000 NA
ATOM      5  C   UNL     1       4.481   3.688  18.839  0.00  0.00    +0.000 A 
ATOM      6  C   UNL     1       3.264   4.272  19.348  0.00  0.00    +0.000 A 
ENDROOT
BRANCH   5   7
ATOM      7  C   UNL     1       5.365   4.142  17.752  0.00  0.00    +0.000 A 
ATOM      8  C   UNL     1       5.072   3.752  16.426  0.00  0.00    +0.000 A 
ATOM      9  C   UNL     1       5.837   4.185  15.347  0.00  0.00    +0.000 A 
ATOM     10  C   UNL     1       6.895   5.061  15.553  0.00  0.00    +0.000 A 
ATOM     11  C   UNL     1       7.203   5.471  16.849  0.00  0.00    +0.000 A 
ATOM     12  C   UNL     1       6.459   5.007  17.947  0.00  0.00    +0.000 A 
ATOM     13 CL   UNL     1       7.009   5.538  19.502  0.00  0.00    +0.000 Cl
ENDBRANCH   5   7
BRANCH   6  14
ATOM     14  C   UNL     1       2.521   5.401  18.822  0.00  0.00    +0.000 C 
ATOM     15  O   UNL     1       1.696   5.275  17.922  0.00  0.00    +0.000 OA
ATOM     16  N   UNL     1       2.827   6.632  19.358  0.00  0.00    +0.000 N 
ATOM     17  H   UNL     1       3.663   6.738  19.915  0.00  0.00    +0.000 HD
BRANCH  16  18
ATOM     18  C   UNL     1       2.247   7.833  18.802  0.00  0.00    +0.000 C 
BRANCH  18  19
ATOM     19  C   UNL     1       1.447   8.512  19.863  0.00  0.00    +0.000 A 
ATOM     20  C   UNL     1       1.191   8.068  21.147  0.00  0.00    +0.000 A 
ATOM     21  C   UNL     1       0.369   8.973  21.878  0.00  0.00    +0.000 A 
ATOM     22  C   UNL     1       0.025  10.076  21.129  0.00  0.00    +0.000 A 
ATOM     23  S   UNL     1       0.697  10.021  19.558  0.00  0.00    +0.000 S 
ENDBRANCH  18  19
ENDBRANCH  16  18
ENDBRANCH   6  14
TORSDOF 4
ENDMDL
MODEL 2
REMARK VINA RESULT:      -7.7      2.099      4.049
REMARK  Name = 
REMARK  5 active torsions:
REMARK  status: ('A' for Active; 'I' for Inactive)
REMARK    1  A    between atoms: C_1  and  C_2
REMARK    2  A    between atoms: C_5  and  C_6
REMARK    3  A    between atoms: C_13  and  C_14
REMARK    4  A    between atoms: N_16  and  C_17
REMARK    5  A    between atoms: C_17  and  C_18
REMARK                            x       y       z     vdW  Elec       q    Type
REMARK                         _______ _______ _______ _____ _____    ______ ____
ROOT
ATOM      1  C   UNL     1       7.334   6.532  17.696  0.00  0.00    +0.000 C 
ATOM      2  C   UNL     1       6.275   5.680  18.273  0.00  0.00    +0.000 A 
ATOM      3  O   UNL     1       6.725   4.596  18.949  0.00  0.00    +0.000 OA
ATOM      4  N   UNL     1       5.667   3.867  19.417  0.00  0.00    +0.000 NA
ATOM      5  C   UNL     1       4.549   4.525  19.071  0.00  0.00    +0.000 A 
ATOM      6  C   UNL     1       4.894   5.707  18.320  0.00  0.00    +0.000 A 
ENDROOT
BRANCH   5   7
ATOM      7  C   UNL     1       3.228   3.947  19.371  0.00  0.00    +0.000 A 
ATOM      8  C   UNL     1       2.728   4.034  20.689  0.00  0.00    +0.000 A 
ATOM      9  C   UNL     1       1.468   3.552  21.031  0.00  0.00    +0.000 A 
ATOM     10  C   UNL     1       0.644   3.010  20.052  0.00  0.00    +0.000 A 
ATOM     11  C   UNL     1       1.104   2.920  18.740  0.00  0.00    +0.000 A 
ATOM     12  C   UNL     1       2.391   3.368  18.397  0.00  0.00    +0.000 A 
ATOM     13 CL   UNL     1       2.855   3.117  16.746  0.00  0.00    +0.000 Cl
ENDBRANCH   5   7
BRANCH   6  14
ATOM     14  C   UNL     1       4.006   6.716  17.773  0.00  0.00    +0.000 C 
ATOM     15  O   UNL     1       4.187   7.210  16.666  0.00  0.00    +0.000 OA
ATOM     16  N   UNL     1       2.974   7.123  18.590  0.00  0.00    +0.000 N 
ATOM     17  H   UNL     1       2.989   6.879  19.570  0.00  0.00    +0.000 HD
BRANCH  16  18
ATOM     18  C   UNL     1       2.124   8.223  18.196  0.00  0.00    +0.000 C 
BRANCH  18  19
ATOM     19  C   UNL     1       1.492   8.799  19.419  0.00  0.00    +0.000 A 
ATOM     20  C   UNL     1       1.452   8.256  20.690  0.00  0.00    +0.000 A 
ATOM     21  C   UNL     1       0.741   9.081  21.608  0.00  0.00    +0.000 A 
ATOM     22  C   UNL     1       0.263  10.224  21.009  0.00  0.00    +0.000 A 
ATOM     23  S   UNL     1       0.676  10.303  19.351  0.00  0.00    +0.000 S 
ENDBRANCH  18  19
ENDBRANCH  16  18
ENDBRANCH   6  14
TORSDOF 4
ENDMDL
MODEL 3
REMARK VINA RESULT:      -7.6      2.158      3.787
REMARK  Name = 
REMARK  5 active torsions:
REMARK  status: ('A' for Active; 'I' for Inactive)
REMARK    1  A    between atoms: C_1  and  C_2
REMARK    2  A    between atoms: C_5  and  C_6
REMARK    3  A    between atoms: C_13  and  C_14
REMARK    4  A    between atoms: N_16  and  C_17
REMARK    5  A    between atoms: C_17  and  C_18
REMARK                            x       y       z     vdW  Elec       q    Type
REMARK                         _______ _______ _______ _____ _____    ______ ____
ROOT
ATOM      1  C   UNL     1       7.481   6.686  18.146  0.00  0.00    +0.000 C 
ATOM      2  C   UNL     1       6.385   5.749  18.462  0.00  0.00    +0.000 A 
ATOM      3  O   UNL     1       6.757   4.662  19.178  0.00  0.00    +0.000 OA
ATOM      4  N   UNL     1       5.675   3.854  19.392  0.00  0.00    +0.000 NA
ATOM      5  C   UNL     1       4.612   4.463  18.845  0.00  0.00    +0.000 A 
ATOM      6  C   UNL     1       5.025   5.696  18.223  0.00  0.00    +0.000 A 
ENDROOT
BRANCH   5   7
ATOM      7  C   UNL     1       3.297   3.798  18.845  0.00  0.00    +0.000 A 
ATOM      8  C   UNL     1       3.034   2.804  17.876  0.00  0.00    +0.000 A 
ATOM      9  C   UNL     1       1.832   2.103  17.849  0.00  0.00    +0.000 A 
ATOM     10  C   UNL     1       0.869   2.340  18.822  0.00  0.00    +0.000 A 
ATOM     11  C   UNL     1       1.103   3.308  19.797  0.00  0.00    +0.000 A 
ATOM     12  C   UNL     1       2.298   4.047  19.806  0.00  0.00    +0.000 A 
ATOM     13 CL   UNL     1       2.413   5.270  21.028  0.00  0.00    +0.000 Cl
ENDBRANCH   5   7
BRANCH   6  14
ATOM     14  C   UNL     1       4.204   6.678  17.539  0.00  0.00    +0.000 C 
ATOM     15  O   UNL     1       4.402   6.991  16.371  0.00  0.00    +0.000 OA
ATOM     16  N   UNL     1       3.217   7.274  18.293  0.00  0.00    +0.000 N 
ATOM     17  H   UNL     1       3.230   7.176  19.298  0.00  0.00    +0.000 HD
BRANCH  16  18
ATOM     18  C   UNL     1       2.443   8.365  17.746  0.00  0.00    +0.000 C 
BRANCH  18  19
ATOM     19  C   UNL     1       1.548   8.897  18.816  0.00  0.00    +0.000 A 
ATOM     20  C   UNL     1       1.493   8.517  20.144  0.00  0.00    +0.000 A 
ATOM     21  C   UNL     1       0.498   9.231  20.871  0.00  0.00    +0.000 A 
ATOM     22  C   UNL     1      -0.173  10.132  20.074  0.00  0.00    +0.000 A 
ATOM     23  S   UNL     1       0.400  10.118  18.464  0.00  0.00    +0.000 S 
ENDBRANCH  18  19
ENDBRANCH  16  18
ENDBRANCH   6  14
TORSDOF 4
ENDMDL
MODEL 4
REMARK VINA RESULT:      -7.5      2.246      4.145
REMARK  Name = 
REMARK  5 active torsions:
REMARK  status: ('A' for Active; 'I' for Inactive)
REMARK    1  A    between atoms: C_1  and  C_2
REMARK    2  A    between atoms: C_5  and  C_6
REMARK    3  A    between atoms: C_13  and  C_14
REMARK    4  A    between atoms: N_16  and  C_17
REMARK    5  A    between atoms: C_17  and  C_18
REMARK                            x       y       z     vdW  Elec       q    Type
REMARK                         _______ _______ _______ _____ _____    ______ ____
ROOT
ATOM      1  C   UNL     1       7.465   6.670  17.670  0.00  0.00    +0.000 C 
ATOM      2  C   UNL     1       6.403   5.843  18.276  0.00  0.00    +0.000 A 
ATOM      3  O   UNL     1       6.847   4.861  19.095  0.00  0.00    +0.000 OA
ATOM      4  N   UNL     1       5.789   4.145  19.581  0.00  0.00    +0.000 NA
ATOM      5  C   UNL     1       4.672   4.713  19.098  0.00  0.00    +0.000 A 
ATOM      6  C   UNL     1       5.021   5.818  18.241  0.00  0.00    +0.000 A 
ENDROOT
BRANCH   5   7
ATOM      7  C   UNL     1       3.356   4.118  19.385  0.00  0.00    +0.000 A 
ATOM      8  C   UNL     1       2.534   4.716  20.366  0.00  0.00    +0.000 A 
ATOM      9  C   UNL     1       1.260   4.234  20.652  0.00  0.00    +0.000 A 
ATOM     10  C   UNL     1       0.745   3.164  19.931  0.00  0.00    +0.000 A 
ATOM     11  C   UNL     1       1.528   2.558  18.950  0.00  0.00    +0.000 A 
ATOM     12  C   UNL     1       2.830   3.015  18.684  0.00  0.00    +0.000 A 
ATOM     13 CL   UNL     1       3.711   2.113  17.495  0.00  0.00    +0.000 Cl
ENDBRANCH   5   7
BRANCH   6  14
ATOM     14  C   UNL     1       4.134   6.722  17.533  0.00  0.00    +0.000 C 
ATOM     15  O   UNL     1       4.261   6.953  16.335  0.00  0.00    +0.000 OA
ATOM     16  N   UNL     1       3.170   7.345  18.294  0.00  0.00    +0.000 N 
ATOM     17  H   UNL     1       3.239   7.322  19.301  0.00  0.00    +0.000 HD
BRANCH  16  18
ATOM     18  C   UNL     1       2.333   8.370  17.712  0.00  0.00    +0.000 C 
BRANCH  18  19
ATOM     19  C   UNL     1       1.538   9.011  18.801  0.00  0.00    +0.000 A 
ATOM     20  C   UNL     1       0.779  10.164  18.732  0.00  0.00    +0.000 A 
ATOM     21  C   UNL     1       0.172  10.488  19.979  0.00  0.00    +0.000 A 
ATOM     22  C   UNL     1       0.488   9.573  20.958  0.00  0.00    +0.000 A 
ATOM     23  S   UNL     1       1.504   8.329  20.371  0.00  0.00    +0.000 S 
ENDBRANCH  18  19
ENDBRANCH  16  18
ENDBRANCH   6  14
TORSDOF 4
ENDMDL
MODEL 5
REMARK VINA RESULT:      -7.4      1.189      1.689
REMARK  Name = 
REMARK  5 active torsions:
REMARK  status: ('A' for Active; 'I' for Inactive)
REMARK    1  A    between atoms: C_1  and  C_2
REMARK    2  A    between atoms: C_5  and  C_6
REMARK    3  A    between atoms: C_13  and  C_14
REMARK    4  A    between atoms: N_16  and  C_17
REMARK    5  A    between atoms: C_17  and  C_18
REMARK                            x       y       z     vdW  Elec       q    Type
REMARK                         _______ _______ _______ _____ _____    ______ ____
ROOT
ATOM      1  C   UNL     1       1.408   2.840  20.702  0.00  0.00    +0.000 C 
ATOM      2  C   UNL     1       2.709   3.236  20.130  0.00  0.00    +0.000 A 
ATOM      3  O   UNL     1       3.720   2.367  20.363  0.00  0.00    +0.000 OA
ATOM      4  N   UNL     1       4.879   2.841  19.813  0.00  0.00    +0.000 NA
ATOM      5  C   UNL     1       4.579   3.993  19.192  0.00  0.00    +0.000 A 
ATOM      6  C   UNL     1       3.181   4.294  19.375  0.00  0.00    +0.000 A 
ENDROOT
BRANCH   5   7
ATOM      7  C   UNL     1       5.644   4.791  18.561  0.00  0.00    +0.000 A 
ATOM      8  C   UNL     1       6.597   5.432  19.384  0.00  0.00    +0.000 A 
ATOM      9  C   UNL     1       7.656   6.161  18.851  0.00  0.00    +0.000 A 
ATOM     10  C   UNL     1       7.825   6.235  17.474  0.00  0.00    +0.000 A 
ATOM     11  C   UNL     1       6.906   5.607  16.636  0.00  0.00    +0.000 A 
ATOM     12  C   UNL     1       5.812   4.902  17.166  0.00  0.00    +0.000 A 
ATOM     13 CL   UNL     1       4.711   4.242  16.002  0.00  0.00    +0.000 Cl
ENDBRANCH   5   7
BRANCH   6  14
ATOM     14  C   UNL     1       2.429   5.422  18.858  0.00  0.00    +0.000 C 
ATOM     15  O   UNL     1       1.610   5.298  17.954  0.00  0.00    +0.000 OA
ATOM     16  N   UNL     1       2.723   6.650  19.408  0.00  0.00    +0.000 N 
ATOM     17  H   UNL     1       3.555   6.758  19.969  0.00  0.00    +0.000 HD
BRANCH  16  18
ATOM     18  C   UNL     1       2.134   7.852  18.862  0.00  0.00    +0.000 C 
BRANCH  18  19
ATOM     19  C   UNL     1       1.379   8.547  19.945  0.00  0.00    +0.000 A 
ATOM     20  C   UNL     1       1.148   8.108  21.236  0.00  0.00    +0.000 A 
ATOM     21  C   UNL     1       0.367   9.031  21.989  0.00  0.00    +0.000 A 
ATOM     22  C   UNL     1       0.028  10.142  21.250  0.00  0.00    +0.000 A 
ATOM     23  S   UNL     1       0.655  10.073  19.661  0.00  0.00    +0.000 S 
ENDBRANCH  18  19
ENDBRANCH  16  18
ENDBRANCH   6  14
TORSDOF 4
ENDMDL
MODEL 6
REMARK VINA RESULT:      -7.4      2.052      2.622
REMARK  Name = 
REMARK  5 active torsions:
REMARK  status: ('A' for Active; 'I' for Inactive)
REMARK    1  A    between atoms: C_1  and  C_2
REMARK    2  A    between atoms: C_5  and  C_6
REMARK    3  A    between atoms: C_13  and  C_14
REMARK    4  A    between atoms: N_16  and  C_17
REMARK    5  A    between atoms: C_17  and  C_18
REMARK                            x       y       z     vdW  Elec       q    Type
REMARK                         _______ _______ _______ _____ _____    ______ ____
ROOT
ATOM      1  C   UNL     1       0.891   2.820  18.586  0.00  0.00    +0.000 C 
ATOM      2  C   UNL     1       2.204   3.432  18.304  0.00  0.00    +0.000 A 
ATOM      3  O   UNL     1       2.874   2.885  17.262  0.00  0.00    +0.000 OA
ATOM      4  N   UNL     1       4.081   3.507  17.105  0.00  0.00    +0.000 NA
ATOM      5  C   UNL     1       4.147   4.480  18.027  0.00  0.00    +0.000 A 
ATOM      6  C   UNL     1       2.952   4.467  18.834  0.00  0.00    +0.000 A 
ENDROOT
BRANCH   5   7
ATOM      7  C   UNL     1       5.370   5.290  18.163  0.00  0.00    +0.000 A 
ATOM      8  C   UNL     1       6.240   5.036  19.247  0.00  0.00    +0.000 A 
ATOM      9  C   UNL     1       7.435   5.731  19.408  0.00  0.00    +0.000 A 
ATOM     10  C   UNL     1       7.825   6.670  18.462  0.00  0.00    +0.000 A 
ATOM     11  C   UNL     1       6.994   6.935  17.376  0.00  0.00    +0.000 A 
ATOM     12  C   UNL     1       5.767   6.266  17.228  0.00  0.00    +0.000 A 
ATOM     13 CL   UNL     1       4.804   6.758  15.874  0.00  0.00    +0.000 Cl
ENDBRANCH   5   7
BRANCH   6  14
ATOM     14  C   UNL     1       2.593   5.355  19.924  0.00  0.00    +0.000 C 
ATOM     15  O   UNL     1       2.455   4.952  21.073  0.00  0.00    +0.000 OA
ATOM     16  N   UNL     1       2.366   6.671  19.585  0.00  0.00    +0.000 N 
ATOM     17  H   UNL     1       2.253   6.922  18.613  0.00  0.00    +0.000 HD
BRANCH  16  18
ATOM     18  C   UNL     1       1.864   7.601  20.570  0.00  0.00    +0.000 C 
BRANCH  18  19
ATOM     19  C   UNL     1       1.354   8.813  19.865  0.00  0.00    +0.000 A 
ATOM     20  C   UNL     1       1.539   9.167  18.542  0.00  0.00    +0.000 A 
ATOM     21  C   UNL     1       0.921  10.409  18.222  0.00  0.00    +0.000 A 
ATOM     22  C   UNL     1       0.286  10.963  19.311  0.00  0.00    +0.000 A 
ATOM     23  S   UNL     1       0.429   9.984  20.705  0.00  0.00    +0.000 S 
ENDBRANCH  18  19
ENDBRANCH  16  18
ENDBRANCH   6  14
TORSDOF 4
ENDMDL
MODEL 7
REMARK VINA RESULT:      -7.2      2.833      5.523
REMARK  Name = 
REMARK  5 active torsions:
REMARK  status: ('A' for Active; 'I' for Inactive)
REMARK    1  A    between atoms: C_1  and  C_2
REMARK    2  A    between atoms: C_5  and  C_6
REMARK    3  A    between atoms: C_13  and  C_14
REMARK    4  A    between atoms: N_16  and  C_17
REMARK    5  A    between atoms: C_17  and  C_18
REMARK                            x       y       z     vdW  Elec       q    Type
REMARK                         _______ _______ _______ _____ _____    ______ ____
ROOT
ATOM      1  C   UNL     1       6.303   3.707  14.791  0.00  0.00    +0.000 C 
ATOM      2  C   UNL     1       5.615   4.750  15.577  0.00  0.00    +0.000 A 
ATOM      3  O   UNL     1       6.136   5.994  15.447  0.00  0.00    +0.000 OA
ATOM      4  N   UNL     1       5.443   6.873  16.232  0.00  0.00    +0.000 NA
ATOM      5  C   UNL     1       4.453   6.183  16.820  0.00  0.00    +0.000 A 
ATOM      6  C   UNL     1       4.527   4.797  16.429  0.00  0.00    +0.000 A 
ENDROOT
BRANCH   5   7
ATOM      7  C   UNL     1       3.568   6.844  17.795  0.00  0.00    +0.000 A 
ATOM      8  C   UNL     1       2.733   7.896  17.356  0.00  0.00    +0.000 A 
ATOM      9  C   UNL     1       1.839   8.530  18.213  0.00  0.00    +0.000 A 
ATOM     10  C   UNL     1       1.715   8.102  19.528  0.00  0.00    +0.000 A 
ATOM     11  C   UNL     1       2.518   7.061  19.989  0.00  0.00    +0.000 A 
ATOM     12  C   UNL     1       3.451   6.442  19.140  0.00  0.00    +0.000 A 
ATOM     13 CL   UNL     1       4.435   5.218  19.874  0.00  0.00    +0.000 Cl
ENDBRANCH   5   7
BRANCH   6  14
ATOM     14  C   UNL     1       3.647   3.708  16.805  0.00  0.00    +0.000 C 
ATOM     15  O   UNL     1       2.499   3.623  16.382  0.00  0.00    +0.000 OA
ATOM     16  N   UNL     1       4.157   2.799  17.705  0.00  0.00    +0.000 N 
ATOM     17  H   UNL     1       5.002   3.021  18.212  0.00  0.00    +0.000 HD
BRANCH  16  18
ATOM     18  C   UNL     1       3.312   1.762  18.252  0.00  0.00    +0.000 C 
BRANCH  18  19
ATOM     19  C   UNL     1       2.606   2.305  19.449  0.00  0.00    +0.000 A 
ATOM     20  C   UNL     1       1.373   2.928  19.498  0.00  0.00    +0.000 A 
ATOM     21  C   UNL     1       1.024   3.335  20.818  0.00  0.00    +0.000 A 
ATOM     22  C   UNL     1       2.001   3.010  21.731  0.00  0.00    +0.000 A 
ATOM     23  S   UNL     1       3.325   2.213  21.000  0.00  0.00    +0.000 S 
ENDBRANCH  18  19
ENDBRANCH  16  18
ENDBRANCH   6  14
TORSDOF 4
ENDMDL
MODEL 8
REMARK VINA RESULT:      -7.0      2.072      2.639
REMARK  Name = 
REMARK  5 active torsions:
REMARK  status: ('A' for Active; 'I' for Inactive)
REMARK    1  A    between atoms: C_1  and  C_2
REMARK    2  A    between atoms: C_5  and  C_6
REMARK    3  A    between atoms: C_13  and  C_14
REMARK    4  A    between atoms: N_16  and  C_17
REMARK    5  A    between atoms: C_17  and  C_18
REMARK                            x       y       z     vdW  Elec       q    Type
REMARK                         _______ _______ _______ _____ _____    ______ ____
ROOT
ATOM      1  C   UNL     1       1.500   2.289  18.697  0.00  0.00    +0.000 C 
ATOM      2  C   UNL     1       2.727   3.046  18.382  0.00  0.00    +0.000 A 
ATOM      3  O   UNL     1       3.485   2.512  17.395  0.00  0.00    +0.000 OA
ATOM      4  N   UNL     1       4.604   3.275  17.202  0.00  0.00    +0.000 NA
ATOM      5  C   UNL     1       4.521   4.318  18.043  0.00  0.00    +0.000 A 
ATOM      6  C   UNL     1       3.320   4.210  18.834  0.00  0.00    +0.000 A 
ENDROOT
BRANCH   5   7
ATOM      7  C   UNL     1       5.624   5.290  18.127  0.00  0.00    +0.000 A 
ATOM      8  C   UNL     1       6.615   5.115  19.119  0.00  0.00    +0.000 A 
ATOM      9  C   UNL     1       7.709   5.969  19.223  0.00  0.00    +0.000 A 
ATOM     10  C   UNL     1       7.875   7.000  18.307  0.00  0.00    +0.000 A 
ATOM     11  C   UNL     1       6.919   7.193  17.312  0.00  0.00    +0.000 A 
ATOM     12  C   UNL     1       5.791   6.359  17.225  0.00  0.00    +0.000 A 
ATOM     13 CL   UNL     1       4.650   6.770  15.987  0.00  0.00    +0.000 Cl
ENDBRANCH   5   7
BRANCH   6  14
ATOM     14  C   UNL     1       2.823   5.125  19.844  0.00  0.00    +0.000 C 
ATOM     15  O   UNL     1       2.654   4.780  21.009  0.00  0.00    +0.000 OA
ATOM     16  N   UNL     1       2.505   6.393  19.410  0.00  0.00    +0.000 N 
ATOM     17  H   UNL     1       2.427   6.576  18.420  0.00  0.00    +0.000 HD
BRANCH  16  18
ATOM     18  C   UNL     1       1.868   7.332  20.306  0.00  0.00    +0.000 C 
BRANCH  18  19
ATOM     19  C   UNL     1       1.577   8.587  19.553  0.00  0.00    +0.000 A 
ATOM     20  C   UNL     1       0.884   9.699  19.993  0.00  0.00    +0.000 A 
ATOM     21  C   UNL     1       0.782  10.705  18.989  0.00  0.00    +0.000 A 
ATOM     22  C   UNL     1       1.400  10.328  17.818  0.00  0.00    +0.000 A 
ATOM     23  S   UNL     1       2.103   8.773  17.934  0.00  0.00    +0.000 S 
ENDBRANCH  18  19
ENDBRANCH  16  18
ENDBRANCH   6  14
TORSDOF 4
ENDMDL
MODEL 9
REMARK VINA RESULT:      -7.0      1.465      2.035
REMARK  Name = 
REMARK  5 active torsions:
REMARK  status: ('A' for Active; 'I' for Inactive)
REMARK    1  A    between atoms: C_1  and  C_2
REMARK    2  A    between atoms: C_5  and  C_6
REMARK    3  A    between atoms: C_13  and  C_14
REMARK    4  A    between atoms: N_16  and  C_17
REMARK    5  A    between atoms: C_17  and  C_18
REMARK                            x       y       z     vdW  Elec       q    Type
REMARK                         _______ _______ _______ _____ _____    ______ ____
ROOT
ATOM      1  C   UNL     1       1.299   2.602  20.011  0.00  0.00    +0.000 C 
ATOM      2  C   UNL     1       2.643   3.091  19.645  0.00  0.00    +0.000 A 
ATOM      3  O   UNL     1       3.662   2.280  20.015  0.00  0.00    +0.000 OA
ATOM      4  N   UNL     1       4.857   2.836  19.651  0.00  0.00    +0.000 NA
ATOM      5  C   UNL     1       4.580   3.981  19.007  0.00  0.00    +0.000 A 
ATOM      6  C   UNL     1       3.153   4.192  18.982  0.00  0.00    +0.000 A 
ENDROOT
BRANCH   5   7
ATOM      7  C   UNL     1       5.673   4.857  18.552  0.00  0.00    +0.000 A 
ATOM      8  C   UNL     1       6.578   5.372  19.507  0.00  0.00    +0.000 A 
ATOM      9  C   UNL     1       7.661   6.166  19.140  0.00  0.00    +0.000 A 
ATOM     10  C   UNL     1       7.902   6.433  17.798  0.00  0.00    +0.000 A 
ATOM     11  C   UNL     1       7.032   5.932  16.831  0.00  0.00    +0.000 A 
ATOM     12  C   UNL     1       5.914   5.163  17.198  0.00  0.00    +0.000 A 
ATOM     13 CL   UNL     1       4.879   4.678  15.896  0.00  0.00    +0.000 Cl
ENDBRANCH   5   7
BRANCH   6  14
ATOM     14  C   UNL     1       2.416   5.282  18.373  0.00  0.00    +0.000 C 
ATOM     15  O   UNL     1       1.510   5.086  17.570  0.00  0.00    +0.000 OA
ATOM     16  N   UNL     1       2.823   6.554  18.711  0.00  0.00    +0.000 N 
ATOM     17  H   UNL     1       3.709   6.685  19.178  0.00  0.00    +0.000 HD
BRANCH  16  18
ATOM     18  C   UNL     1       2.249   7.703  18.049  0.00  0.00    +0.000 C 
BRANCH  18  19
ATOM     19  C   UNL     1       1.588   8.563  19.074  0.00  0.00    +0.000 A 
ATOM     20  C   UNL     1       1.025   9.813  18.898  0.00  0.00    +0.000 A 
ATOM     21  C   UNL     1       0.501  10.346  20.111  0.00  0.00    +0.000 A 
ATOM     22  C   UNL     1       0.682   9.487  21.171  0.00  0.00    +0.000 A 
ATOM     23  S   UNL     1       1.472   8.044  20.702  0.00  0.00    +0.000 S 
ENDBRANCH  18  19
ENDBRANCH  16  18
ENDBRANCH   6  14
TORSDOF 4
ENDMDL
