MODEL 1
REMARK VINA RESULT:      -7.1      0.000      0.000
REMARK  Name = 
REMARK  4 active torsions:
REMARK  status: ('A' for Active; 'I' for Inactive)
REMARK    1  A    between atoms: C_1  and  C_2
REMARK    2  A    between atoms: C_2  and  C_3
REMARK    3  A    between atoms: C_3  and  N_4
REMARK    4  A    between atoms: C_12  and  O_13
REMARK                            x       y       z     vdW  Elec       q    Type
REMARK                         _______ _______ _______ _____ _____    ______ ____
ROOT
ATOM      1  N   UNL     1       2.875   5.650  19.273  0.00  0.00    +0.000 NA
ATOM      2  C   UNL     1       2.568   7.010  18.821  0.00  0.00    +0.000 C 
ATOM      3  C   UNL     1       3.237   7.196  17.468  0.00  0.00    +0.000 C 
ATOM      4  C   UNL     1       4.181   6.007  17.315  0.00  0.00    +0.000 C 
ATOM      5  C   UNL     1       5.606   6.314  17.765  0.00  0.00    +0.000 A 
ATOM      6  C   UNL     1       6.308   7.368  17.157  0.00  0.00    +0.000 A 
ATOM      7  C   UNL     1       7.603   7.697  17.560  0.00  0.00    +0.000 A 
ATOM      8  C   UNL     1       8.220   6.966  18.569  0.00  0.00    +0.000 A 
ATOM      9  C   UNL     1       7.550   5.891  19.151  0.00  0.00    +0.000 A 
ATOM     10  C   UNL     1       6.255   5.535  18.742  0.00  0.00    +0.000 A 
ATOM     11  C   UNL     1       5.565   4.351  19.374  0.00  0.00    +0.000 C 
ATOM     12  C   UNL     1       4.435   3.812  18.500  0.00  0.00    +0.000 C 
ATOM     13  C   UNL     1       3.450   4.918  18.127  0.00  0.00    +0.000 C 
ENDROOT
BRANCH   9  14
ATOM     14  O   UNL     1       8.157   5.161  20.134  0.00  0.00    +0.000 OA
ATOM     15  H   UNL     1       8.541   4.364  19.736  0.00  0.00    +0.000 HD
ENDBRANCH   9  14
BRANCH   1  16
ATOM     16  C   UNL     1       1.750   5.005  19.951  0.00  0.00    +0.000 C 
BRANCH  16  18
ATOM     17  C   UNL     1       1.594   2.882  21.386  0.00  0.00    +0.000 C 
ATOM     18  C   UNL     1       2.153   4.292  21.260  0.00  0.00    +0.000 C 
ENDBRANCH  16  18
ENDBRANCH   1  16
TORSDOF 3
ENDMDL
MODEL 2
REMARK VINA RESULT:      -7.0      2.071      2.862
REMARK  Name = 
REMARK  4 active torsions:
REMARK  status: ('A' for Active; 'I' for Inactive)
REMARK    1  A    between atoms: C_1  and  C_2
REMARK    2  A    between atoms: C_2  and  C_3
REMARK    3  A    between atoms: C_3  and  N_4
REMARK    4  A    between atoms: C_12  and  O_13
REMARK                            x       y       z     vdW  Elec       q    Type
REMARK                         _______ _______ _______ _____ _____    ______ ____
ROOT
ATOM      1  N   UNL     1       3.011   4.893  18.854  0.00  0.00    +0.000 NA
ATOM      2  C   UNL     1       2.069   4.473  17.813  0.00  0.00    +0.000 C 
ATOM      3  C   UNL     1       2.682   3.270  17.110  0.00  0.00    +0.000 C 
ATOM      4  C   UNL     1       4.131   3.218  17.586  0.00  0.00    +0.000 C 
ATOM      5  C   UNL     1       5.096   3.928  16.641  0.00  0.00    +0.000 A 
ATOM      6  C   UNL     1       5.177   3.513  15.302  0.00  0.00    +0.000 A 
ATOM      7  C   UNL     1       6.027   4.156  14.399  0.00  0.00    +0.000 A 
ATOM      8  C   UNL     1       6.819   5.214  14.830  0.00  0.00    +0.000 A 
ATOM      9  C   UNL     1       6.780   5.608  16.167  0.00  0.00    +0.000 A 
ATOM     10  C   UNL     1       5.944   4.958  17.090  0.00  0.00    +0.000 A 
ATOM     11  C   UNL     1       5.942   5.391  18.536  0.00  0.00    +0.000 C 
ATOM     12  C   UNL     1       5.398   4.302  19.459  0.00  0.00    +0.000 C 
ATOM     13  C   UNL     1       4.021   3.826  19.000  0.00  0.00    +0.000 C 
ENDROOT
BRANCH   9  14
ATOM     14  O   UNL     1       7.566   6.638  16.598  0.00  0.00    +0.000 OA
ATOM     15  H   UNL     1       7.103   7.103  17.314  0.00  0.00    +0.000 HD
ENDBRANCH   9  14
BRANCH   1  16
ATOM     16  C   UNL     1       2.348   5.325  20.085  0.00  0.00    +0.000 C 
BRANCH  16  18
ATOM     17  C   UNL     1       1.581   3.234  21.363  0.00  0.00    +0.000 C 
ATOM     18  C   UNL     1       1.170   4.416  20.495  0.00  0.00    +0.000 C 
ENDBRANCH  16  18
ENDBRANCH   1  16
TORSDOF 3
ENDMDL
MODEL 3
REMARK VINA RESULT:      -6.8      2.253      5.175
REMARK  Name = 
REMARK  4 active torsions:
REMARK  status: ('A' for Active; 'I' for Inactive)
REMARK    1  A    between atoms: C_1  and  C_2
REMARK    2  A    between atoms: C_2  and  C_3
REMARK    3  A    between atoms: C_3  and  N_4
REMARK    4  A    between atoms: C_12  and  O_13
REMARK                            x       y       z     vdW  Elec       q    Type
REMARK                         _______ _______ _______ _____ _____    ______ ____
ROOT
ATOM      1  N   UNL     1       6.177   5.623  17.255  0.00  0.00    +0.000 NA
ATOM      2  C   UNL     1       6.589   4.333  16.695  0.00  0.00    +0.000 C 
ATOM      3  C   UNL     1       5.371   3.728  16.013  0.00  0.00    +0.000 C 
ATOM      4  C   UNL     1       4.188   4.575  16.471  0.00  0.00    +0.000 C 
ATOM      5  C   UNL     1       3.469   3.993  17.684  0.00  0.00    +0.000 A 
ATOM      6  C   UNL     1       2.932   2.697  17.608  0.00  0.00    +0.000 A 
ATOM      7  C   UNL     1       2.292   2.118  18.705  0.00  0.00    +0.000 A 
ATOM      8  C   UNL     1       2.167   2.835  19.890  0.00  0.00    +0.000 A 
ATOM      9  C   UNL     1       2.658   4.138  19.965  0.00  0.00    +0.000 A 
ATOM     10  C   UNL     1       3.287   4.740  18.863  0.00  0.00    +0.000 A 
ATOM     11  C   UNL     1       3.786   6.160  18.966  0.00  0.00    +0.000 C 
ATOM     12  C   UNL     1       3.965   6.807  17.594  0.00  0.00    +0.000 C 
ATOM     13  C   UNL     1       4.853   5.950  16.693  0.00  0.00    +0.000 C 
ENDROOT
BRANCH   9  14
ATOM     14  O   UNL     1       2.526   4.851  21.122  0.00  0.00    +0.000 OA
ATOM     15  H   UNL     1       2.217   4.254  21.822  0.00  0.00    +0.000 HD
ENDBRANCH   9  14
BRANCH   1  16
ATOM     16  C   UNL     1       7.206   6.656  17.128  0.00  0.00    +0.000 C 
BRANCH  16  18
ATOM     17  C   UNL     1       7.803   5.827  19.484  0.00  0.00    +0.000 C 
ATOM     18  C   UNL     1       7.965   6.928  18.444  0.00  0.00    +0.000 C 
ENDBRANCH  16  18
ENDBRANCH   1  16
TORSDOF 3
ENDMDL
MODEL 4
REMARK VINA RESULT:      -6.8      2.479      3.490
REMARK  Name = 
REMARK  4 active torsions:
REMARK  status: ('A' for Active; 'I' for Inactive)
REMARK    1  A    between atoms: C_1  and  C_2
REMARK    2  A    between atoms: C_2  and  C_3
REMARK    3  A    between atoms: C_3  and  N_4
REMARK    4  A    between atoms: C_12  and  O_13
REMARK                            x       y       z     vdW  Elec       q    Type
REMARK                         _______ _______ _______ _____ _____    ______ ____
ROOT
ATOM      1  N   UNL     1       2.369   3.994  18.730  0.00  0.00    +0.000 NA
ATOM      2  C   UNL     1       2.213   2.680  18.101  0.00  0.00    +0.000 C 
ATOM      3  C   UNL     1       3.606   2.087  17.944  0.00  0.00    +0.000 C 
ATOM      4  C   UNL     1       4.569   3.237  18.223  0.00  0.00    +0.000 C 
ATOM      5  C   UNL     1       5.022   3.958  16.958  0.00  0.00    +0.000 A 
ATOM      6  C   UNL     1       5.668   3.231  15.945  0.00  0.00    +0.000 A 
ATOM      7  C   UNL     1       6.072   3.849  14.760  0.00  0.00    +0.000 A 
ATOM      8  C   UNL     1       5.848   5.209  14.579  0.00  0.00    +0.000 A 
ATOM      9  C   UNL     1       5.247   5.952  15.595  0.00  0.00    +0.000 A 
ATOM     10  C   UNL     1       4.853   5.347  16.800  0.00  0.00    +0.000 A 
ATOM     11  C   UNL     1       4.227   6.182  17.890  0.00  0.00    +0.000 C 
ATOM     12  C   UNL     1       4.329   5.509  19.257  0.00  0.00    +0.000 C 
ATOM     13  C   UNL     1       3.758   4.092  19.219  0.00  0.00    +0.000 C 
ENDROOT
BRANCH   9  14
ATOM     14  O   UNL     1       5.037   7.291  15.429  0.00  0.00    +0.000 OA
ATOM     15  H   UNL     1       5.369   7.551  14.554  0.00  0.00    +0.000 HD
ENDBRANCH   9  14
BRANCH   1  16
ATOM     16  C   UNL     1       1.320   4.290  19.705  0.00  0.00    +0.000 C 
BRANCH  16  18
ATOM     17  C   UNL     1       1.441   2.605  21.638  0.00  0.00    +0.000 C 
ATOM     18  C   UNL     1       1.746   4.019  21.163  0.00  0.00    +0.000 C 
ENDBRANCH  16  18
ENDBRANCH   1  16
TORSDOF 3
ENDMDL
MODEL 5
REMARK VINA RESULT:      -6.8      2.423      5.302
REMARK  Name = 
REMARK  4 active torsions:
REMARK  status: ('A' for Active; 'I' for Inactive)
REMARK    1  A    between atoms: C_1  and  C_2
REMARK    2  A    between atoms: C_2  and  C_3
REMARK    3  A    between atoms: C_3  and  N_4
REMARK    4  A    between atoms: C_12  and  O_13
REMARK                            x       y       z     vdW  Elec       q    Type
REMARK                         _______ _______ _______ _____ _____    ______ ____
ROOT
ATOM      1  N   UNL     1       4.345   6.149  17.282  0.00  0.00    +0.000 NA
ATOM      2  C   UNL     1       3.274   7.126  17.497  0.00  0.00    +0.000 C 
ATOM      3  C   UNL     1       2.945   7.113  18.983  0.00  0.00    +0.000 C 
ATOM      4  C   UNL     1       3.651   5.882  19.544  0.00  0.00    +0.000 C 
ATOM      5  C   UNL     1       2.751   4.653  19.604  0.00  0.00    +0.000 A 
ATOM      6  C   UNL     1       1.558   4.710  20.344  0.00  0.00    +0.000 A 
ATOM      7  C   UNL     1       0.693   3.615  20.400  0.00  0.00    +0.000 A 
ATOM      8  C   UNL     1       1.019   2.442  19.729  0.00  0.00    +0.000 A 
ATOM      9  C   UNL     1       2.221   2.358  19.027  0.00  0.00    +0.000 A 
ATOM     10  C   UNL     1       3.109   3.444  18.978  0.00  0.00    +0.000 A 
ATOM     11  C   UNL     1       4.414   3.315  18.230  0.00  0.00    +0.000 C 
ATOM     12  C   UNL     1       5.441   4.349  18.686  0.00  0.00    +0.000 C 
ATOM     13  C   UNL     1       4.871   5.765  18.606  0.00  0.00    +0.000 C 
ENDROOT
BRANCH   9  14
ATOM     14  O   UNL     1       2.552   1.203  18.377  0.00  0.00    +0.000 OA
ATOM     15  H   UNL     1       2.698   0.506  19.037  0.00  0.00    +0.000 HD
ENDBRANCH   9  14
BRANCH   1  16
ATOM     16  C   UNL     1       5.334   6.593  16.299  0.00  0.00    +0.000 C 
BRANCH  16  18
ATOM     17  C   UNL     1       6.885   4.810  15.294  0.00  0.00    +0.000 C 
ATOM     18  C   UNL     1       5.572   5.570  15.168  0.00  0.00    +0.000 C 
ENDBRANCH  16  18
ENDBRANCH   1  16
TORSDOF 3
ENDMDL
MODEL 6
REMARK VINA RESULT:      -6.8      2.099      2.617
REMARK  Name = 
REMARK  4 active torsions:
REMARK  status: ('A' for Active; 'I' for Inactive)
REMARK    1  A    between atoms: C_1  and  C_2
REMARK    2  A    between atoms: C_2  and  C_3
REMARK    3  A    between atoms: C_3  and  N_4
REMARK    4  A    between atoms: C_12  and  O_13
REMARK                            x       y       z     vdW  Elec       q    Type
REMARK                         _______ _______ _______ _____ _____    ______ ____
ROOT
ATOM      1  N   UNL     1       2.076   4.437  19.880  0.00  0.00    +0.000 NA
ATOM      2  C   UNL     1       2.438   5.684  20.560  0.00  0.00    +0.000 C 
ATOM      3  C   UNL     1       2.421   6.789  19.515  0.00  0.00    +0.000 C 
ATOM      4  C   UNL     1       2.337   6.074  18.170  0.00  0.00    +0.000 C 
ATOM      5  C   UNL     1       3.702   5.850  17.526  0.00  0.00    +0.000 A 
ATOM      6  C   UNL     1       4.525   6.955  17.257  0.00  0.00    +0.000 A 
ATOM      7  C   UNL     1       5.792   6.789  16.695  0.00  0.00    +0.000 A 
ATOM      8  C   UNL     1       6.247   5.513  16.380  0.00  0.00    +0.000 A 
ATOM      9  C   UNL     1       5.422   4.411  16.603  0.00  0.00    +0.000 A 
ATOM     10  C   UNL     1       4.138   4.565  17.150  0.00  0.00    +0.000 A 
ATOM     11  C   UNL     1       3.259   3.356  17.356  0.00  0.00    +0.000 C 
ATOM     12  C   UNL     1       1.783   3.732  17.465  0.00  0.00    +0.000 C 
ATOM     13  C   UNL     1       1.562   4.793  18.542  0.00  0.00    +0.000 C 
ENDROOT
BRANCH   9  14
ATOM     14  O   UNL     1       5.859   3.157  16.284  0.00  0.00    +0.000 OA
ATOM     15  H   UNL     1       5.918   2.632  17.098  0.00  0.00    +0.000 HD
ENDBRANCH   9  14
BRANCH   1  16
ATOM     16  C   UNL     1       1.220   3.571  20.690  0.00  0.00    +0.000 C 
BRANCH  16  18
ATOM     17  C   UNL     1       3.387   2.248  21.075  0.00  0.00    +0.000 C 
ATOM     18  C   UNL     1       2.012   2.620  21.613  0.00  0.00    +0.000 C 
ENDBRANCH  16  18
ENDBRANCH   1  16
TORSDOF 3
ENDMDL
MODEL 7
REMARK VINA RESULT:      -6.7      2.341      5.469
REMARK  Name = 
REMARK  4 active torsions:
REMARK  status: ('A' for Active; 'I' for Inactive)
REMARK    1  A    between atoms: C_1  and  C_2
REMARK    2  A    between atoms: C_2  and  C_3
REMARK    3  A    between atoms: C_3  and  N_4
REMARK    4  A    between atoms: C_12  and  O_13
REMARK                            x       y       z     vdW  Elec       q    Type
REMARK                         _______ _______ _______ _____ _____    ______ ____
ROOT
ATOM      1  N   UNL     1       6.359   5.577  18.076  0.00  0.00    +0.000 NA
ATOM      2  C   UNL     1       6.807   4.376  17.365  0.00  0.00    +0.000 C 
ATOM      3  C   UNL     1       5.735   4.031  16.342  0.00  0.00    +0.000 C 
ATOM      4  C   UNL     1       4.532   4.896  16.709  0.00  0.00    +0.000 C 
ATOM      5  C   UNL     1       3.531   4.177  17.607  0.00  0.00    +0.000 A 
ATOM      6  C   UNL     1       2.948   2.977  17.166  0.00  0.00    +0.000 A 
ATOM      7  C   UNL     1       2.050   2.275  17.971  0.00  0.00    +0.000 A 
ATOM      8  C   UNL     1       1.710   2.772  19.224  0.00  0.00    +0.000 A 
ATOM      9  C   UNL     1       2.249   3.984  19.657  0.00  0.00    +0.000 A 
ATOM     10  C   UNL     1       3.139   4.711  18.849  0.00  0.00    +0.000 A 
ATOM     11  C   UNL     1       3.686   6.031  19.335  0.00  0.00    +0.000 C 
ATOM     12  C   UNL     1       4.200   6.895  18.186  0.00  0.00    +0.000 C 
ATOM     13  C   UNL     1       5.212   6.133  17.332  0.00  0.00    +0.000 C 
ENDROOT
BRANCH   9  14
ATOM     14  O   UNL     1       1.908   4.483  20.881  0.00  0.00    +0.000 OA
ATOM     15  H   UNL     1       2.315   5.358  20.984  0.00  0.00    +0.000 HD
ENDBRANCH   9  14
BRANCH   1  16
ATOM     16  C   UNL     1       7.449   6.507  18.370  0.00  0.00    +0.000 C 
BRANCH  16  18
ATOM     17  C   UNL     1       8.161   8.936  17.939  0.00  0.00    +0.000 C 
ATOM     18  C   UNL     1       7.552   7.668  17.357  0.00  0.00    +0.000 C 
ENDBRANCH  16  18
ENDBRANCH   1  16
TORSDOF 3
ENDMDL
MODEL 8
REMARK VINA RESULT:      -6.7      1.064      1.212
REMARK  Name = 
REMARK  4 active torsions:
REMARK  status: ('A' for Active; 'I' for Inactive)
REMARK    1  A    between atoms: C_1  and  C_2
REMARK    2  A    between atoms: C_2  and  C_3
REMARK    3  A    between atoms: C_3  and  N_4
REMARK    4  A    between atoms: C_12  and  O_13
REMARK                            x       y       z     vdW  Elec       q    Type
REMARK                         _______ _______ _______ _____ _____    ______ ____
ROOT
ATOM      1  N   UNL     1       2.406   5.449  19.672  0.00  0.00    +0.000 NA
ATOM      2  C   UNL     1       2.309   6.904  19.817  0.00  0.00    +0.000 C 
ATOM      3  C   UNL     1       2.567   7.512  18.446  0.00  0.00    +0.000 C 
ATOM      4  C   UNL     1       3.113   6.371  17.594  0.00  0.00    +0.000 C 
ATOM      5  C   UNL     1       4.637   6.322  17.566  0.00  0.00    +0.000 A 
ATOM      6  C   UNL     1       5.353   7.441  17.111  0.00  0.00    +0.000 A 
ATOM      7  C   UNL     1       6.749   7.446  17.097  0.00  0.00    +0.000 A 
ATOM      8  C   UNL     1       7.449   6.323  17.525  0.00  0.00    +0.000 A 
ATOM      9  C   UNL     1       6.749   5.190  17.940  0.00  0.00    +0.000 A 
ATOM     10  C   UNL     1       5.345   5.164  17.940  0.00  0.00    +0.000 A 
ATOM     11  C   UNL     1       4.617   3.915  18.371  0.00  0.00    +0.000 C 
ATOM     12  C   UNL     1       3.184   3.877  17.846  0.00  0.00    +0.000 C 
ATOM     13  C   UNL     1       2.422   5.145  18.228  0.00  0.00    +0.000 C 
ENDROOT
BRANCH   9  14
ATOM     14  O   UNL     1       7.431   4.080  18.349  0.00  0.00    +0.000 OA
ATOM     15  H   UNL     1       6.831   3.318  18.320  0.00  0.00    +0.000 HD
ENDBRANCH   9  14
BRANCH   1  16
ATOM     16  C   UNL     1       1.416   4.727  20.472  0.00  0.00    +0.000 C 
BRANCH  16  18
ATOM     17  C   UNL     1       1.866   2.287  21.131  0.00  0.00    +0.000 C 
ATOM     18  C   UNL     1       2.047   3.755  21.492  0.00  0.00    +0.000 C 
ENDBRANCH  16  18
ENDBRANCH   1  16
TORSDOF 3
ENDMDL
MODEL 9
REMARK VINA RESULT:      -6.7      2.129      3.322
REMARK  Name = 
REMARK  4 active torsions:
REMARK  status: ('A' for Active; 'I' for Inactive)
REMARK    1  A    between atoms: C_1  and  C_2
REMARK    2  A    between atoms: C_2  and  C_3
REMARK    3  A    between atoms: C_3  and  N_4
REMARK    4  A    between atoms: C_12  and  O_13
REMARK                            x       y       z     vdW  Elec       q    Type
REMARK                         _______ _______ _______ _____ _____    ______ ____
ROOT
ATOM      1  N   UNL     1       2.953   5.195  18.666  0.00  0.00    +0.000 NA
ATOM      2  C   UNL     1       2.081   4.573  17.666  0.00  0.00    +0.000 C 
ATOM      3  C   UNL     1       2.770   3.300  17.198  0.00  0.00    +0.000 C 
ATOM      4  C   UNL     1       4.193   3.386  17.741  0.00  0.00    +0.000 C 
ATOM      5  C   UNL     1       5.181   3.974  16.738  0.00  0.00    +0.000 A 
ATOM      6  C   UNL     1       5.345   3.352  15.489  0.00  0.00    +0.000 A 
ATOM      7  C   UNL     1       6.218   3.875  14.534  0.00  0.00    +0.000 A 
ATOM      8  C   UNL     1       6.951   5.021  14.821  0.00  0.00    +0.000 A 
ATOM      9  C   UNL     1       6.829   5.624  16.073  0.00  0.00    +0.000 A 
ATOM     10  C   UNL     1       5.969   5.097  17.051  0.00  0.00    +0.000 A 
ATOM     11  C   UNL     1       5.877   5.757  18.405  0.00  0.00    +0.000 C 
ATOM     12  C   UNL     1       5.324   4.810  19.468  0.00  0.00    +0.000 C 
ATOM     13  C   UNL     1       3.989   4.209  19.030  0.00  0.00    +0.000 C 
ENDROOT
BRANCH   9  14
ATOM     14  O   UNL     1       7.556   6.742  16.366  0.00  0.00    +0.000 OA
ATOM     15  H   UNL     1       8.436   6.469  16.673  0.00  0.00    +0.000 HD
ENDBRANCH   9  14
BRANCH   1  16
ATOM     16  C   UNL     1       2.212   5.792  19.778  0.00  0.00    +0.000 C 
BRANCH  16  18
ATOM     17  C   UNL     1       2.479   7.928  18.378  0.00  0.00    +0.000 C 
ATOM     18  C   UNL     1       2.216   7.336  19.755  0.00  0.00    +0.000 C 
ENDBRANCH  16  18
ENDBRANCH   1  16
TORSDOF 3
ENDMDL
