MODEL 1
REMARK VINA RESULT:      -6.9      0.000      0.000
REMARK  Name = 
REMARK  3 active torsions:
REMARK  status: ('A' for Active; 'I' for Inactive)
REMARK    1  A    between atoms: C_1  and  O_2
REMARK    2  A    between atoms: O_2  and  C_3
REMARK    3  A    between atoms: C_12  and  C_13
REMARK                            x       y       z     vdW  Elec       q    Type
REMARK                         _______ _______ _______ _____ _____    ______ ____
ROOT
ATOM      1  C   UNL     1       1.482   3.421  19.449  0.00  0.00    +0.000 A 
ATOM      2  C   UNL     1       1.650   2.175  18.827  0.00  0.00    +0.000 A 
ATOM      3  C   UNL     1       2.518   2.024  17.752  0.00  0.00    +0.000 A 
ATOM      4  C   UNL     1       3.198   3.131  17.261  0.00  0.00    +0.000 A 
ATOM      5  C   UNL     1       3.066   4.389  17.874  0.00  0.00    +0.000 A 
ATOM      6  C   UNL     1       2.216   4.535  19.004  0.00  0.00    +0.000 A 
ATOM      7  C   UNL     1       2.328   5.827  19.781  0.00  0.00    +0.000 C 
ATOM      8  C   UNL     1       2.787   6.980  18.895  0.00  0.00    +0.000 C 
ATOM      9  O   UNL     1       4.017   6.638  18.264  0.00  0.00    +0.000 OA
ATOM     10  C   UNL     1       3.811   5.592  17.299  0.00  0.00    +0.000 C 
ENDROOT
BRANCH  10  11
ATOM     11  C   UNL     1       5.193   5.226  16.746  0.00  0.00    +0.000 C 
ATOM     12  N   UNL     1       6.174   4.845  17.534  0.00  0.00    +0.000 NA
ATOM     13  C   UNL     1       7.331   4.690  16.606  0.00  0.00    +0.000 C 
ATOM     14  C   UNL     1       6.740   4.620  15.195  0.00  0.00    +0.000 C 
ATOM     15  N   UNL     1       5.484   5.294  15.400  0.00  0.00    +0.000 N 
ATOM     16  H   UNL     1       4.703   5.100  14.781  0.00  0.00    +0.000 HD
ENDBRANCH  10  11
BRANCH   1  18
ATOM     17  C   UNL     1       1.439   2.733  21.734  0.00  0.00    +0.000 C 
ATOM     18  O   UNL     1       0.793   3.363  20.634  0.00  0.00    +0.000 OA
ENDBRANCH   1  18
TORSDOF 2
ENDMDL
MODEL 2
REMARK VINA RESULT:      -6.6      0.437      1.034
REMARK  Name = 
REMARK  3 active torsions:
REMARK  status: ('A' for Active; 'I' for Inactive)
REMARK    1  A    between atoms: C_1  and  O_2
REMARK    2  A    between atoms: O_2  and  C_3
REMARK    3  A    between atoms: C_12  and  C_13
REMARK                            x       y       z     vdW  Elec       q    Type
REMARK                         _______ _______ _______ _____ _____    ______ ____
ROOT
ATOM      1  C   UNL     1       1.525   3.177  19.543  0.00  0.00    +0.000 A 
ATOM      2  C   UNL     1       1.833   1.994  18.857  0.00  0.00    +0.000 A 
ATOM      3  C   UNL     1       2.724   1.996  17.790  0.00  0.00    +0.000 A 
ATOM      4  C   UNL     1       3.287   3.195  17.371  0.00  0.00    +0.000 A 
ATOM      5  C   UNL     1       3.014   4.395  18.050  0.00  0.00    +0.000 A 
ATOM      6  C   UNL     1       2.141   4.387  19.171  0.00  0.00    +0.000 A 
ATOM      7  C   UNL     1       2.104   5.638  20.019  0.00  0.00    +0.000 C 
ATOM      8  C   UNL     1       2.447   6.880  19.205  0.00  0.00    +0.000 C 
ATOM      9  O   UNL     1       3.713   6.707  18.578  0.00  0.00    +0.000 OA
ATOM     10  C   UNL     1       3.632   5.702  17.554  0.00  0.00    +0.000 C 
ENDROOT
BRANCH  10  11
ATOM     11  C   UNL     1       5.051   5.516  17.005  0.00  0.00    +0.000 C 
ATOM     12  N   UNL     1       5.291   5.460  15.713  0.00  0.00    +0.000 NA
ATOM     13  C   UNL     1       6.754   5.178  15.640  0.00  0.00    +0.000 C 
ATOM     14  C   UNL     1       7.324   5.517  17.020  0.00  0.00    +0.000 C 
ATOM     15  N   UNL     1       6.144   5.380  17.834  0.00  0.00    +0.000 N 
ATOM     16  H   UNL     1       6.080   5.882  18.714  0.00  0.00    +0.000 HD
ENDBRANCH  10  11
BRANCH   1  18
ATOM     17  C   UNL     1       1.583   2.595  21.856  0.00  0.00    +0.000 C 
ATOM     18  O   UNL     1       0.833   2.981  20.710  0.00  0.00    +0.000 OA
ENDBRANCH   1  18
TORSDOF 2
ENDMDL
MODEL 3
REMARK VINA RESULT:      -6.5      2.607      5.689
REMARK  Name = 
REMARK  3 active torsions:
REMARK  status: ('A' for Active; 'I' for Inactive)
REMARK    1  A    between atoms: C_1  and  O_2
REMARK    2  A    between atoms: O_2  and  C_3
REMARK    3  A    between atoms: C_12  and  C_13
REMARK                            x       y       z     vdW  Elec       q    Type
REMARK                         _______ _______ _______ _____ _____    ______ ____
ROOT
ATOM      1  C   UNL     1       6.900   4.896  15.525  0.00  0.00    +0.000 A 
ATOM      2  C   UNL     1       5.898   4.243  14.793  0.00  0.00    +0.000 A 
ATOM      3  C   UNL     1       4.772   3.725  15.424  0.00  0.00    +0.000 A 
ATOM      4  C   UNL     1       4.658   3.819  16.804  0.00  0.00    +0.000 A 
ATOM      5  C   UNL     1       5.635   4.485  17.565  0.00  0.00    +0.000 A 
ATOM      6  C   UNL     1       6.763   5.057  16.916  0.00  0.00    +0.000 A 
ATOM      7  C   UNL     1       7.626   5.988  17.739  0.00  0.00    +0.000 C 
ATOM      8  C   UNL     1       7.570   5.643  19.222  0.00  0.00    +0.000 C 
ATOM      9  O   UNL     1       6.217   5.653  19.665  0.00  0.00    +0.000 OA
ATOM     10  C   UNL     1       5.492   4.555  19.085  0.00  0.00    +0.000 C 
ENDROOT
BRANCH  10  11
ATOM     11  C   UNL     1       4.035   4.702  19.537  0.00  0.00    +0.000 C 
ATOM     12  N   UNL     1       3.417   5.863  19.514  0.00  0.00    +0.000 NA
ATOM     13  C   UNL     1       2.086   5.565  20.118  0.00  0.00    +0.000 C 
ATOM     14  C   UNL     1       1.925   4.043  20.066  0.00  0.00    +0.000 C 
ATOM     15  N   UNL     1       3.304   3.632  20.008  0.00  0.00    +0.000 N 
ATOM     16  H   UNL     1       3.543   2.735  19.599  0.00  0.00    +0.000 HD
ENDBRANCH  10  11
BRANCH   1  18
ATOM     17  C   UNL     1       7.811   5.281  13.354  0.00  0.00    +0.000 C 
ATOM     18  O   UNL     1       7.814   5.561  14.749  0.00  0.00    +0.000 OA
ENDBRANCH   1  18
TORSDOF 2
ENDMDL
MODEL 4
REMARK VINA RESULT:      -6.0      0.980      1.320
REMARK  Name = 
REMARK  3 active torsions:
REMARK  status: ('A' for Active; 'I' for Inactive)
REMARK    1  A    between atoms: C_1  and  O_2
REMARK    2  A    between atoms: O_2  and  C_3
REMARK    3  A    between atoms: C_12  and  C_13
REMARK                            x       y       z     vdW  Elec       q    Type
REMARK                         _______ _______ _______ _____ _____    ______ ____
ROOT
ATOM      1  C   UNL     1       2.671   3.412  19.958  0.00  0.00    +0.000 A 
ATOM      2  C   UNL     1       2.889   2.083  19.567  0.00  0.00    +0.000 A 
ATOM      3  C   UNL     1       3.483   1.784  18.346  0.00  0.00    +0.000 A 
ATOM      4  C   UNL     1       3.829   2.816  17.484  0.00  0.00    +0.000 A 
ATOM      5  C   UNL     1       3.642   4.159  17.854  0.00  0.00    +0.000 A 
ATOM      6  C   UNL     1       3.079   4.467  19.122  0.00  0.00    +0.000 A 
ATOM      7  C   UNL     1       3.158   5.908  19.573  0.00  0.00    +0.000 C 
ATOM      8  C   UNL     1       3.190   6.868  18.390  0.00  0.00    +0.000 C 
ATOM      9  O   UNL     1       4.270   6.528  17.527  0.00  0.00    +0.000 OA
ATOM     10  C   UNL     1       4.014   5.272  16.875  0.00  0.00    +0.000 C 
ENDROOT
BRANCH  10  11
ATOM     11  C   UNL     1       5.262   4.942  16.049  0.00  0.00    +0.000 C 
ATOM     12  N   UNL     1       5.179   4.565  14.792  0.00  0.00    +0.000 NA
ATOM     13  C   UNL     1       6.591   4.260  14.422  0.00  0.00    +0.000 C 
ATOM     14  C   UNL     1       7.465   4.925  15.489  0.00  0.00    +0.000 C 
ATOM     15  N   UNL     1       6.531   5.007  16.582  0.00  0.00    +0.000 N 
ATOM     16  H   UNL     1       6.660   5.713  17.301  0.00  0.00    +0.000 HD
ENDBRANCH  10  11
BRANCH   1  18
ATOM     17  C   UNL     1       1.333   2.650  21.782  0.00  0.00    +0.000 C 
ATOM     18  O   UNL     1       2.309   3.553  21.273  0.00  0.00    +0.000 OA
ENDBRANCH   1  18
TORSDOF 2
ENDMDL
MODEL 5
REMARK VINA RESULT:      -5.9      2.746      4.115
REMARK  Name = 
REMARK  3 active torsions:
REMARK  status: ('A' for Active; 'I' for Inactive)
REMARK    1  A    between atoms: C_1  and  O_2
REMARK    2  A    between atoms: O_2  and  C_3
REMARK    3  A    between atoms: C_12  and  C_13
REMARK                            x       y       z     vdW  Elec       q    Type
REMARK                         _______ _______ _______ _____ _____    ______ ____
ROOT
ATOM      1  C   UNL     1       3.817   3.990  17.693  0.00  0.00    +0.000 A 
ATOM      2  C   UNL     1       3.482   4.410  18.988  0.00  0.00    +0.000 A 
ATOM      3  C   UNL     1       4.328   5.243  19.711  0.00  0.00    +0.000 A 
ATOM      4  C   UNL     1       5.541   5.632  19.159  0.00  0.00    +0.000 A 
ATOM      5  C   UNL     1       5.897   5.244  17.855  0.00  0.00    +0.000 A 
ATOM      6  C   UNL     1       5.012   4.432  17.096  0.00  0.00    +0.000 A 
ATOM      7  C   UNL     1       5.317   4.280  15.623  0.00  0.00    +0.000 C 
ATOM      8  C   UNL     1       6.807   4.427  15.338  0.00  0.00    +0.000 C 
ATOM      9  O   UNL     1       7.270   5.675  15.845  0.00  0.00    +0.000 OA
ATOM     10  C   UNL     1       7.248   5.670  17.282  0.00  0.00    +0.000 C 
ENDROOT
BRANCH  10  11
ATOM     11  C   UNL     1       7.667   7.075  17.733  0.00  0.00    +0.000 C 
ATOM     12  N   UNL     1       8.496   7.260  18.737  0.00  0.00    +0.000 NA
ATOM     13  C   UNL     1       8.542   8.743  18.886  0.00  0.00    +0.000 C 
ATOM     14  C   UNL     1       7.982   9.320  17.583  0.00  0.00    +0.000 C 
ATOM     15  N   UNL     1       7.184   8.213  17.124  0.00  0.00    +0.000 N 
ATOM     16  H   UNL     1       6.981   8.117  16.134  0.00  0.00    +0.000 HD
ENDBRANCH  10  11
BRANCH   1  18
ATOM     17  C   UNL     1       2.175   2.258  17.641  0.00  0.00    +0.000 C 
ATOM     18  O   UNL     1       2.787   3.383  17.020  0.00  0.00    +0.000 OA
ENDBRANCH   1  18
TORSDOF 2
ENDMDL
MODEL 6
REMARK VINA RESULT:      -5.9      2.817      4.770
REMARK  Name = 
REMARK  3 active torsions:
REMARK  status: ('A' for Active; 'I' for Inactive)
REMARK    1  A    between atoms: C_1  and  O_2
REMARK    2  A    between atoms: O_2  and  C_3
REMARK    3  A    between atoms: C_12  and  C_13
REMARK                            x       y       z     vdW  Elec       q    Type
REMARK                         _______ _______ _______ _____ _____    ______ ____
ROOT
ATOM      1  C   UNL     1       2.428   3.071  18.888  0.00  0.00    +0.000 A 
ATOM      2  C   UNL     1       1.553   2.804  19.951  0.00  0.00    +0.000 A 
ATOM      3  C   UNL     1       1.137   3.818  20.807  0.00  0.00    +0.000 A 
ATOM      4  C   UNL     1       1.626   5.105  20.631  0.00  0.00    +0.000 A 
ATOM      5  C   UNL     1       2.489   5.409  19.564  0.00  0.00    +0.000 A 
ATOM      6  C   UNL     1       2.877   4.385  18.659  0.00  0.00    +0.000 A 
ATOM      7  C   UNL     1       3.571   4.821  17.389  0.00  0.00    +0.000 C 
ATOM      8  C   UNL     1       4.327   6.130  17.581  0.00  0.00    +0.000 C 
ATOM      9  O   UNL     1       3.436   7.131  18.063  0.00  0.00    +0.000 OA
ATOM     10  C   UNL     1       3.027   6.831  19.408  0.00  0.00    +0.000 C 
ENDROOT
BRANCH  10  11
ATOM     11  C   UNL     1       2.003   7.900  19.806  0.00  0.00    +0.000 C 
ATOM     12  N   UNL     1       1.426   8.671  18.910  0.00  0.00    +0.000 NA
ATOM     13  C   UNL     1       0.601   9.605  19.729  0.00  0.00    +0.000 C 
ATOM     14  C   UNL     1       0.481   8.965  21.114  0.00  0.00    +0.000 C 
ATOM     15  N   UNL     1       1.647   8.121  21.119  0.00  0.00    +0.000 N 
ATOM     16  H   UNL     1       1.670   7.298  21.714  0.00  0.00    +0.000 HD
ENDBRANCH  10  11
BRANCH   1  18
ATOM     17  C   UNL     1       3.752   1.275  18.042  0.00  0.00    +0.000 C 
ATOM     18  O   UNL     1       2.551   2.038  17.995  0.00  0.00    +0.000 OA
ENDBRANCH   1  18
TORSDOF 2
ENDMDL
MODEL 7
REMARK VINA RESULT:      -5.9      2.611      5.451
REMARK  Name = 
REMARK  3 active torsions:
REMARK  status: ('A' for Active; 'I' for Inactive)
REMARK    1  A    between atoms: C_1  and  O_2
REMARK    2  A    between atoms: O_2  and  C_3
REMARK    3  A    between atoms: C_12  and  C_13
REMARK                            x       y       z     vdW  Elec       q    Type
REMARK                         _______ _______ _______ _____ _____    ______ ____
ROOT
ATOM      1  C   UNL     1       6.277   5.896  17.018  0.00  0.00    +0.000 A 
ATOM      2  C   UNL     1       6.986   4.866  17.653  0.00  0.00    +0.000 A 
ATOM      3  C   UNL     1       6.479   4.243  18.788  0.00  0.00    +0.000 A 
ATOM      4  C   UNL     1       5.272   4.673  19.323  0.00  0.00    +0.000 A 
ATOM      5  C   UNL     1       4.528   5.689  18.699  0.00  0.00    +0.000 A 
ATOM      6  C   UNL     1       5.022   6.295  17.512  0.00  0.00    +0.000 A 
ATOM      7  C   UNL     1       4.061   7.173  16.742  0.00  0.00    +0.000 C 
ATOM      8  C   UNL     1       3.014   7.799  17.655  0.00  0.00    +0.000 C 
ATOM      9  O   UNL     1       2.331   6.775  18.371  0.00  0.00    +0.000 OA
ATOM     10  C   UNL     1       3.213   6.155  19.323  0.00  0.00    +0.000 C 
ENDROOT
BRANCH  10  11
ATOM     11  C   UNL     1       2.426   5.012  19.972  0.00  0.00    +0.000 C 
ATOM     12  N   UNL     1       1.654   4.215  19.266  0.00  0.00    +0.000 NA
ATOM     13  C   UNL     1       1.023   3.336  20.292  0.00  0.00    +0.000 C 
ATOM     14  C   UNL     1       1.871   3.481  21.558  0.00  0.00    +0.000 C 
ATOM     15  N   UNL     1       2.472   4.770  21.328  0.00  0.00    +0.000 N 
ATOM     16  H   UNL     1       3.354   5.000  21.776  0.00  0.00    +0.000 HD
ENDBRANCH  10  11
BRANCH   1  18
ATOM     17  C   UNL     1       6.959   5.193  14.842  0.00  0.00    +0.000 C 
ATOM     18  O   UNL     1       6.777   6.240  15.788  0.00  0.00    +0.000 OA
ENDBRANCH   1  18
TORSDOF 2
ENDMDL
MODEL 8
REMARK VINA RESULT:      -5.8      2.690      4.477
REMARK  Name = 
REMARK  3 active torsions:
REMARK  status: ('A' for Active; 'I' for Inactive)
REMARK    1  A    between atoms: C_1  and  O_2
REMARK    2  A    between atoms: O_2  and  C_3
REMARK    3  A    between atoms: C_12  and  C_13
REMARK                            x       y       z     vdW  Elec       q    Type
REMARK                         _______ _______ _______ _____ _____    ______ ____
ROOT
ATOM      1  C   UNL     1       2.434   3.176  18.790  0.00  0.00    +0.000 A 
ATOM      2  C   UNL     1       1.465   3.072  19.798  0.00  0.00    +0.000 A 
ATOM      3  C   UNL     1       1.008   4.199  20.471  0.00  0.00    +0.000 A 
ATOM      4  C   UNL     1       1.548   5.442  20.168  0.00  0.00    +0.000 A 
ATOM      5  C   UNL     1       2.507   5.583  19.150  0.00  0.00    +0.000 A 
ATOM      6  C   UNL     1       2.940   4.438  18.428  0.00  0.00    +0.000 A 
ATOM      7  C   UNL     1       3.752   4.685  17.177  0.00  0.00    +0.000 C 
ATOM      8  C   UNL     1       4.527   5.995  17.258  0.00  0.00    +0.000 C 
ATOM      9  O   UNL     1       3.629   7.067  17.521  0.00  0.00    +0.000 OA
ATOM     10  C   UNL     1       3.098   6.960  18.854  0.00  0.00    +0.000 C 
ENDROOT
BRANCH  10  11
ATOM     11  C   UNL     1       2.076   8.091  19.012  0.00  0.00    +0.000 C 
ATOM     12  N   UNL     1       1.637   8.465  20.195  0.00  0.00    +0.000 NA
ATOM     13  C   UNL     1       0.610   9.500  19.877  0.00  0.00    +0.000 C 
ATOM     14  C   UNL     1       0.867   9.925  18.429  0.00  0.00    +0.000 C 
ATOM     15  N   UNL     1       1.552   8.761  17.928  0.00  0.00    +0.000 N 
ATOM     16  H   UNL     1       2.178   8.850  17.134  0.00  0.00    +0.000 HD
ENDBRANCH  10  11
BRANCH   1  18
ATOM     17  C   UNL     1       3.683   1.176  18.421  0.00  0.00    +0.000 C 
ATOM     18  O   UNL     1       2.602   2.029  18.058  0.00  0.00    +0.000 OA
ENDBRANCH   1  18
TORSDOF 2
ENDMDL
MODEL 9
REMARK VINA RESULT:      -5.8      2.682      4.100
REMARK  Name = 
REMARK  3 active torsions:
REMARK  status: ('A' for Active; 'I' for Inactive)
REMARK    1  A    between atoms: C_1  and  O_2
REMARK    2  A    between atoms: O_2  and  C_3
REMARK    3  A    between atoms: C_12  and  C_13
REMARK                            x       y       z     vdW  Elec       q    Type
REMARK                         _______ _______ _______ _____ _____    ______ ____
ROOT
ATOM      1  C   UNL     1       3.657   3.934  17.779  0.00  0.00    +0.000 A 
ATOM      2  C   UNL     1       3.306   4.469  19.027  0.00  0.00    +0.000 A 
ATOM      3  C   UNL     1       4.166   5.324  19.706  0.00  0.00    +0.000 A 
ATOM      4  C   UNL     1       5.408   5.621  19.160  0.00  0.00    +0.000 A 
ATOM      5  C   UNL     1       5.781   5.116  17.902  0.00  0.00    +0.000 A 
ATOM      6  C   UNL     1       4.884   4.281  17.184  0.00  0.00    +0.000 A 
ATOM      7  C   UNL     1       5.220   3.999  15.737  0.00  0.00    +0.000 C 
ATOM      8  C   UNL     1       6.721   4.065  15.485  0.00  0.00    +0.000 C 
ATOM      9  O   UNL     1       7.222   5.331  15.904  0.00  0.00    +0.000 OA
ATOM     10  C   UNL     1       7.163   5.443  17.336  0.00  0.00    +0.000 C 
ENDROOT
BRANCH  10  11
ATOM     11  C   UNL     1       7.626   6.862  17.686  0.00  0.00    +0.000 C 
ATOM     12  N   UNL     1       7.243   7.907  16.985  0.00  0.00    +0.000 NA
ATOM     13  C   UNL     1       7.994   9.038  17.602  0.00  0.00    +0.000 C 
ATOM     14  C   UNL     1       8.479   8.536  18.965  0.00  0.00    +0.000 C 
ATOM     15  N   UNL     1       8.480   7.114  18.738  0.00  0.00    +0.000 N 
ATOM     16  H   UNL     1       8.391   6.480  19.525  0.00  0.00    +0.000 HD
ENDBRANCH  10  11
BRANCH   1  18
ATOM     17  C   UNL     1       1.503   2.914  17.912  0.00  0.00    +0.000 C 
ATOM     18  O   UNL     1       2.621   3.315  17.127  0.00  0.00    +0.000 OA
ENDBRANCH   1  18
TORSDOF 2
ENDMDL
