MODEL 1
REMARK VINA RESULT:      -8.1      0.000      0.000
REMARK  Name = 
REMARK  4 active torsions:
REMARK  status: ('A' for Active; 'I' for Inactive)
REMARK    1  A    between atoms: C_2  and  C_3
REMARK    2  A    between atoms: C_3  and  N_4
REMARK    3  A    between atoms: N_4  and  C_5
REMARK    4  A    between atoms: C_13  and  C_14
REMARK                            x       y       z     vdW  Elec       q    Type
REMARK                         _______ _______ _______ _____ _____    ______ ____
ROOT
ATOM      1  C   UNL     1       2.362   7.059  20.105  0.00  0.00    +0.000 C 
ATOM      2  C   UNL     1       1.565   5.760  20.402  0.00  0.00    +0.000 C 
ATOM      3  C   UNL     1       1.848   4.598  19.471  0.00  0.00    +0.000 A 
ATOM      4  C   UNL     1       1.315   3.338  19.794  0.00  0.00    +0.000 A 
ATOM      5  C   UNL     1       1.547   2.235  18.970  0.00  0.00    +0.000 A 
ATOM      6  C   UNL     1       2.308   2.375  17.810  0.00  0.00    +0.000 A 
ATOM      7  C   UNL     1       2.838   3.619  17.469  0.00  0.00    +0.000 A 
ATOM      8  C   UNL     1       2.608   4.741  18.286  0.00  0.00    +0.000 A 
ATOM      9  C   UNL     1       3.183   6.073  17.876  0.00  0.00    +0.000 C 
ATOM     10  C   UNL     1       2.466   7.254  18.589  0.00  0.00    +0.000 C 
ENDROOT
BRANCH   9  11
ATOM     11  C   UNL     1       4.701   6.032  18.041  0.00  0.00    +0.000 A 
ATOM     12  C   UNL     1       5.523   6.620  17.059  0.00  0.00    +0.000 A 
ATOM     13  C   UNL     1       6.917   6.583  17.181  0.00  0.00    +0.000 A 
ATOM     14  C   UNL     1       7.510   5.960  18.281  0.00  0.00    +0.000 A 
ATOM     15  C   UNL     1       6.712   5.358  19.253  0.00  0.00    +0.000 A 
ATOM     16  C   UNL     1       5.322   5.383  19.133  0.00  0.00    +0.000 A 
ENDBRANCH   9  11
BRANCH   1  17
ATOM     17  N   UNL     1       1.718   8.229  20.735  0.00  0.00    +0.000 NA
ATOM     18  H   UNL     1       2.404   8.659  21.399  0.00  0.00    +0.000 HD
BRANCH  17  19
ATOM     19  C   UNL     1       0.529   7.850  21.518  0.00  0.00    +0.000 C 
BRANCH  19  21
ATOM     20  C   UNL     1      -0.099   9.532  23.207  0.00  0.00    +0.000 C 
ATOM     21  C   UNL     1      -0.230   9.066  21.962  0.00  0.00    +0.000 C 
ENDBRANCH  19  21
ENDBRANCH  17  19
ENDBRANCH   1  17
TORSDOF 4
ENDMDL
MODEL 2
REMARK VINA RESULT:      -8.0      0.868      1.035
REMARK  Name = 
REMARK  4 active torsions:
REMARK  status: ('A' for Active; 'I' for Inactive)
REMARK    1  A    between atoms: C_2  and  C_3
REMARK    2  A    between atoms: C_3  and  N_4
REMARK    3  A    between atoms: N_4  and  C_5
REMARK    4  A    between atoms: C_13  and  C_14
REMARK                            x       y       z     vdW  Elec       q    Type
REMARK                         _______ _______ _______ _____ _____    ______ ____
ROOT
ATOM      1  C   UNL     1       2.331   6.909  20.200  0.00  0.00    +0.000 C 
ATOM      2  C   UNL     1       1.572   5.578  20.444  0.00  0.00    +0.000 C 
ATOM      3  C   UNL     1       1.878   4.466  19.460  0.00  0.00    +0.000 A 
ATOM      4  C   UNL     1       1.381   3.179  19.730  0.00  0.00    +0.000 A 
ATOM      5  C   UNL     1       1.635   2.121  18.854  0.00  0.00    +0.000 A 
ATOM      6  C   UNL     1       2.381   2.333  17.697  0.00  0.00    +0.000 A 
ATOM      7  C   UNL     1       2.875   3.605  17.408  0.00  0.00    +0.000 A 
ATOM      8  C   UNL     1       2.623   4.683  18.277  0.00  0.00    +0.000 A 
ATOM      9  C   UNL     1       3.158   6.047  17.923  0.00  0.00    +0.000 C 
ATOM     10  C   UNL     1       2.417   7.175  18.694  0.00  0.00    +0.000 C 
ENDROOT
BRANCH   9  11
ATOM     11  C   UNL     1       4.679   6.040  18.075  0.00  0.00    +0.000 A 
ATOM     12  C   UNL     1       5.476   6.693  17.114  0.00  0.00    +0.000 A 
ATOM     13  C   UNL     1       6.872   6.688  17.223  0.00  0.00    +0.000 A 
ATOM     14  C   UNL     1       7.491   6.032  18.290  0.00  0.00    +0.000 A 
ATOM     15  C   UNL     1       6.717   5.366  19.239  0.00  0.00    +0.000 A 
ATOM     16  C   UNL     1       5.327   5.359  19.131  0.00  0.00    +0.000 A 
ENDBRANCH   9  11
BRANCH   1  17
ATOM     17  N   UNL     1       1.663   8.032  20.888  0.00  0.00    +0.000 NA
ATOM     18  H   UNL     1       0.828   7.654  21.394  0.00  0.00    +0.000 HD
BRANCH  17  19
ATOM     19  C   UNL     1       1.176   9.049  19.939  0.00  0.00    +0.000 C 
BRANCH  19  21
ATOM     20  C   UNL     1      -0.798  10.497  19.655  0.00  0.00    +0.000 C 
ATOM     21  C   UNL     1      -0.073   9.705  20.449  0.00  0.00    +0.000 C 
ENDBRANCH  19  21
ENDBRANCH  17  19
ENDBRANCH   1  17
TORSDOF 4
ENDMDL
MODEL 3
REMARK VINA RESULT:      -8.0      1.982      5.151
REMARK  Name = 
REMARK  4 active torsions:
REMARK  status: ('A' for Active; 'I' for Inactive)
REMARK    1  A    between atoms: C_2  and  C_3
REMARK    2  A    between atoms: C_3  and  N_4
REMARK    3  A    between atoms: N_4  and  C_5
REMARK    4  A    between atoms: C_13  and  C_14
REMARK                            x       y       z     vdW  Elec       q    Type
REMARK                         _______ _______ _______ _____ _____    ______ ____
ROOT
ATOM      1  C   UNL     1       3.456   3.817  18.878  0.00  0.00    +0.000 C 
ATOM      2  C   UNL     1       5.001   3.808  19.022  0.00  0.00    +0.000 C 
ATOM      3  C   UNL     1       5.707   5.051  18.517  0.00  0.00    +0.000 A 
ATOM      4  C   UNL     1       7.078   5.198  18.791  0.00  0.00    +0.000 A 
ATOM      5  C   UNL     1       7.775   6.324  18.349  0.00  0.00    +0.000 A 
ATOM      6  C   UNL     1       7.115   7.315  17.623  0.00  0.00    +0.000 A 
ATOM      7  C   UNL     1       5.757   7.183  17.335  0.00  0.00    +0.000 A 
ATOM      8  C   UNL     1       5.043   6.051  17.769  0.00  0.00    +0.000 A 
ATOM      9  C   UNL     1       3.581   5.934  17.423  0.00  0.00    +0.000 C 
ATOM     10  C   UNL     1       3.075   4.469  17.545  0.00  0.00    +0.000 C 
ENDROOT
BRANCH   9  11
ATOM     11  C   UNL     1       2.795   6.967  18.228  0.00  0.00    +0.000 A 
ATOM     12  C   UNL     1       2.376   8.160  17.606  0.00  0.00    +0.000 A 
ATOM     13  C   UNL     1       1.667   9.129  18.328  0.00  0.00    +0.000 A 
ATOM     14  C   UNL     1       1.368   8.922  19.676  0.00  0.00    +0.000 A 
ATOM     15  C   UNL     1       1.790   7.755  20.311  0.00  0.00    +0.000 A 
ATOM     16  C   UNL     1       2.505   6.790  19.600  0.00  0.00    +0.000 A 
ENDBRANCH   9  11
BRANCH   1  17
ATOM     17  N   UNL     1       2.909   2.447  18.960  0.00  0.00    +0.000 NA
ATOM     18  H   UNL     1       3.031   1.992  18.025  0.00  0.00    +0.000 HD
BRANCH  17  19
ATOM     19  C   UNL     1       1.467   2.445  19.263  0.00  0.00    +0.000 C 
BRANCH  19  21
ATOM     20  C   UNL     1       1.446   2.747  21.709  0.00  0.00    +0.000 C 
ATOM     21  C   UNL     1       1.178   3.245  20.498  0.00  0.00    +0.000 C 
ENDBRANCH  19  21
ENDBRANCH  17  19
ENDBRANCH   1  17
TORSDOF 4
ENDMDL
MODEL 4
REMARK VINA RESULT:      -8.0      0.883      1.512
REMARK  Name = 
REMARK  4 active torsions:
REMARK  status: ('A' for Active; 'I' for Inactive)
REMARK    1  A    between atoms: C_2  and  C_3
REMARK    2  A    between atoms: C_3  and  N_4
REMARK    3  A    between atoms: N_4  and  C_5
REMARK    4  A    between atoms: C_13  and  C_14
REMARK                            x       y       z     vdW  Elec       q    Type
REMARK                         _______ _______ _______ _____ _____    ______ ____
ROOT
ATOM      1  C   UNL     1       2.323   6.881  20.189  0.00  0.00    +0.000 C 
ATOM      2  C   UNL     1       1.578   5.543  20.443  0.00  0.00    +0.000 C 
ATOM      3  C   UNL     1       1.885   4.432  19.458  0.00  0.00    +0.000 A 
ATOM      4  C   UNL     1       1.403   3.142  19.735  0.00  0.00    +0.000 A 
ATOM      5  C   UNL     1       1.658   2.084  18.860  0.00  0.00    +0.000 A 
ATOM      6  C   UNL     1       2.393   2.300  17.695  0.00  0.00    +0.000 A 
ATOM      7  C   UNL     1       2.873   3.576  17.399  0.00  0.00    +0.000 A 
ATOM      8  C   UNL     1       2.618   4.653  18.269  0.00  0.00    +0.000 A 
ATOM      9  C   UNL     1       3.138   6.021  17.907  0.00  0.00    +0.000 C 
ATOM     10  C   UNL     1       2.393   7.144  18.682  0.00  0.00    +0.000 C 
ENDROOT
BRANCH   9  11
ATOM     11  C   UNL     1       4.660   6.028  18.046  0.00  0.00    +0.000 A 
ATOM     12  C   UNL     1       5.261   5.355  19.127  0.00  0.00    +0.000 A 
ATOM     13  C   UNL     1       6.652   5.359  19.284  0.00  0.00    +0.000 A 
ATOM     14  C   UNL     1       7.461   6.034  18.367  0.00  0.00    +0.000 A 
ATOM     15  C   UNL     1       6.881   6.720  17.302  0.00  0.00    +0.000 A 
ATOM     16  C   UNL     1       5.495   6.728  17.145  0.00  0.00    +0.000 A 
ENDBRANCH   9  11
BRANCH   1  17
ATOM     17  N   UNL     1       1.650   7.999  20.880  0.00  0.00    +0.000 NA
ATOM     18  H   UNL     1       0.791   7.624  21.348  0.00  0.00    +0.000 HD
BRANCH  17  19
ATOM     19  C   UNL     1       1.214   9.047  19.940  0.00  0.00    +0.000 C 
BRANCH  19  21
ATOM     20  C   UNL     1      -0.846  10.337  19.536  0.00  0.00    +0.000 C 
ATOM     21  C   UNL     1      -0.067   9.679  20.398  0.00  0.00    +0.000 C 
ENDBRANCH  19  21
ENDBRANCH  17  19
ENDBRANCH   1  17
TORSDOF 4
ENDMDL
MODEL 5
REMARK VINA RESULT:      -8.0      1.974      5.235
REMARK  Name = 
REMARK  4 active torsions:
REMARK  status: ('A' for Active; 'I' for Inactive)
REMARK    1  A    between atoms: C_2  and  C_3
REMARK    2  A    between atoms: C_3  and  N_4
REMARK    3  A    between atoms: N_4  and  C_5
REMARK    4  A    between atoms: C_13  and  C_14
REMARK                            x       y       z     vdW  Elec       q    Type
REMARK                         _______ _______ _______ _____ _____    ______ ____
ROOT
ATOM      1  C   UNL     1       3.407   3.890  18.911  0.00  0.00    +0.000 C 
ATOM      2  C   UNL     1       4.950   3.845  19.074  0.00  0.00    +0.000 C 
ATOM      3  C   UNL     1       5.693   5.060  18.556  0.00  0.00    +0.000 A 
ATOM      4  C   UNL     1       7.064   5.178  18.844  0.00  0.00    +0.000 A 
ATOM      5  C   UNL     1       7.794   6.278  18.389  0.00  0.00    +0.000 A 
ATOM      6  C   UNL     1       7.169   7.271  17.637  0.00  0.00    +0.000 A 
ATOM      7  C   UNL     1       5.811   7.167  17.334  0.00  0.00    +0.000 A 
ATOM      8  C   UNL     1       5.064   6.062  17.781  0.00  0.00    +0.000 A 
ATOM      9  C   UNL     1       3.603   5.975  17.419  0.00  0.00    +0.000 C 
ATOM     10  C   UNL     1       3.059   4.526  17.561  0.00  0.00    +0.000 C 
ENDROOT
BRANCH   9  11
ATOM     11  C   UNL     1       2.834   7.043  18.195  0.00  0.00    +0.000 A 
ATOM     12  C   UNL     1       2.510   6.819  19.548  0.00  0.00    +0.000 A 
ATOM     13  C   UNL     1       1.793   7.776  20.277  0.00  0.00    +0.000 A 
ATOM     14  C   UNL     1       1.389   8.966  19.667  0.00  0.00    +0.000 A 
ATOM     15  C   UNL     1       1.686   9.195  18.325  0.00  0.00    +0.000 A 
ATOM     16  C   UNL     1       2.392   8.242  17.591  0.00  0.00    +0.000 A 
ENDBRANCH   9  11
BRANCH   1  17
ATOM     17  N   UNL     1       2.825   2.536  19.011  0.00  0.00    +0.000 NA
ATOM     18  H   UNL     1       2.955   2.057  18.089  0.00  0.00    +0.000 HD
BRANCH  17  19
ATOM     19  C   UNL     1       1.378   2.576  19.284  0.00  0.00    +0.000 C 
BRANCH  19  21
ATOM     20  C   UNL     1       1.447   2.745  21.742  0.00  0.00    +0.000 C 
ATOM     21  C   UNL     1       1.094   3.288  20.573  0.00  0.00    +0.000 C 
ENDBRANCH  19  21
ENDBRANCH  17  19
ENDBRANCH   1  17
TORSDOF 4
ENDMDL
MODEL 6
REMARK VINA RESULT:      -8.0      0.352      1.137
REMARK  Name = 
REMARK  4 active torsions:
REMARK  status: ('A' for Active; 'I' for Inactive)
REMARK    1  A    between atoms: C_2  and  C_3
REMARK    2  A    between atoms: C_3  and  N_4
REMARK    3  A    between atoms: N_4  and  C_5
REMARK    4  A    between atoms: C_13  and  C_14
REMARK                            x       y       z     vdW  Elec       q    Type
REMARK                         _______ _______ _______ _____ _____    ______ ____
ROOT
ATOM      1  C   UNL     1       2.265   7.258  19.841  0.00  0.00    +0.000 C 
ATOM      2  C   UNL     1       1.499   5.996  20.321  0.00  0.00    +0.000 C 
ATOM      3  C   UNL     1       1.825   4.717  19.574  0.00  0.00    +0.000 A 
ATOM      4  C   UNL     1       1.323   3.504  20.076  0.00  0.00    +0.000 A 
ATOM      5  C   UNL     1       1.594   2.298  19.426  0.00  0.00    +0.000 A 
ATOM      6  C   UNL     1       2.365   2.287  18.265  0.00  0.00    +0.000 A 
ATOM      7  C   UNL     1       2.865   3.482  17.747  0.00  0.00    +0.000 A 
ATOM      8  C   UNL     1       2.596   4.705  18.388  0.00  0.00    +0.000 A 
ATOM      9  C   UNL     1       3.139   5.977  17.789  0.00  0.00    +0.000 C 
ATOM     10  C   UNL     1       2.382   7.230  18.314  0.00  0.00    +0.000 C 
ENDROOT
BRANCH   9  11
ATOM     11  C   UNL     1       4.656   6.005  17.972  0.00  0.00    +0.000 A 
ATOM     12  C   UNL     1       5.232   5.379  19.095  0.00  0.00    +0.000 A 
ATOM     13  C   UNL     1       6.618   5.403  19.292  0.00  0.00    +0.000 A 
ATOM     14  C   UNL     1       7.447   6.051  18.373  0.00  0.00    +0.000 A 
ATOM     15  C   UNL     1       6.892   6.690  17.266  0.00  0.00    +0.000 A 
ATOM     16  C   UNL     1       5.511   6.678  17.069  0.00  0.00    +0.000 A 
ENDBRANCH   9  11
BRANCH   1  17
ATOM     17  N   UNL     1       1.582   8.490  20.286  0.00  0.00    +0.000 NA
ATOM     18  H   UNL     1       2.236   9.295  20.140  0.00  0.00    +0.000 HD
BRANCH  17  19
ATOM     19  C   UNL     1       1.252   8.451  21.721  0.00  0.00    +0.000 C 
BRANCH  19  21
ATOM     20  C   UNL     1      -0.433   9.737  22.979  0.00  0.00    +0.000 C 
ATOM     21  C   UNL     1      -0.153   8.919  21.961  0.00  0.00    +0.000 C 
ENDBRANCH  19  21
ENDBRANCH  17  19
ENDBRANCH   1  17
TORSDOF 4
ENDMDL
MODEL 7
REMARK VINA RESULT:      -7.9      2.058      5.052
REMARK  Name = 
REMARK  4 active torsions:
REMARK  status: ('A' for Active; 'I' for Inactive)
REMARK    1  A    between atoms: C_2  and  C_3
REMARK    2  A    between atoms: C_3  and  N_4
REMARK    3  A    between atoms: N_4  and  C_5
REMARK    4  A    between atoms: C_13  and  C_14
REMARK                            x       y       z     vdW  Elec       q    Type
REMARK                         _______ _______ _______ _____ _____    ______ ____
ROOT
ATOM      1  C   UNL     1       4.902   5.073  17.647  0.00  0.00    +0.000 C 
ATOM      2  C   UNL     1       4.151   3.732  17.427  0.00  0.00    +0.000 C 
ATOM      3  C   UNL     1       2.914   3.534  18.281  0.00  0.00    +0.000 A 
ATOM      4  C   UNL     1       2.077   2.440  18.000  0.00  0.00    +0.000 A 
ATOM      5  C   UNL     1       0.926   2.213  18.757  0.00  0.00    +0.000 A 
ATOM      6  C   UNL     1       0.598   3.070  19.807  0.00  0.00    +0.000 A 
ATOM      7  C   UNL     1       1.420   4.155  20.105  0.00  0.00    +0.000 A 
ATOM      8  C   UNL     1       2.587   4.394  19.355  0.00  0.00    +0.000 A 
ATOM      9  C   UNL     1       3.461   5.567  19.719  0.00  0.00    +0.000 C 
ATOM     10  C   UNL     1       4.896   5.418  19.140  0.00  0.00    +0.000 C 
ENDROOT
BRANCH   9  11
ATOM     11  C   UNL     1       2.736   6.861  19.349  0.00  0.00    +0.000 A 
ATOM     12  C   UNL     1       2.902   7.405  18.060  0.00  0.00    +0.000 A 
ATOM     13  C   UNL     1       2.261   8.597  17.702  0.00  0.00    +0.000 A 
ATOM     14  C   UNL     1       1.448   9.262  18.623  0.00  0.00    +0.000 A 
ATOM     15  C   UNL     1       1.287   8.746  19.908  0.00  0.00    +0.000 A 
ATOM     16  C   UNL     1       1.931   7.564  20.274  0.00  0.00    +0.000 A 
ENDBRANCH   9  11
BRANCH   1  17
ATOM     17  N   UNL     1       6.287   4.992  17.140  0.00  0.00    +0.000 NA
ATOM     18  H   UNL     1       6.618   4.004  17.252  0.00  0.00    +0.000 HD
BRANCH  17  19
ATOM     19  C   UNL     1       7.207   5.851  17.906  0.00  0.00    +0.000 C 
BRANCH  19  21
ATOM     20  C   UNL     1       7.924   8.208  17.831  0.00  0.00    +0.000 C 
ATOM     21  C   UNL     1       7.478   7.133  17.175  0.00  0.00    +0.000 C 
ENDBRANCH  19  21
ENDBRANCH  17  19
ENDBRANCH   1  17
TORSDOF 4
ENDMDL
MODEL 8
REMARK VINA RESULT:      -7.9      2.348      5.710
REMARK  Name = 
REMARK  4 active torsions:
REMARK  status: ('A' for Active; 'I' for Inactive)
REMARK    1  A    between atoms: C_2  and  C_3
REMARK    2  A    between atoms: C_3  and  N_4
REMARK    3  A    between atoms: N_4  and  C_5
REMARK    4  A    between atoms: C_13  and  C_14
REMARK                            x       y       z     vdW  Elec       q    Type
REMARK                         _______ _______ _______ _____ _____    ______ ____
ROOT
ATOM      1  C   UNL     1       4.424   5.439  17.170  0.00  0.00    +0.000 C 
ATOM      2  C   UNL     1       3.699   4.070  17.074  0.00  0.00    +0.000 C 
ATOM      3  C   UNL     1       2.656   3.812  18.143  0.00  0.00    +0.000 A 
ATOM      4  C   UNL     1       1.825   2.686  18.007  0.00  0.00    +0.000 A 
ATOM      5  C   UNL     1       0.848   2.403  18.964  0.00  0.00    +0.000 A 
ATOM      6  C   UNL     1       0.691   3.236  20.071  0.00  0.00    +0.000 A 
ATOM      7  C   UNL     1       1.511   4.353  20.227  0.00  0.00    +0.000 A 
ATOM      8  C   UNL     1       2.503   4.648  19.274  0.00  0.00    +0.000 A 
ATOM      9  C   UNL     1       3.383   5.854  19.485  0.00  0.00    +0.000 C 
ATOM     10  C   UNL     1       4.687   5.771  18.642  0.00  0.00    +0.000 C 
ENDROOT
BRANCH   9  11
ATOM     11  C   UNL     1       2.550   7.119  19.280  0.00  0.00    +0.000 A 
ATOM     12  C   UNL     1       2.480   7.704  18.001  0.00  0.00    +0.000 A 
ATOM     13  C   UNL     1       1.736   8.871  17.791  0.00  0.00    +0.000 A 
ATOM     14  C   UNL     1       1.053   9.470  18.852  0.00  0.00    +0.000 A 
ATOM     15  C   UNL     1       1.127   8.913  20.128  0.00  0.00    +0.000 A 
ATOM     16  C   UNL     1       1.874   7.756  20.346  0.00  0.00    +0.000 A 
ENDBRANCH   9  11
BRANCH   1  17
ATOM     17  N   UNL     1       5.689   5.422  16.409  0.00  0.00    +0.000 NA
ATOM     18  H   UNL     1       5.616   6.128  15.638  0.00  0.00    +0.000 HD
BRANCH  17  19
ATOM     19  C   UNL     1       5.937   4.112  15.780  0.00  0.00    +0.000 C 
BRANCH  19  21
ATOM     20  C   UNL     1       6.008   3.748  13.343  0.00  0.00    +0.000 C 
ATOM     21  C   UNL     1       6.574   4.277  14.432  0.00  0.00    +0.000 C 
ENDBRANCH  19  21
ENDBRANCH  17  19
ENDBRANCH   1  17
TORSDOF 4
ENDMDL
MODEL 9
REMARK VINA RESULT:      -7.8      2.295      5.753
REMARK  Name = 
REMARK  4 active torsions:
REMARK  status: ('A' for Active; 'I' for Inactive)
REMARK    1  A    between atoms: C_2  and  C_3
REMARK    2  A    between atoms: C_3  and  N_4
REMARK    3  A    between atoms: N_4  and  C_5
REMARK    4  A    between atoms: C_13  and  C_14
REMARK                            x       y       z     vdW  Elec       q    Type
REMARK                         _______ _______ _______ _____ _____    ______ ____
ROOT
ATOM      1  C   UNL     1       4.434   5.569  17.183  0.00  0.00    +0.000 C 
ATOM      2  C   UNL     1       3.722   4.194  17.071  0.00  0.00    +0.000 C 
ATOM      3  C   UNL     1       2.672   3.919  18.129  0.00  0.00    +0.000 A 
ATOM      4  C   UNL     1       1.853   2.787  17.978  0.00  0.00    +0.000 A 
ATOM      5  C   UNL     1       0.871   2.488  18.926  0.00  0.00    +0.000 A 
ATOM      6  C   UNL     1       0.697   3.311  20.038  0.00  0.00    +0.000 A 
ATOM      7  C   UNL     1       1.506   4.434  20.208  0.00  0.00    +0.000 A 
ATOM      8  C   UNL     1       2.504   4.745  19.266  0.00  0.00    +0.000 A 
ATOM      9  C   UNL     1       3.370   5.957  19.493  0.00  0.00    +0.000 C 
ATOM     10  C   UNL     1       4.682   5.892  18.660  0.00  0.00    +0.000 C 
ENDROOT
BRANCH   9  11
ATOM     11  C   UNL     1       2.528   7.216  19.291  0.00  0.00    +0.000 A 
ATOM     12  C   UNL     1       1.856   7.785  20.391  0.00  0.00    +0.000 A 
ATOM     13  C   UNL     1       1.067   8.930  20.228  0.00  0.00    +0.000 A 
ATOM     14  C   UNL     1       0.936   9.521  18.970  0.00  0.00    +0.000 A 
ATOM     15  C   UNL     1       1.580   8.960  17.868  0.00  0.00    +0.000 A 
ATOM     16  C   UNL     1       2.360   7.813  18.021  0.00  0.00    +0.000 A 
ENDBRANCH   9  11
BRANCH   1  17
ATOM     17  N   UNL     1       5.705   5.569  16.432  0.00  0.00    +0.000 NA
ATOM     18  H   UNL     1       5.557   6.098  15.541  0.00  0.00    +0.000 HD
BRANCH  17  19
ATOM     19  C   UNL     1       6.129   4.206  16.066  0.00  0.00    +0.000 C 
BRANCH  19  21
ATOM     20  C   UNL     1       5.708   3.949  13.651  0.00  0.00    +0.000 C 
ATOM     21  C   UNL     1       6.586   4.152  14.638  0.00  0.00    +0.000 C 
ENDBRANCH  19  21
ENDBRANCH  17  19
ENDBRANCH   1  17
TORSDOF 4
ENDMDL
