MODEL 1
REMARK VINA RESULT:      -8.7      0.000      0.000
REMARK  Name = 
REMARK  7 active torsions:
REMARK  status: ('A' for Active; 'I' for Inactive)
REMARK    1  A    between atoms: C_1  and  O_2
REMARK    2  A    between atoms: O_2  and  C_3
REMARK    3  A    between atoms: C_3  and  C_5
REMARK    4  A    between atoms: C_5  and  C_6
REMARK    5  A    between atoms: C_10  and  C_11
REMARK    6  A    between atoms: C_15  and  N_16
REMARK    7  A    between atoms: C_21  and  C_22
REMARK                            x       y       z     vdW  Elec       q    Type
REMARK                         _______ _______ _______ _____ _____    ______ ____
ROOT
ATOM      1  C   UNL     1       3.100   6.107  17.908  0.00  0.00    +0.000 A 
ATOM      2  C   UNL     1       2.540   4.823  17.963  0.00  0.00    +0.000 A 
ATOM      3  C   UNL     1       3.207   3.717  17.420  0.00  0.00    +0.000 A 
ATOM      4  C   UNL     1       4.451   3.870  16.806  0.00  0.00    +0.000 A 
ATOM      5  C   UNL     1       5.042   5.129  16.718  0.00  0.00    +0.000 A 
ATOM      6  C   UNL     1       4.352   6.218  17.277  0.00  0.00    +0.000 A 
ENDROOT
BRANCH   5   7
ATOM      7  N   UNL     1       6.249   5.307  16.024  0.00  0.00    +0.000 N 
ATOM      8  C   UNL     1       6.523   5.038  14.686  0.00  0.00    +0.000 A 
ATOM      9  N   UNL     1       7.726   5.378  14.208  0.00  0.00    +0.000 NA
ATOM     10  C   UNL     1       7.987   5.051  12.925  0.00  0.00    +0.000 A 
ATOM     11  C   UNL     1       7.116   4.359  12.118  0.00  0.00    +0.000 A 
ATOM     12  C   UNL     1       5.907   4.025  12.685  0.00  0.00    +0.000 A 
ATOM     13  N   UNL     1       5.612   4.386  13.952  0.00  0.00    +0.000 NA
ATOM     14  H   UNL     1       7.097   5.423  16.554  0.00  0.00    +0.000 HD
BRANCH  12  15
ATOM     15  C   UNL     1       4.864   3.221  11.934  0.00  0.00    +0.000 C 
ATOM     16  F   UNL     1       5.297   1.971  11.590  0.00  0.00    +0.000 F 
ATOM     17  F   UNL     1       3.725   3.020  12.657  0.00  0.00    +0.000 F 
ATOM     18  F   UNL     1       4.475   3.807  10.768  0.00  0.00    +0.000 F 
ENDBRANCH  12  15
ENDBRANCH   5   7
BRANCH   1  23
ATOM     19  C   UNL     1       1.109   8.425  20.211  0.00  0.00    +0.000 A 
ATOM     20  C   UNL     1       1.105   9.605  19.466  0.00  0.00    +0.000 A 
ATOM     21  C   UNL     1       1.740   9.656  18.234  0.00  0.00    +0.000 A 
ATOM     22  C   UNL     1       2.405   8.528  17.746  0.00  0.00    +0.000 A 
ATOM     23  C   UNL     1       2.426   7.310  18.457  0.00  0.00    +0.000 A 
ATOM     24  C   UNL     1       1.762   7.287  19.695  0.00  0.00    +0.000 A 
BRANCH  19  25
ATOM     25  C   UNL     1       0.477   8.377  21.582  0.00  0.00    +0.000 C 
BRANCH  25  26
ATOM     26  C   UNL     1       1.103   9.350  22.561  0.00  0.00    +0.000 C 
ATOM     27  O   UNL     1       2.298   9.569  22.704  0.00  0.00    +0.000 OA
BRANCH  26  29
ATOM     28  C   UNL     1      -0.592  10.961  22.563  0.00  0.00    +0.000 C 
ATOM     29  O   UNL     1       0.113   9.954  23.288  0.00  0.00    +0.000 OA
ENDBRANCH  26  29
ENDBRANCH  25  26
ENDBRANCH  19  25
ENDBRANCH   1  23
TORSDOF 6
ENDMDL
MODEL 2
REMARK VINA RESULT:      -8.6      5.034      8.147
REMARK  Name = 
REMARK  7 active torsions:
REMARK  status: ('A' for Active; 'I' for Inactive)
REMARK    1  A    between atoms: C_1  and  O_2
REMARK    2  A    between atoms: O_2  and  C_3
REMARK    3  A    between atoms: C_3  and  C_5
REMARK    4  A    between atoms: C_5  and  C_6
REMARK    5  A    between atoms: C_10  and  C_11
REMARK    6  A    between atoms: C_15  and  N_16
REMARK    7  A    between atoms: C_21  and  C_22
REMARK                            x       y       z     vdW  Elec       q    Type
REMARK                         _______ _______ _______ _____ _____    ______ ____
ROOT
ATOM      1  C   UNL     1       3.231   4.724  18.561  0.00  0.00    +0.000 A 
ATOM      2  C   UNL     1       2.373   3.615  18.578  0.00  0.00    +0.000 A 
ATOM      3  C   UNL     1       1.295   3.547  19.470  0.00  0.00    +0.000 A 
ATOM      4  C   UNL     1       1.050   4.587  20.369  0.00  0.00    +0.000 A 
ATOM      5  C   UNL     1       1.882   5.705  20.395  0.00  0.00    +0.000 A 
ATOM      6  C   UNL     1       2.952   5.747  19.484  0.00  0.00    +0.000 A 
ENDROOT
BRANCH   5   7
ATOM      7  N   UNL     1       1.698   6.713  21.353  0.00  0.00    +0.000 N 
ATOM      8  C   UNL     1       1.286   8.028  21.154  0.00  0.00    +0.000 A 
ATOM      9  N   UNL     1       1.083   8.795  22.232  0.00  0.00    +0.000 NA
ATOM     10  C   UNL     1       0.744  10.082  22.009  0.00  0.00    +0.000 A 
ATOM     11  C   UNL     1       0.645  10.643  20.758  0.00  0.00    +0.000 A 
ATOM     12  C   UNL     1       0.888   9.798  19.699  0.00  0.00    +0.000 A 
ATOM     13  N   UNL     1       1.183   8.497  19.904  0.00  0.00    +0.000 NA
ATOM     14  H   UNL     1       2.111   6.594  22.264  0.00  0.00    +0.000 HD
BRANCH  12  15
ATOM     15  C   UNL     1       0.864  10.285  18.264  0.00  0.00    +0.000 C 
ATOM     16  F   UNL     1       1.916   9.824  17.523  0.00  0.00    +0.000 F 
ATOM     17  F   UNL     1      -0.253   9.891  17.588  0.00  0.00    +0.000 F 
ATOM     18  F   UNL     1       0.911  11.643  18.159  0.00  0.00    +0.000 F 
ENDBRANCH  12  15
ENDBRANCH   5   7
BRANCH   1  23
ATOM     19  C   UNL     1       6.421   5.996  16.871  0.00  0.00    +0.000 A 
ATOM     20  C   UNL     1       6.579   5.054  15.854  0.00  0.00    +0.000 A 
ATOM     21  C   UNL     1       5.670   4.016  15.714  0.00  0.00    +0.000 A 
ATOM     22  C   UNL     1       4.602   3.901  16.607  0.00  0.00    +0.000 A 
ATOM     23  C   UNL     1       4.393   4.835  17.644  0.00  0.00    +0.000 A 
ATOM     24  C   UNL     1       5.324   5.882  17.751  0.00  0.00    +0.000 A 
BRANCH  19  25
ATOM     25  C   UNL     1       7.439   7.092  17.074  0.00  0.00    +0.000 C 
BRANCH  25  26
ATOM     26  C   UNL     1       8.086   7.058  18.445  0.00  0.00    +0.000 C 
ATOM     27  O   UNL     1       8.094   6.112  19.221  0.00  0.00    +0.000 OA
BRANCH  26  29
ATOM     28  C   UNL     1       8.096   9.342  17.940  0.00  0.00    +0.000 C 
ATOM     29  O   UNL     1       8.661   8.274  18.700  0.00  0.00    +0.000 OA
ENDBRANCH  26  29
ENDBRANCH  25  26
ENDBRANCH  19  25
ENDBRANCH   1  23
TORSDOF 6
ENDMDL
MODEL 3
REMARK VINA RESULT:      -8.6      5.381      9.024
REMARK  Name = 
REMARK  7 active torsions:
REMARK  status: ('A' for Active; 'I' for Inactive)
REMARK    1  A    between atoms: C_1  and  O_2
REMARK    2  A    between atoms: O_2  and  C_3
REMARK    3  A    between atoms: C_3  and  C_5
REMARK    4  A    between atoms: C_5  and  C_6
REMARK    5  A    between atoms: C_10  and  C_11
REMARK    6  A    between atoms: C_15  and  N_16
REMARK    7  A    between atoms: C_21  and  C_22
REMARK                            x       y       z     vdW  Elec       q    Type
REMARK                         _______ _______ _______ _____ _____    ______ ____
ROOT
ATOM      1  C   UNL     1       3.455   4.624  18.733  0.00  0.00    +0.000 A 
ATOM      2  C   UNL     1       2.469   3.644  18.549  0.00  0.00    +0.000 A 
ATOM      3  C   UNL     1       1.258   3.694  19.252  0.00  0.00    +0.000 A 
ATOM      4  C   UNL     1       1.005   4.726  20.158  0.00  0.00    +0.000 A 
ATOM      5  C   UNL     1       1.960   5.716  20.381  0.00  0.00    +0.000 A 
ATOM      6  C   UNL     1       3.162   5.642  19.657  0.00  0.00    +0.000 A 
ENDROOT
BRANCH   5   7
ATOM      7  N   UNL     1       1.752   6.705  21.354  0.00  0.00    +0.000 N 
ATOM      8  C   UNL     1       1.308   8.013  21.173  0.00  0.00    +0.000 A 
ATOM      9  N   UNL     1       1.088   8.760  22.262  0.00  0.00    +0.000 NA
ATOM     10  C   UNL     1       0.718  10.041  22.058  0.00  0.00    +0.000 A 
ATOM     11  C   UNL     1       0.605  10.618  20.815  0.00  0.00    +0.000 A 
ATOM     12  C   UNL     1       0.868   9.794  19.744  0.00  0.00    +0.000 A 
ATOM     13  N   UNL     1       1.194   8.497  19.931  0.00  0.00    +0.000 NA
ATOM     14  H   UNL     1       2.168   6.583  22.262  0.00  0.00    +0.000 HD
BRANCH  12  15
ATOM     15  C   UNL     1       0.831  10.301  18.316  0.00  0.00    +0.000 C 
ATOM     16  F   UNL     1       0.104  11.449  18.173  0.00  0.00    +0.000 F 
ATOM     17  F   UNL     1       2.068  10.595  17.825  0.00  0.00    +0.000 F 
ATOM     18  F   UNL     1       0.280   9.409  17.447  0.00  0.00    +0.000 F 
ENDBRANCH  12  15
ENDBRANCH   5   7
BRANCH   1  23
ATOM     19  C   UNL     1       6.106   4.155  16.013  0.00  0.00    +0.000 A 
ATOM     20  C   UNL     1       7.262   4.534  16.697  0.00  0.00    +0.000 A 
ATOM     21  C   UNL     1       7.189   4.942  18.020  0.00  0.00    +0.000 A 
ATOM     22  C   UNL     1       5.952   4.992  18.667  0.00  0.00    +0.000 A 
ATOM     23  C   UNL     1       4.758   4.605  18.022  0.00  0.00    +0.000 A 
ATOM     24  C   UNL     1       4.867   4.185  16.685  0.00  0.00    +0.000 A 
BRANCH  19  25
ATOM     25  C   UNL     1       6.164   3.772  14.554  0.00  0.00    +0.000 C 
BRANCH  25  26
ATOM     26  C   UNL     1       7.075   4.668  13.739  0.00  0.00    +0.000 C 
ATOM     27  O   UNL     1       7.761   5.588  14.165  0.00  0.00    +0.000 OA
BRANCH  26  29
ATOM     28  C   UNL     1       6.074   3.250  12.172  0.00  0.00    +0.000 C 
ATOM     29  O   UNL     1       7.009   4.299  12.423  0.00  0.00    +0.000 OA
ENDBRANCH  26  29
ENDBRANCH  25  26
ENDBRANCH  19  25
ENDBRANCH   1  23
TORSDOF 6
ENDMDL
MODEL 4
REMARK VINA RESULT:      -8.5      5.407      8.646
REMARK  Name = 
REMARK  7 active torsions:
REMARK  status: ('A' for Active; 'I' for Inactive)
REMARK    1  A    between atoms: C_1  and  O_2
REMARK    2  A    between atoms: O_2  and  C_3
REMARK    3  A    between atoms: C_3  and  C_5
REMARK    4  A    between atoms: C_5  and  C_6
REMARK    5  A    between atoms: C_10  and  C_11
REMARK    6  A    between atoms: C_15  and  N_16
REMARK    7  A    between atoms: C_21  and  C_22
REMARK                            x       y       z     vdW  Elec       q    Type
REMARK                         _______ _______ _______ _____ _____    ______ ____
ROOT
ATOM      1  C   UNL     1       2.378   6.597  19.184  0.00  0.00    +0.000 A 
ATOM      2  C   UNL     1       1.864   6.136  20.405  0.00  0.00    +0.000 A 
ATOM      3  C   UNL     1       1.169   6.994  21.268  0.00  0.00    +0.000 A 
ATOM      4  C   UNL     1       0.973   8.334  20.931  0.00  0.00    +0.000 A 
ATOM      5  C   UNL     1       1.475   8.839  19.733  0.00  0.00    +0.000 A 
ATOM      6  C   UNL     1       2.162   7.954  18.885  0.00  0.00    +0.000 A 
ENDROOT
BRANCH   5   7
ATOM      7  N   UNL     1       1.361  10.204  19.427  0.00  0.00    +0.000 N 
ATOM      8  C   UNL     1       0.272  10.877  18.877  0.00  0.00    +0.000 A 
ATOM      9  N   UNL     1       0.349  12.208  18.759  0.00  0.00    +0.000 NA
ATOM     10  C   UNL     1      -0.693  12.828  18.167  0.00  0.00    +0.000 A 
ATOM     11  C   UNL     1      -1.783  12.170  17.648  0.00  0.00    +0.000 A 
ATOM     12  C   UNL     1      -1.781  10.801  17.788  0.00  0.00    +0.000 A 
ATOM     13  N   UNL     1      -0.768  10.170  18.419  0.00  0.00    +0.000 NA
ATOM     14  H   UNL     1       2.200  10.757  19.366  0.00  0.00    +0.000 HD
BRANCH  12  15
ATOM     15  C   UNL     1      -2.891   9.937  17.224  0.00  0.00    +0.000 C 
ATOM     16  F   UNL     1      -2.523   9.261  16.094  0.00  0.00    +0.000 F 
ATOM     17  F   UNL     1      -3.313   8.977  18.096  0.00  0.00    +0.000 F 
ATOM     18  F   UNL     1      -3.999  10.649  16.878  0.00  0.00    +0.000 F 
ENDBRANCH  12  15
ENDBRANCH   5   7
BRANCH   1  23
ATOM     19  C   UNL     1       4.977   5.376  16.655  0.00  0.00    +0.000 A 
ATOM     20  C   UNL     1       4.531   4.075  16.419  0.00  0.00    +0.000 A 
ATOM     21  C   UNL     1       3.406   3.593  17.070  0.00  0.00    +0.000 A 
ATOM     22  C   UNL     1       2.727   4.405  17.982  0.00  0.00    +0.000 A 
ATOM     23  C   UNL     1       3.132   5.731  18.244  0.00  0.00    +0.000 A 
ATOM     24  C   UNL     1       4.268   6.194  17.559  0.00  0.00    +0.000 A 
BRANCH  19  25
ATOM     25  C   UNL     1       6.238   5.890  16.002  0.00  0.00    +0.000 C 
BRANCH  25  26
ATOM     26  C   UNL     1       7.217   6.492  16.990  0.00  0.00    +0.000 C 
ATOM     27  O   UNL     1       7.497   7.678  17.104  0.00  0.00    +0.000 OA
BRANCH  26  29
ATOM     28  C   UNL     1       7.753   5.764  19.146  0.00  0.00    +0.000 C 
ATOM     29  O   UNL     1       7.766   5.491  17.745  0.00  0.00    +0.000 OA
ENDBRANCH  26  29
ENDBRANCH  25  26
ENDBRANCH  19  25
ENDBRANCH   1  23
TORSDOF 6
ENDMDL
MODEL 5
REMARK VINA RESULT:      -8.3      5.469      8.654
REMARK  Name = 
REMARK  7 active torsions:
REMARK  status: ('A' for Active; 'I' for Inactive)
REMARK    1  A    between atoms: C_1  and  O_2
REMARK    2  A    between atoms: O_2  and  C_3
REMARK    3  A    between atoms: C_3  and  C_5
REMARK    4  A    between atoms: C_5  and  C_6
REMARK    5  A    between atoms: C_10  and  C_11
REMARK    6  A    between atoms: C_15  and  N_16
REMARK    7  A    between atoms: C_21  and  C_22
REMARK                            x       y       z     vdW  Elec       q    Type
REMARK                         _______ _______ _______ _____ _____    ______ ____
ROOT
ATOM      1  C   UNL     1       2.406   6.644  19.309  0.00  0.00    +0.000 A 
ATOM      2  C   UNL     1       1.808   6.125  20.466  0.00  0.00    +0.000 A 
ATOM      3  C   UNL     1       1.018   6.931  21.296  0.00  0.00    +0.000 A 
ATOM      4  C   UNL     1       0.809   8.277  20.990  0.00  0.00    +0.000 A 
ATOM      5  C   UNL     1       1.392   8.839  19.856  0.00  0.00    +0.000 A 
ATOM      6  C   UNL     1       2.175   8.005  19.039  0.00  0.00    +0.000 A 
ENDROOT
BRANCH   5   7
ATOM      7  N   UNL     1       1.262  10.210  19.588  0.00  0.00    +0.000 N 
ATOM      8  C   UNL     1       0.187  10.878  19.008  0.00  0.00    +0.000 A 
ATOM      9  N   UNL     1       0.238  12.213  18.936  0.00  0.00    +0.000 NA
ATOM     10  C   UNL     1      -0.788  12.831  18.315  0.00  0.00    +0.000 A 
ATOM     11  C   UNL     1      -1.837  12.167  17.724  0.00  0.00    +0.000 A 
ATOM     12  C   UNL     1      -1.811  10.794  17.820  0.00  0.00    +0.000 A 
ATOM     13  N   UNL     1      -0.815  10.165  18.479  0.00  0.00    +0.000 NA
ATOM     14  H   UNL     1       2.091  10.782  19.585  0.00  0.00    +0.000 HD
BRANCH  12  15
ATOM     15  C   UNL     1      -2.874   9.926  17.177  0.00  0.00    +0.000 C 
ATOM     16  F   UNL     1      -3.964  10.635  16.757  0.00  0.00    +0.000 F 
ATOM     17  F   UNL     1      -2.424   9.267  16.071  0.00  0.00    +0.000 F 
ATOM     18  F   UNL     1      -3.362   8.969  18.015  0.00  0.00    +0.000 F 
ENDBRANCH  12  15
ENDBRANCH   5   7
BRANCH   1  23
ATOM     19  C   UNL     1       5.389   5.448  17.232  0.00  0.00    +0.000 A 
ATOM     20  C   UNL     1       4.863   4.297  16.645  0.00  0.00    +0.000 A 
ATOM     21  C   UNL     1       3.560   3.906  16.917  0.00  0.00    +0.000 A 
ATOM     22  C   UNL     1       2.778   4.656  17.798  0.00  0.00    +0.000 A 
ATOM     23  C   UNL     1       3.262   5.834  18.406  0.00  0.00    +0.000 A 
ATOM     24  C   UNL     1       4.581   6.210  18.100  0.00  0.00    +0.000 A 
BRANCH  19  25
ATOM     25  C   UNL     1       6.826   5.847  16.995  0.00  0.00    +0.000 C 
BRANCH  25  26
ATOM     26  C   UNL     1       7.669   5.812  18.254  0.00  0.00    +0.000 C 
ATOM     27  O   UNL     1       7.901   4.830  18.946  0.00  0.00    +0.000 OA
BRANCH  26  29
ATOM     28  C   UNL     1       7.752   8.037  17.538  0.00  0.00    +0.000 C 
ATOM     29  O   UNL     1       8.134   7.072  18.518  0.00  0.00    +0.000 OA
ENDBRANCH  26  29
ENDBRANCH  25  26
ENDBRANCH  19  25
ENDBRANCH   1  23
TORSDOF 6
ENDMDL
MODEL 6
REMARK VINA RESULT:      -8.3      5.761      9.553
REMARK  Name = 
REMARK  7 active torsions:
REMARK  status: ('A' for Active; 'I' for Inactive)
REMARK    1  A    between atoms: C_1  and  O_2
REMARK    2  A    between atoms: O_2  and  C_3
REMARK    3  A    between atoms: C_3  and  C_5
REMARK    4  A    between atoms: C_5  and  C_6
REMARK    5  A    between atoms: C_10  and  C_11
REMARK    6  A    between atoms: C_15  and  N_16
REMARK    7  A    between atoms: C_21  and  C_22
REMARK                            x       y       z     vdW  Elec       q    Type
REMARK                         _______ _______ _______ _____ _____    ______ ____
ROOT
ATOM      1  C   UNL     1       6.736   4.970  16.002  0.00  0.00    +0.000 A 
ATOM      2  C   UNL     1       7.741   4.615  16.914  0.00  0.00    +0.000 A 
ATOM      3  C   UNL     1       7.576   4.822  18.290  0.00  0.00    +0.000 A 
ATOM      4  C   UNL     1       6.402   5.392  18.786  0.00  0.00    +0.000 A 
ATOM      5  C   UNL     1       5.381   5.770  17.916  0.00  0.00    +0.000 A 
ATOM      6  C   UNL     1       5.572   5.544  16.542  0.00  0.00    +0.000 A 
ENDROOT
BRANCH   5   7
ATOM      7  N   UNL     1       4.236   6.424  18.397  0.00  0.00    +0.000 N 
ATOM      8  C   UNL     1       3.282   5.948  19.292  0.00  0.00    +0.000 A 
ATOM      9  N   UNL     1       2.317   6.786  19.689  0.00  0.00    +0.000 NA
ATOM     10  C   UNL     1       1.371   6.282  20.508  0.00  0.00    +0.000 A 
ATOM     11  C   UNL     1       1.324   4.968  20.909  0.00  0.00    +0.000 A 
ATOM     12  C   UNL     1       2.339   4.162  20.444  0.00  0.00    +0.000 A 
ATOM     13  N   UNL     1       3.318   4.662  19.661  0.00  0.00    +0.000 NA
ATOM     14  H   UNL     1       3.900   7.234  17.902  0.00  0.00    +0.000 HD
BRANCH  12  15
ATOM     15  C   UNL     1       2.394   2.681  20.761  0.00  0.00    +0.000 C 
ATOM     16  F   UNL     1       1.697   1.915  19.870  0.00  0.00    +0.000 F 
ATOM     17  F   UNL     1       3.663   2.182  20.749  0.00  0.00    +0.000 F 
ATOM     18  F   UNL     1       1.879   2.377  21.985  0.00  0.00    +0.000 F 
ENDBRANCH  12  15
ENDBRANCH   5   7
BRANCH   1  23
ATOM     19  C   UNL     1       6.321   3.578  12.461  0.00  0.00    +0.000 A 
ATOM     20  C   UNL     1       7.177   4.413  11.743  0.00  0.00    +0.000 A 
ATOM     21  C   UNL     1       7.879   5.418  12.390  0.00  0.00    +0.000 A 
ATOM     22  C   UNL     1       7.715   5.609  13.764  0.00  0.00    +0.000 A 
ATOM     23  C   UNL     1       6.871   4.782  14.535  0.00  0.00    +0.000 A 
ATOM     24  C   UNL     1       6.183   3.765  13.852  0.00  0.00    +0.000 A 
BRANCH  19  25
ATOM     25  C   UNL     1       5.501   2.523  11.757  0.00  0.00    +0.000 C 
BRANCH  25  26
ATOM     26  C   UNL     1       6.346   1.419  11.152  0.00  0.00    +0.000 C 
ATOM     27  O   UNL     1       7.542   1.474  10.902  0.00  0.00    +0.000 OA
BRANCH  26  29
ATOM     28  C   UNL     1       6.082  -0.888  11.434  0.00  0.00    +0.000 C 
ATOM     29  O   UNL     1       5.553   0.330  10.909  0.00  0.00    +0.000 OA
ENDBRANCH  26  29
ENDBRANCH  25  26
ENDBRANCH  19  25
ENDBRANCH   1  23
TORSDOF 6
ENDMDL
MODEL 7
REMARK VINA RESULT:      -8.2      1.458      2.126
REMARK  Name = 
REMARK  7 active torsions:
REMARK  status: ('A' for Active; 'I' for Inactive)
REMARK    1  A    between atoms: C_1  and  O_2
REMARK    2  A    between atoms: O_2  and  C_3
REMARK    3  A    between atoms: C_3  and  C_5
REMARK    4  A    between atoms: C_5  and  C_6
REMARK    5  A    between atoms: C_10  and  C_11
REMARK    6  A    between atoms: C_15  and  N_16
REMARK    7  A    between atoms: C_21  and  C_22
REMARK                            x       y       z     vdW  Elec       q    Type
REMARK                         _______ _______ _______ _____ _____    ______ ____
ROOT
ATOM      1  C   UNL     1       3.124   5.616  18.083  0.00  0.00    +0.000 A 
ATOM      2  C   UNL     1       2.561   4.335  17.989  0.00  0.00    +0.000 A 
ATOM      3  C   UNL     1       3.218   3.305  17.302  0.00  0.00    +0.000 A 
ATOM      4  C   UNL     1       4.452   3.534  16.691  0.00  0.00    +0.000 A 
ATOM      5  C   UNL     1       5.044   4.794  16.750  0.00  0.00    +0.000 A 
ATOM      6  C   UNL     1       4.365   5.805  17.451  0.00  0.00    +0.000 A 
ENDROOT
BRANCH   5   7
ATOM      7  N   UNL     1       6.240   5.057  16.065  0.00  0.00    +0.000 N 
ATOM      8  C   UNL     1       6.512   4.890  14.709  0.00  0.00    +0.000 A 
ATOM      9  N   UNL     1       7.701   5.299  14.250  0.00  0.00    +0.000 NA
ATOM     10  C   UNL     1       7.962   5.070  12.946  0.00  0.00    +0.000 A 
ATOM     11  C   UNL     1       7.106   4.410  12.096  0.00  0.00    +0.000 A 
ATOM     12  C   UNL     1       5.912   4.001  12.646  0.00  0.00    +0.000 A 
ATOM     13  N   UNL     1       5.616   4.264  13.937  0.00  0.00    +0.000 NA
ATOM     14  H   UNL     1       7.089   5.161  16.597  0.00  0.00    +0.000 HD
BRANCH  12  15
ATOM     15  C   UNL     1       4.889   3.220  11.846  0.00  0.00    +0.000 C 
ATOM     16  F   UNL     1       3.746   2.958  12.547  0.00  0.00    +0.000 F 
ATOM     17  F   UNL     1       4.479   3.875  10.722  0.00  0.00    +0.000 F 
ATOM     18  F   UNL     1       5.348   2.006  11.431  0.00  0.00    +0.000 F 
ENDBRANCH  12  15
ENDBRANCH   5   7
BRANCH   1  23
ATOM     19  C   UNL     1       1.624   9.056  18.837  0.00  0.00    +0.000 A 
ATOM     20  C   UNL     1       1.233   8.893  20.166  0.00  0.00    +0.000 A 
ATOM     21  C   UNL     1       1.447   7.685  20.815  0.00  0.00    +0.000 A 
ATOM     22  C   UNL     1       2.037   6.621  20.129  0.00  0.00    +0.000 A 
ATOM     23  C   UNL     1       2.460   6.742  18.788  0.00  0.00    +0.000 A 
ATOM     24  C   UNL     1       2.242   7.982  18.163  0.00  0.00    +0.000 A 
BRANCH  19  25
ATOM     25  C   UNL     1       1.338  10.343  18.101  0.00  0.00    +0.000 C 
BRANCH  25  26
ATOM     26  C   UNL     1       0.575  11.350  18.939  0.00  0.00    +0.000 C 
ATOM     27  O   UNL     1       1.059  12.175  19.702  0.00  0.00    +0.000 OA
BRANCH  26  29
ATOM     28  C   UNL     1      -1.582  11.809  19.717  0.00  0.00    +0.000 C 
ATOM     29  O   UNL     1      -0.767  11.190  18.722  0.00  0.00    +0.000 OA
ENDBRANCH  26  29
ENDBRANCH  25  26
ENDBRANCH  19  25
ENDBRANCH   1  23
TORSDOF 6
ENDMDL
MODEL 8
REMARK VINA RESULT:      -8.2      6.292      9.905
REMARK  Name = 
REMARK  7 active torsions:
REMARK  status: ('A' for Active; 'I' for Inactive)
REMARK    1  A    between atoms: C_1  and  O_2
REMARK    2  A    between atoms: O_2  and  C_3
REMARK    3  A    between atoms: C_3  and  C_5
REMARK    4  A    between atoms: C_5  and  C_6
REMARK    5  A    between atoms: C_10  and  C_11
REMARK    6  A    between atoms: C_15  and  N_16
REMARK    7  A    between atoms: C_21  and  C_22
REMARK                            x       y       z     vdW  Elec       q    Type
REMARK                         _______ _______ _______ _____ _____    ______ ____
ROOT
ATOM      1  C   UNL     1       2.516   7.166  18.405  0.00  0.00    +0.000 A 
ATOM      2  C   UNL     1       2.477   8.199  17.458  0.00  0.00    +0.000 A 
ATOM      3  C   UNL     1       1.987   9.469  17.790  0.00  0.00    +0.000 A 
ATOM      4  C   UNL     1       1.521   9.735  19.080  0.00  0.00    +0.000 A 
ATOM      5  C   UNL     1       1.531   8.736  20.051  0.00  0.00    +0.000 A 
ATOM      6  C   UNL     1       2.035   7.474  19.690  0.00  0.00    +0.000 A 
ENDROOT
BRANCH   5   7
ATOM      7  N   UNL     1       0.984   8.967  21.322  0.00  0.00    +0.000 N 
ATOM      8  C   UNL     1       0.013   9.897  21.687  0.00  0.00    +0.000 A 
ATOM      9  N   UNL     1      -0.435   9.878  22.948  0.00  0.00    +0.000 NA
ATOM     10  C   UNL     1      -1.329  10.828  23.292  0.00  0.00    +0.000 A 
ATOM     11  C   UNL     1      -1.757  11.822  22.443  0.00  0.00    +0.000 A 
ATOM     12  C   UNL     1      -1.237  11.788  21.169  0.00  0.00    +0.000 A 
ATOM     13  N   UNL     1      -0.376  10.817  20.796  0.00  0.00    +0.000 NA
ATOM     14  H   UNL     1       1.469   8.611  22.129  0.00  0.00    +0.000 HD
BRANCH  12  15
ATOM     15  C   UNL     1      -1.578  12.845  20.137  0.00  0.00    +0.000 C 
ATOM     16  F   UNL     1      -1.900  14.051  20.691  0.00  0.00    +0.000 F 
ATOM     17  F   UNL     1      -0.548  13.105  19.282  0.00  0.00    +0.000 F 
ATOM     18  F   UNL     1      -2.642  12.506  19.356  0.00  0.00    +0.000 F 
ENDBRANCH  12  15
ENDBRANCH   5   7
BRANCH   1  23
ATOM     19  C   UNL     1       4.648   4.297  17.038  0.00  0.00    +0.000 A 
ATOM     20  C   UNL     1       3.922   3.190  17.480  0.00  0.00    +0.000 A 
ATOM     21  C   UNL     1       2.759   3.364  18.215  0.00  0.00    +0.000 A 
ATOM     22  C   UNL     1       2.322   4.652  18.532  0.00  0.00    +0.000 A 
ATOM     23  C   UNL     1       3.014   5.802  18.097  0.00  0.00    +0.000 A 
ATOM     24  C   UNL     1       4.182   5.592  17.343  0.00  0.00    +0.000 A 
BRANCH  19  25
ATOM     25  C   UNL     1       5.949   4.119  16.293  0.00  0.00    +0.000 C 
BRANCH  25  26
ATOM     26  C   UNL     1       7.055   5.022  16.804  0.00  0.00    +0.000 C 
ATOM     27  O   UNL     1       7.508   6.007  16.239  0.00  0.00    +0.000 OA
BRANCH  26  29
ATOM     28  C   UNL     1       7.654   5.577  18.996  0.00  0.00    +0.000 C 
ATOM     29  O   UNL     1       7.493   4.554  18.014  0.00  0.00    +0.000 OA
ENDBRANCH  26  29
ENDBRANCH  25  26
ENDBRANCH  19  25
ENDBRANCH   1  23
TORSDOF 6
ENDMDL
MODEL 9
REMARK VINA RESULT:      -8.1      1.518      2.214
REMARK  Name = 
REMARK  7 active torsions:
REMARK  status: ('A' for Active; 'I' for Inactive)
REMARK    1  A    between atoms: C_1  and  O_2
REMARK    2  A    between atoms: O_2  and  C_3
REMARK    3  A    between atoms: C_3  and  C_5
REMARK    4  A    between atoms: C_5  and  C_6
REMARK    5  A    between atoms: C_10  and  C_11
REMARK    6  A    between atoms: C_15  and  N_16
REMARK    7  A    between atoms: C_21  and  C_22
REMARK                            x       y       z     vdW  Elec       q    Type
REMARK                         _______ _______ _______ _____ _____    ______ ____
ROOT
ATOM      1  C   UNL     1       3.180   5.600  18.074  0.00  0.00    +0.000 A 
ATOM      2  C   UNL     1       2.642   4.307  18.008  0.00  0.00    +0.000 A 
ATOM      3  C   UNL     1       3.312   3.278  17.333  0.00  0.00    +0.000 A 
ATOM      4  C   UNL     1       4.536   3.519  16.706  0.00  0.00    +0.000 A 
ATOM      5  C   UNL     1       5.103   4.791  16.737  0.00  0.00    +0.000 A 
ATOM      6  C   UNL     1       4.411   5.802  17.426  0.00  0.00    +0.000 A 
ENDROOT
BRANCH   5   7
ATOM      7  N   UNL     1       6.287   5.064  16.035  0.00  0.00    +0.000 N 
ATOM      8  C   UNL     1       6.543   4.896  14.676  0.00  0.00    +0.000 A 
ATOM      9  N   UNL     1       7.721   5.317  14.200  0.00  0.00    +0.000 NA
ATOM     10  C   UNL     1       7.967   5.086  12.893  0.00  0.00    +0.000 A 
ATOM     11  C   UNL     1       7.107   4.414  12.057  0.00  0.00    +0.000 A 
ATOM     12  C   UNL     1       5.925   3.994  12.624  0.00  0.00    +0.000 A 
ATOM     13  N   UNL     1       5.644   4.257  13.918  0.00  0.00    +0.000 NA
ATOM     14  H   UNL     1       7.141   5.180  16.555  0.00  0.00    +0.000 HD
BRANCH  12  15
ATOM     15  C   UNL     1       4.900   3.198  11.840  0.00  0.00    +0.000 C 
ATOM     16  F   UNL     1       4.506   3.819  10.688  0.00  0.00    +0.000 F 
ATOM     17  F   UNL     1       5.360   1.975  11.451  0.00  0.00    +0.000 F 
ATOM     18  F   UNL     1       3.754   2.967  12.540  0.00  0.00    +0.000 F 
ENDBRANCH  12  15
ENDBRANCH   5   7
BRANCH   1  23
ATOM     19  C   UNL     1       1.663   9.038  18.797  0.00  0.00    +0.000 A 
ATOM     20  C   UNL     1       1.245   8.875  20.118  0.00  0.00    +0.000 A 
ATOM     21  C   UNL     1       1.445   7.667  20.771  0.00  0.00    +0.000 A 
ATOM     22  C   UNL     1       2.050   6.604  20.097  0.00  0.00    +0.000 A 
ATOM     23  C   UNL     1       2.501   6.725  18.765  0.00  0.00    +0.000 A 
ATOM     24  C   UNL     1       2.295   7.965  18.137  0.00  0.00    +0.000 A 
BRANCH  19  25
ATOM     25  C   UNL     1       1.391  10.326  18.056  0.00  0.00    +0.000 C 
BRANCH  25  26
ATOM     26  C   UNL     1       0.687  11.364  18.906  0.00  0.00    +0.000 C 
ATOM     27  O   UNL     1      -0.522  11.502  19.032  0.00  0.00    +0.000 OA
BRANCH  26  29
ATOM     28  C   UNL     1       1.059  13.236  20.258  0.00  0.00    +0.000 C 
ATOM     29  O   UNL     1       1.623  12.154  19.517  0.00  0.00    +0.000 OA
ENDBRANCH  26  29
ENDBRANCH  25  26
ENDBRANCH  19  25
ENDBRANCH   1  23
TORSDOF 6
ENDMDL
