MODEL 1
REMARK VINA RESULT:      -6.1      0.000      0.000
REMARK  Name = 
REMARK  19 active torsions:
REMARK  status: ('A' for Active; 'I' for Inactive)
REMARK    1  A    between atoms: C_1  and  C_2
REMARK    2  A    between atoms: C_2  and  C_3
REMARK    3  A    between atoms: C_3  and  C_4
REMARK    4  A    between atoms: C_4  and  C_5
REMARK    5  A    between atoms: C_5  and  C_6
REMARK    6  A    between atoms: C_6  and  C_7
REMARK    7  A    between atoms: C_7  and  C_8
REMARK    8  A    between atoms: C_8  and  C_9
REMARK    9  A    between atoms: C_9  and  C_10
REMARK   10  A    between atoms: C_10  and  C_11
REMARK   11  A    between atoms: C_11  and  C_12
REMARK   12  A    between atoms: C_12  and  C_13
REMARK   13  A    between atoms: C_13  and  C_14
REMARK   14  A    between atoms: C_14  and  C_15
REMARK   15  A    between atoms: C_15  and  C_16
REMARK   16  A    between atoms: C_16  and  C_17
REMARK   17  A    between atoms: N_19  and  C_20
REMARK   18  A    between atoms: N_19  and  C_21
REMARK   19  A    between atoms: P_25  and  C_26
REMARK                            x       y       z     vdW  Elec       q    Type
REMARK                         _______ _______ _______ _____ _____    ______ ____
ROOT
ATOM      1  C   UNL     1       2.761   7.963  18.019  0.00  0.00    +0.000 C 
ENDROOT
BRANCH   1   2
ATOM      2  C   UNL     1       2.507   6.471  18.243  0.00  0.00    +0.000 C 
BRANCH   2   3
ATOM      3  C   UNL     1       2.865   6.068  19.667  0.00  0.00    +0.000 C 
BRANCH   3   4
ATOM      4  C   UNL     1       1.617   5.753  20.484  0.00  0.00    +0.000 C 
BRANCH   4   5
ATOM      5  C   UNL     1       1.531   4.255  20.747  0.00  0.00    +0.000 C 
BRANCH   5   6
ATOM      6  C   UNL     1       1.059   3.510  19.508  0.00  0.00    +0.000 C 
BRANCH   6   7
ATOM      7  C   UNL     1       2.136   2.540  19.036  0.00  0.00    +0.000 C 
BRANCH   7   8
ATOM      8  C   UNL     1       2.606   2.895  17.632  0.00  0.00    +0.000 C 
BRANCH   8   9
ATOM      9  C   UNL     1       4.119   3.082  17.602  0.00  0.00    +0.000 C 
BRANCH   9  10
ATOM     10  C   UNL     1       4.546   3.741  16.297  0.00  0.00    +0.000 C 
BRANCH  10  11
ATOM     11  C   UNL     1       5.251   5.066  16.561  0.00  0.00    +0.000 C 
BRANCH  11  12
ATOM     12  C   UNL     1       6.525   4.845  17.373  0.00  0.00    +0.000 C 
BRANCH  12  14
ATOM     13  C   UNL     1       7.886   5.804  19.251  0.00  0.00    +0.000 C 
ATOM     14  C   UNL     1       6.490   5.640  18.673  0.00  0.00    +0.000 C 
ENDBRANCH  12  14
ENDBRANCH  11  12
ENDBRANCH  10  11
ENDBRANCH   9  10
ENDBRANCH   8   9
ENDBRANCH   7   8
ENDBRANCH   6   7
ENDBRANCH   5   6
ENDBRANCH   4   5
ENDBRANCH   3   4
ENDBRANCH   2   3
ENDBRANCH   1   2
BRANCH   1  15
ATOM     15  C   UNL     1       1.450   8.745  18.057  0.00  0.00    +0.000 C 
BRANCH  15  16
ATOM     16  C   UNL     1       1.150   9.313  19.451  0.00  0.00    +0.000 C 
BRANCH  16  17
ATOM     17  C   UNL     1       0.363  10.632  19.351  0.00  0.00    +0.000 C 
ATOM     18  C   UNL     1      -1.018  10.413  18.728  0.00  0.00    +0.000 C 
ATOM     19  N   UNL     1      -1.778  11.737  18.405  0.00  0.00    +0.000 N 
ATOM     20  C   UNL     1      -2.823  12.166  19.453  0.00  0.00    +0.000 C 
ATOM     21  C   UNL     1      -2.661  11.396  17.178  0.00  0.00    +0.000 C 
ATOM     22  C   UNL     1      -0.825  12.869  17.973  0.00  0.00    +0.000 C 
ATOM     23  C   UNL     1      -0.428  13.928  18.997  0.00  0.00    +0.000 C 
ATOM     24  O   UNL     1      -0.627  13.603  20.343  0.00  0.00    +0.000 OA
ATOM     25  P   UNL     1       0.232  12.563  21.193  0.00  0.00    +0.000 P 
ATOM     26  C   UNL     1      -0.818  12.375  22.632  0.00  0.00    +0.000 C 
ATOM     27  O   UNL     1       1.647  12.960  21.433  0.00  0.00    +0.000 OA
ATOM     28  O   UNL     1       0.041  11.082  20.627  0.00  0.00    +0.000 OA
ENDBRANCH  16  17
ENDBRANCH  15  16
ENDBRANCH   1  15
TORSDOF 15
ENDMDL
MODEL 2
REMARK VINA RESULT:      -5.9      4.159      9.698
REMARK  Name = 
REMARK  19 active torsions:
REMARK  status: ('A' for Active; 'I' for Inactive)
REMARK    1  A    between atoms: C_1  and  C_2
REMARK    2  A    between atoms: C_2  and  C_3
REMARK    3  A    between atoms: C_3  and  C_4
REMARK    4  A    between atoms: C_4  and  C_5
REMARK    5  A    between atoms: C_5  and  C_6
REMARK    6  A    between atoms: C_6  and  C_7
REMARK    7  A    between atoms: C_7  and  C_8
REMARK    8  A    between atoms: C_8  and  C_9
REMARK    9  A    between atoms: C_9  and  C_10
REMARK   10  A    between atoms: C_10  and  C_11
REMARK   11  A    between atoms: C_11  and  C_12
REMARK   12  A    between atoms: C_12  and  C_13
REMARK   13  A    between atoms: C_13  and  C_14
REMARK   14  A    between atoms: C_14  and  C_15
REMARK   15  A    between atoms: C_15  and  C_16
REMARK   16  A    between atoms: C_16  and  C_17
REMARK   17  A    between atoms: N_19  and  C_20
REMARK   18  A    between atoms: N_19  and  C_21
REMARK   19  A    between atoms: P_25  and  C_26
REMARK                            x       y       z     vdW  Elec       q    Type
REMARK                         _______ _______ _______ _____ _____    ______ ____
ROOT
ATOM      1  C   UNL     1       2.075   9.091  18.147  0.00  0.00    +0.000 C 
ENDROOT
BRANCH   1   2
ATOM      2  C   UNL     1       0.636   9.402  17.733  0.00  0.00    +0.000 C 
BRANCH   2   3
ATOM      3  C   UNL     1      -0.110  10.114  18.854  0.00  0.00    +0.000 C 
BRANCH   3   4
ATOM      4  C   UNL     1       0.666  10.049  20.164  0.00  0.00    +0.000 C 
BRANCH   4   5
ATOM      5  C   UNL     1      -0.074   9.169  21.163  0.00  0.00    +0.000 C 
BRANCH   5   6
ATOM      6  C   UNL     1       0.254   9.569  22.593  0.00  0.00    +0.000 C 
BRANCH   6   7
ATOM      7  C   UNL     1      -0.967  10.196  23.256  0.00  0.00    +0.000 C 
BRANCH   7   8
ATOM      8  C   UNL     1      -1.007  11.697  23.006  0.00  0.00    +0.000 C 
BRANCH   8   9
ATOM      9  C   UNL     1      -2.229  12.072  22.174  0.00  0.00    +0.000 C 
BRANCH   9  10
ATOM     10  C   UNL     1      -1.813  12.886  20.956  0.00  0.00    +0.000 C 
BRANCH  10  11
ATOM     11  C   UNL     1      -2.852  13.953  20.633  0.00  0.00    +0.000 C 
BRANCH  11  12
ATOM     12  C   UNL     1      -4.147  13.691  21.396  0.00  0.00    +0.000 C 
BRANCH  12  14
ATOM     13  C   UNL     1      -6.277  12.391  21.128  0.00  0.00    +0.000 C 
ATOM     14  C   UNL     1      -5.275  13.305  20.445  0.00  0.00    +0.000 C 
ENDBRANCH  12  14
ENDBRANCH  11  12
ENDBRANCH  10  11
ENDBRANCH   9  10
ENDBRANCH   8   9
ENDBRANCH   7   8
ENDBRANCH   6   7
ENDBRANCH   5   6
ENDBRANCH   4   5
ENDBRANCH   3   4
ENDBRANCH   2   3
ENDBRANCH   1   2
BRANCH   1  15
ATOM     15  C   UNL     1       2.336   7.587  18.104  0.00  0.00    +0.000 C 
BRANCH  15  16
ATOM     16  C   UNL     1       2.518   6.987  19.505  0.00  0.00    +0.000 C 
BRANCH  16  17
ATOM     17  C   UNL     1       2.958   5.514  19.420  0.00  0.00    +0.000 C 
ATOM     18  C   UNL     1       1.887   4.648  18.752  0.00  0.00    +0.000 C 
ATOM     19  N   UNL     1       2.182   3.117  18.827  0.00  0.00    +0.000 N 
ATOM     20  C   UNL     1       2.813   2.508  17.560  0.00  0.00    +0.000 C 
ATOM     21  C   UNL     1       0.784   2.448  18.856  0.00  0.00    +0.000 C 
ATOM     22  C   UNL     1       2.896   2.721  20.135  0.00  0.00    +0.000 C 
ATOM     23  C   UNL     1       4.406   2.508  20.112  0.00  0.00    +0.000 C 
ATOM     24  O   UNL     1       5.100   3.054  19.027  0.00  0.00    +0.000 OA
ATOM     25  P   UNL     1       5.388   4.603  18.783  0.00  0.00    +0.000 P 
ATOM     26  C   UNL     1       5.925   4.568  17.075  0.00  0.00    +0.000 C 
ATOM     27  O   UNL     1       6.306   5.238  19.769  0.00  0.00    +0.000 OA
ATOM     28  O   UNL     1       4.025   5.396  18.534  0.00  0.00    +0.000 OA
ENDBRANCH  16  17
ENDBRANCH  15  16
ENDBRANCH   1  15
TORSDOF 15
ENDMDL
MODEL 3
REMARK VINA RESULT:      -5.9      2.847      4.774
REMARK  Name = 
REMARK  19 active torsions:
REMARK  status: ('A' for Active; 'I' for Inactive)
REMARK    1  A    between atoms: C_1  and  C_2
REMARK    2  A    between atoms: C_2  and  C_3
REMARK    3  A    between atoms: C_3  and  C_4
REMARK    4  A    between atoms: C_4  and  C_5
REMARK    5  A    between atoms: C_5  and  C_6
REMARK    6  A    between atoms: C_6  and  C_7
REMARK    7  A    between atoms: C_7  and  C_8
REMARK    8  A    between atoms: C_8  and  C_9
REMARK    9  A    between atoms: C_9  and  C_10
REMARK   10  A    between atoms: C_10  and  C_11
REMARK   11  A    between atoms: C_11  and  C_12
REMARK   12  A    between atoms: C_12  and  C_13
REMARK   13  A    between atoms: C_13  and  C_14
REMARK   14  A    between atoms: C_14  and  C_15
REMARK   15  A    between atoms: C_15  and  C_16
REMARK   16  A    between atoms: C_16  and  C_17
REMARK   17  A    between atoms: N_19  and  C_20
REMARK   18  A    between atoms: N_19  and  C_21
REMARK   19  A    between atoms: P_25  and  C_26
REMARK                            x       y       z     vdW  Elec       q    Type
REMARK                         _______ _______ _______ _____ _____    ______ ____
ROOT
ATOM      1  C   UNL     1      -0.277   9.589  20.793  0.00  0.00    +0.000 C 
ENDROOT
BRANCH   1   2
ATOM      2  C   UNL     1       1.035   9.061  20.211  0.00  0.00    +0.000 C 
BRANCH   2   3
ATOM      3  C   UNL     1       1.610   7.955  21.086  0.00  0.00    +0.000 C 
BRANCH   3   4
ATOM      4  C   UNL     1       1.871   6.689  20.278  0.00  0.00    +0.000 C 
BRANCH   4   5
ATOM      5  C   UNL     1       2.617   7.034  18.996  0.00  0.00    +0.000 C 
BRANCH   5   6
ATOM      6  C   UNL     1       2.618   5.859  18.030  0.00  0.00    +0.000 C 
BRANCH   6   7
ATOM      7  C   UNL     1       3.976   5.740  17.349  0.00  0.00    +0.000 C 
BRANCH   7   8
ATOM      8  C   UNL     1       4.342   4.279  17.124  0.00  0.00    +0.000 C 
BRANCH   8   9
ATOM      9  C   UNL     1       3.963   3.436  18.336  0.00  0.00    +0.000 C 
BRANCH   9  10
ATOM     10  C   UNL     1       3.166   2.212  17.903  0.00  0.00    +0.000 C 
BRANCH  10  11
ATOM     11  C   UNL     1       2.137   1.829  18.959  0.00  0.00    +0.000 C 
BRANCH  11  12
ATOM     12  C   UNL     1       1.035   2.882  19.043  0.00  0.00    +0.000 C 
BRANCH  12  14
ATOM     13  C   UNL     1       2.007   2.922  21.357  0.00  0.00    +0.000 C 
ATOM     14  C   UNL     1       0.857   3.377  20.474  0.00  0.00    +0.000 C 
ENDBRANCH  12  14
ENDBRANCH  11  12
ENDBRANCH  10  11
ENDBRANCH   9  10
ENDBRANCH   8   9
ENDBRANCH   7   8
ENDBRANCH   6   7
ENDBRANCH   5   6
ENDBRANCH   4   5
ENDBRANCH   3   4
ENDBRANCH   2   3
ENDBRANCH   1   2
BRANCH   1  15
ATOM     15  C   UNL     1      -0.012  10.732  21.771  0.00  0.00    +0.000 C 
BRANCH  15  16
ATOM     16  C   UNL     1      -0.981  10.716  22.962  0.00  0.00    +0.000 C 
BRANCH  16  17
ATOM     17  C   UNL     1      -1.526  12.127  23.246  0.00  0.00    +0.000 C 
ATOM     18  C   UNL     1      -0.783  13.189  22.432  0.00  0.00    +0.000 C 
ATOM     19  N   UNL     1      -1.144  14.654  22.833  0.00  0.00    +0.000 N 
ATOM     20  C   UNL     1      -2.182  15.344  21.927  0.00  0.00    +0.000 C 
ATOM     21  C   UNL     1       0.142  15.470  22.544  0.00  0.00    +0.000 C 
ATOM     22  C   UNL     1      -1.436  14.794  24.340  0.00  0.00    +0.000 C 
ATOM     23  C   UNL     1      -2.888  14.834  24.807  0.00  0.00    +0.000 C 
ATOM     24  O   UNL     1      -3.848  14.355  23.909  0.00  0.00    +0.000 OA
ATOM     25  P   UNL     1      -4.090  12.827  23.522  0.00  0.00    +0.000 P 
ATOM     26  C   UNL     1      -5.139  13.020  22.083  0.00  0.00    +0.000 C 
ATOM     27  O   UNL     1      -4.604  11.970  24.626  0.00  0.00    +0.000 OA
ATOM     28  O   UNL     1      -2.823  12.235  22.753  0.00  0.00    +0.000 OA
ENDBRANCH  16  17
ENDBRANCH  15  16
ENDBRANCH   1  15
TORSDOF 15
ENDMDL
MODEL 4
REMARK VINA RESULT:      -5.8      2.022      3.226
REMARK  Name = 
REMARK  19 active torsions:
REMARK  status: ('A' for Active; 'I' for Inactive)
REMARK    1  A    between atoms: C_1  and  C_2
REMARK    2  A    between atoms: C_2  and  C_3
REMARK    3  A    between atoms: C_3  and  C_4
REMARK    4  A    between atoms: C_4  and  C_5
REMARK    5  A    between atoms: C_5  and  C_6
REMARK    6  A    between atoms: C_6  and  C_7
REMARK    7  A    between atoms: C_7  and  C_8
REMARK    8  A    between atoms: C_8  and  C_9
REMARK    9  A    between atoms: C_9  and  C_10
REMARK   10  A    between atoms: C_10  and  C_11
REMARK   11  A    between atoms: C_11  and  C_12
REMARK   12  A    between atoms: C_12  and  C_13
REMARK   13  A    between atoms: C_13  and  C_14
REMARK   14  A    between atoms: C_14  and  C_15
REMARK   15  A    between atoms: C_15  and  C_16
REMARK   16  A    between atoms: C_16  and  C_17
REMARK   17  A    between atoms: N_19  and  C_20
REMARK   18  A    between atoms: N_19  and  C_21
REMARK   19  A    between atoms: P_25  and  C_26
REMARK                            x       y       z     vdW  Elec       q    Type
REMARK                         _______ _______ _______ _____ _____    ______ ____
ROOT
ATOM      1  C   UNL     1       2.456   7.077  19.599  0.00  0.00    +0.000 C 
ENDROOT
BRANCH   1   2
ATOM      2  C   UNL     1       1.951   5.888  20.417  0.00  0.00    +0.000 C 
BRANCH   2   3
ATOM      3  C   UNL     1       1.373   4.811  19.509  0.00  0.00    +0.000 C 
BRANCH   3   4
ATOM      4  C   UNL     1       1.752   5.051  18.053  0.00  0.00    +0.000 C 
BRANCH   4   5
ATOM      5  C   UNL     1       2.005   3.721  17.354  0.00  0.00    +0.000 C 
BRANCH   5   6
ATOM      6  C   UNL     1       1.751   2.553  18.296  0.00  0.00    +0.000 C 
BRANCH   6   7
ATOM      7  C   UNL     1       3.027   1.740  18.478  0.00  0.00    +0.000 C 
BRANCH   7   8
ATOM      8  C   UNL     1       4.258   2.605  18.242  0.00  0.00    +0.000 C 
BRANCH   8   9
ATOM      9  C   UNL     1       4.729   3.239  19.545  0.00  0.00    +0.000 C 
BRANCH   9  10
ATOM     10  C   UNL     1       5.278   4.637  19.288  0.00  0.00    +0.000 C 
BRANCH  10  11
ATOM     11  C   UNL     1       5.531   4.857  17.801  0.00  0.00    +0.000 C 
BRANCH  11  12
ATOM     12  C   UNL     1       5.339   6.326  17.435  0.00  0.00    +0.000 C 
BRANCH  12  14
ATOM     13  C   UNL     1       5.563   5.290  15.160  0.00  0.00    +0.000 C 
ATOM     14  C   UNL     1       5.055   6.487  15.946  0.00  0.00    +0.000 C 
ENDBRANCH  12  14
ENDBRANCH  11  12
ENDBRANCH  10  11
ENDBRANCH   9  10
ENDBRANCH   8   9
ENDBRANCH   7   8
ENDBRANCH   6   7
ENDBRANCH   5   6
ENDBRANCH   4   5
ENDBRANCH   3   4
ENDBRANCH   2   3
ENDBRANCH   1   2
BRANCH   1  15
ATOM     15  C   UNL     1       1.591   8.310  19.848  0.00  0.00    +0.000 C 
BRANCH  15  16
ATOM     16  C   UNL     1       1.065   8.926  18.543  0.00  0.00    +0.000 C 
BRANCH  16  17
ATOM     17  C   UNL     1       0.141  10.123  18.833  0.00  0.00    +0.000 C 
ATOM     18  C   UNL     1       0.928  11.434  18.898  0.00  0.00    +0.000 C 
ATOM     19  N   UNL     1       0.084  12.648  19.397  0.00  0.00    +0.000 N 
ATOM     20  C   UNL     1      -0.465  13.565  18.286  0.00  0.00    +0.000 C 
ATOM     21  C   UNL     1       1.104  13.570  20.113  0.00  0.00    +0.000 C 
ATOM     22  C   UNL     1      -0.966  12.239  20.448  0.00  0.00    +0.000 C 
ATOM     23  C   UNL     1      -2.414  12.049  20.005  0.00  0.00    +0.000 C 
ATOM     24  O   UNL     1      -2.632  11.873  18.635  0.00  0.00    +0.000 OA
ATOM     25  P   UNL     1      -2.278  10.568  17.790  0.00  0.00    +0.000 P 
ATOM     26  C   UNL     1      -2.445  11.205  16.124  0.00  0.00    +0.000 C 
ATOM     27  O   UNL     1      -3.073   9.357  18.135  0.00  0.00    +0.000 OA
ATOM     28  O   UNL     1      -0.699  10.338  17.745  0.00  0.00    +0.000 OA
ENDBRANCH  16  17
ENDBRANCH  15  16
ENDBRANCH   1  15
TORSDOF 15
ENDMDL
MODEL 5
REMARK VINA RESULT:      -5.8      1.706      2.471
REMARK  Name = 
REMARK  19 active torsions:
REMARK  status: ('A' for Active; 'I' for Inactive)
REMARK    1  A    between atoms: C_1  and  C_2
REMARK    2  A    between atoms: C_2  and  C_3
REMARK    3  A    between atoms: C_3  and  C_4
REMARK    4  A    between atoms: C_4  and  C_5
REMARK    5  A    between atoms: C_5  and  C_6
REMARK    6  A    between atoms: C_6  and  C_7
REMARK    7  A    between atoms: C_7  and  C_8
REMARK    8  A    between atoms: C_8  and  C_9
REMARK    9  A    between atoms: C_9  and  C_10
REMARK   10  A    between atoms: C_10  and  C_11
REMARK   11  A    between atoms: C_11  and  C_12
REMARK   12  A    between atoms: C_12  and  C_13
REMARK   13  A    between atoms: C_13  and  C_14
REMARK   14  A    between atoms: C_14  and  C_15
REMARK   15  A    between atoms: C_15  and  C_16
REMARK   16  A    between atoms: C_16  and  C_17
REMARK   17  A    between atoms: N_19  and  C_20
REMARK   18  A    between atoms: N_19  and  C_21
REMARK   19  A    between atoms: P_25  and  C_26
REMARK                            x       y       z     vdW  Elec       q    Type
REMARK                         _______ _______ _______ _____ _____    ______ ____
ROOT
ATOM      1  C   UNL     1       2.032   8.899  17.824  0.00  0.00    +0.000 C 
ENDROOT
BRANCH   1   2
ATOM      2  C   UNL     1       2.344   7.435  18.136  0.00  0.00    +0.000 C 
BRANCH   2   3
ATOM      3  C   UNL     1       2.239   7.165  19.631  0.00  0.00    +0.000 C 
BRANCH   3   4
ATOM      4  C   UNL     1       2.637   5.732  19.965  0.00  0.00    +0.000 C 
BRANCH   4   5
ATOM      5  C   UNL     1       1.433   4.969  20.503  0.00  0.00    +0.000 C 
BRANCH   5   6
ATOM      6  C   UNL     1       1.448   3.522  20.034  0.00  0.00    +0.000 C 
BRANCH   6   7
ATOM      7  C   UNL     1       1.342   3.462  18.514  0.00  0.00    +0.000 C 
BRANCH   7   8
ATOM      8  C   UNL     1       2.276   2.401  17.949  0.00  0.00    +0.000 C 
BRANCH   8   9
ATOM      9  C   UNL     1       3.715   2.905  17.931  0.00  0.00    +0.000 C 
BRANCH   9  10
ATOM     10  C   UNL     1       3.888   3.981  16.867  0.00  0.00    +0.000 C 
BRANCH  10  11
ATOM     11  C   UNL     1       5.015   4.938  17.237  0.00  0.00    +0.000 C 
BRANCH  11  12
ATOM     12  C   UNL     1       6.067   4.982  16.132  0.00  0.00    +0.000 C 
BRANCH  12  14
ATOM     13  C   UNL     1       6.237   4.065  13.802  0.00  0.00    +0.000 C 
ATOM     14  C   UNL     1       6.004   3.730  15.265  0.00  0.00    +0.000 C 
ENDBRANCH  12  14
ENDBRANCH  11  12
ENDBRANCH  10  11
ENDBRANCH   9  10
ENDBRANCH   8   9
ENDBRANCH   7   8
ENDBRANCH   6   7
ENDBRANCH   5   6
ENDBRANCH   4   5
ENDBRANCH   3   4
ENDBRANCH   2   3
ENDBRANCH   1   2
BRANCH   1  15
ATOM     15  C   UNL     1       1.342   9.568  19.011  0.00  0.00    +0.000 C 
BRANCH  15  16
ATOM     16  C   UNL     1      -0.027  10.152  18.636  0.00  0.00    +0.000 C 
BRANCH  16  17
ATOM     17  C   UNL     1      -0.247  11.517  19.312  0.00  0.00    +0.000 C 
ATOM     18  C   UNL     1      -1.003  11.372  20.635  0.00  0.00    +0.000 C 
ATOM     19  N   UNL     1      -1.442  12.733  21.260  0.00  0.00    +0.000 N 
ATOM     20  C   UNL     1      -0.521  13.270  22.373  0.00  0.00    +0.000 C 
ATOM     21  C   UNL     1      -2.744  12.410  22.035  0.00  0.00    +0.000 C 
ATOM     22  C   UNL     1      -1.805  13.780  20.188  0.00  0.00    +0.000 C 
ATOM     23  C   UNL     1      -0.775  14.845  19.823  0.00  0.00    +0.000 C 
ATOM     24  O   UNL     1       0.551  14.584  20.181  0.00  0.00    +0.000 OA
ATOM     25  P   UNL     1       1.516  13.518  19.491  0.00  0.00    +0.000 P 
ATOM     26  C   UNL     1       2.842  13.455  20.693  0.00  0.00    +0.000 C 
ATOM     27  O   UNL     1       1.891  13.825  18.083  0.00  0.00    +0.000 OA
ATOM     28  O   UNL     1       0.976  12.034  19.729  0.00  0.00    +0.000 OA
ENDBRANCH  16  17
ENDBRANCH  15  16
ENDBRANCH   1  15
TORSDOF 15
ENDMDL
MODEL 6
REMARK VINA RESULT:      -5.7      4.050      9.178
REMARK  Name = 
REMARK  19 active torsions:
REMARK  status: ('A' for Active; 'I' for Inactive)
REMARK    1  A    between atoms: C_1  and  C_2
REMARK    2  A    between atoms: C_2  and  C_3
REMARK    3  A    between atoms: C_3  and  C_4
REMARK    4  A    between atoms: C_4  and  C_5
REMARK    5  A    between atoms: C_5  and  C_6
REMARK    6  A    between atoms: C_6  and  C_7
REMARK    7  A    between atoms: C_7  and  C_8
REMARK    8  A    between atoms: C_8  and  C_9
REMARK    9  A    between atoms: C_9  and  C_10
REMARK   10  A    between atoms: C_10  and  C_11
REMARK   11  A    between atoms: C_11  and  C_12
REMARK   12  A    between atoms: C_12  and  C_13
REMARK   13  A    between atoms: C_13  and  C_14
REMARK   14  A    between atoms: C_14  and  C_15
REMARK   15  A    between atoms: C_15  and  C_16
REMARK   16  A    between atoms: C_16  and  C_17
REMARK   17  A    between atoms: N_19  and  C_20
REMARK   18  A    between atoms: N_19  and  C_21
REMARK   19  A    between atoms: P_25  and  C_26
REMARK                            x       y       z     vdW  Elec       q    Type
REMARK                         _______ _______ _______ _____ _____    ______ ____
ROOT
ATOM      1  C   UNL     1       1.304   8.521  20.822  0.00  0.00    +0.000 C 
ENDROOT
BRANCH   1   2
ATOM      2  C   UNL     1      -0.007   8.393  21.600  0.00  0.00    +0.000 C 
BRANCH   2   3
ATOM      3  C   UNL     1      -0.349   9.700  22.304  0.00  0.00    +0.000 C 
BRANCH   3   4
ATOM      4  C   UNL     1       0.336  10.886  21.636  0.00  0.00    +0.000 C 
BRANCH   4   5
ATOM      5  C   UNL     1      -0.358  12.181  22.037  0.00  0.00    +0.000 C 
BRANCH   5   6
ATOM      6  C   UNL     1      -1.826  11.940  22.354  0.00  0.00    +0.000 C 
BRANCH   6   7
ATOM      7  C   UNL     1      -2.703  12.843  21.496  0.00  0.00    +0.000 C 
BRANCH   7   8
ATOM      8  C   UNL     1      -2.055  13.098  20.142  0.00  0.00    +0.000 C 
BRANCH   8   9
ATOM      9  C   UNL     1      -2.394  11.978  19.164  0.00  0.00    +0.000 C 
BRANCH   9  10
ATOM     10  C   UNL     1      -1.150  11.553  18.393  0.00  0.00    +0.000 C 
BRANCH  10  11
ATOM     11  C   UNL     1      -1.218  10.077  18.020  0.00  0.00    +0.000 C 
BRANCH  11  12
ATOM     12  C   UNL     1      -2.607   9.717  17.500  0.00  0.00    +0.000 C 
BRANCH  12  14
ATOM     13  C   UNL     1      -3.821  10.908  15.654  0.00  0.00    +0.000 C 
ATOM     14  C   UNL     1      -2.703   9.938  15.994  0.00  0.00    +0.000 C 
ENDBRANCH  12  14
ENDBRANCH  11  12
ENDBRANCH  10  11
ENDBRANCH   9  10
ENDBRANCH   8   9
ENDBRANCH   7   8
ENDBRANCH   6   7
ENDBRANCH   5   6
ENDBRANCH   4   5
ENDBRANCH   3   4
ENDBRANCH   2   3
ENDBRANCH   1   2
BRANCH   1  15
ATOM     15  C   UNL     1       1.330   7.547  19.646  0.00  0.00    +0.000 C 
BRANCH  15  16
ATOM     16  C   UNL     1       2.755   7.281  19.141  0.00  0.00    +0.000 C 
BRANCH  16  17
ATOM     17  C   UNL     1       3.091   5.780  19.211  0.00  0.00    +0.000 C 
ATOM     18  C   UNL     1       1.989   4.929  18.576  0.00  0.00    +0.000 C 
ATOM     19  N   UNL     1       2.170   3.396  18.805  0.00  0.00    +0.000 N 
ATOM     20  C   UNL     1       2.806   2.629  17.629  0.00  0.00    +0.000 C 
ATOM     21  C   UNL     1       0.728   2.828  18.829  0.00  0.00    +0.000 C 
ATOM     22  C   UNL     1       2.801   3.078  20.175  0.00  0.00    +0.000 C 
ATOM     23  C   UNL     1       4.292   2.762  20.242  0.00  0.00    +0.000 C 
ATOM     24  O   UNL     1       5.066   3.155  19.145  0.00  0.00    +0.000 OA
ATOM     25  P   UNL     1       5.473   4.652  18.774  0.00  0.00    +0.000 P 
ATOM     26  C   UNL     1       6.075   4.419  17.103  0.00  0.00    +0.000 C 
ATOM     27  O   UNL     1       6.394   5.313  19.740  0.00  0.00    +0.000 OA
ATOM     28  O   UNL     1       4.181   5.508  18.391  0.00  0.00    +0.000 OA
ENDBRANCH  16  17
ENDBRANCH  15  16
ENDBRANCH   1  15
TORSDOF 15
ENDMDL
MODEL 7
REMARK VINA RESULT:      -5.7      5.997      8.012
REMARK  Name = 
REMARK  19 active torsions:
REMARK  status: ('A' for Active; 'I' for Inactive)
REMARK    1  A    between atoms: C_1  and  C_2
REMARK    2  A    between atoms: C_2  and  C_3
REMARK    3  A    between atoms: C_3  and  C_4
REMARK    4  A    between atoms: C_4  and  C_5
REMARK    5  A    between atoms: C_5  and  C_6
REMARK    6  A    between atoms: C_6  and  C_7
REMARK    7  A    between atoms: C_7  and  C_8
REMARK    8  A    between atoms: C_8  and  C_9
REMARK    9  A    between atoms: C_9  and  C_10
REMARK   10  A    between atoms: C_10  and  C_11
REMARK   11  A    between atoms: C_11  and  C_12
REMARK   12  A    between atoms: C_12  and  C_13
REMARK   13  A    between atoms: C_13  and  C_14
REMARK   14  A    between atoms: C_14  and  C_15
REMARK   15  A    between atoms: C_15  and  C_16
REMARK   16  A    between atoms: C_16  and  C_17
REMARK   17  A    between atoms: N_19  and  C_20
REMARK   18  A    between atoms: N_19  and  C_21
REMARK   19  A    between atoms: P_25  and  C_26
REMARK                            x       y       z     vdW  Elec       q    Type
REMARK                         _______ _______ _______ _____ _____    ______ ____
ROOT
ATOM      1  C   UNL     1       8.214   9.882  18.480  0.00  0.00    +0.000 C 
ENDROOT
BRANCH   1   2
ATOM      2  C   UNL     1       8.334   8.698  17.519  0.00  0.00    +0.000 C 
BRANCH   2   3
ATOM      3  C   UNL     1       8.004   7.390  18.227  0.00  0.00    +0.000 C 
BRANCH   3   4
ATOM      4  C   UNL     1       7.243   6.441  17.309  0.00  0.00    +0.000 C 
BRANCH   4   5
ATOM      5  C   UNL     1       5.861   6.158  17.883  0.00  0.00    +0.000 C 
BRANCH   5   6
ATOM      6  C   UNL     1       5.918   5.050  18.924  0.00  0.00    +0.000 C 
BRANCH   6   7
ATOM      7  C   UNL     1       4.694   4.150  18.799  0.00  0.00    +0.000 C 
BRANCH   7   8
ATOM      8  C   UNL     1       4.081   4.260  17.410  0.00  0.00    +0.000 C 
BRANCH   8   9
ATOM      9  C   UNL     1       2.900   3.306  17.266  0.00  0.00    +0.000 C 
BRANCH   9  10
ATOM     10  C   UNL     1       2.872   2.317  18.423  0.00  0.00    +0.000 C 
BRANCH  10  11
ATOM     11  C   UNL     1       1.447   2.097  18.918  0.00  0.00    +0.000 C 
BRANCH  11  12
ATOM     12  C   UNL     1       0.847   3.405  19.427  0.00  0.00    +0.000 C 
BRANCH  12  14
ATOM     13  C   UNL     1       1.782   5.339  20.726  0.00  0.00    +0.000 C 
ATOM     14  C   UNL     1       1.512   3.844  20.727  0.00  0.00    +0.000 C 
ENDBRANCH  12  14
ENDBRANCH  11  12
ENDBRANCH  10  11
ENDBRANCH   9  10
ENDBRANCH   8   9
ENDBRANCH   7   8
ENDBRANCH   6   7
ENDBRANCH   5   6
ENDBRANCH   4   5
ENDBRANCH   3   4
ENDBRANCH   2   3
ENDBRANCH   1   2
BRANCH   1  15
ATOM     15  C   UNL     1       9.589  10.484  18.768  0.00  0.00    +0.000 C 
BRANCH  15  16
ATOM     16  C   UNL     1       9.715  10.982  20.215  0.00  0.00    +0.000 C 
BRANCH  16  17
ATOM     17  C   UNL     1       9.079  12.375  20.374  0.00  0.00    +0.000 C 
ATOM     18  C   UNL     1       9.609  13.093  21.618  0.00  0.00    +0.000 C 
ATOM     19  N   UNL     1       8.849  14.415  21.950  0.00  0.00    +0.000 N 
ATOM     20  C   UNL     1       9.540  15.706  21.471  0.00  0.00    +0.000 C 
ATOM     21  C   UNL     1       8.938  14.544  23.492  0.00  0.00    +0.000 C 
ATOM     22  C   UNL     1       7.352  14.336  21.592  0.00  0.00    +0.000 C 
ATOM     23  C   UNL     1       6.873  14.971  20.290  0.00  0.00    +0.000 C 
ATOM     24  O   UNL     1       7.851  15.236  19.325  0.00  0.00    +0.000 OA
ATOM     25  P   UNL     1       8.606  14.151  18.434  0.00  0.00    +0.000 P 
ATOM     26  C   UNL     1       9.938  15.147  17.771  0.00  0.00    +0.000 C 
ATOM     27  O   UNL     1       7.747  13.429  17.455  0.00  0.00    +0.000 OA
ATOM     28  O   UNL     1       9.514  13.207  19.348  0.00  0.00    +0.000 OA
ENDBRANCH  16  17
ENDBRANCH  15  16
ENDBRANCH   1  15
TORSDOF 15
ENDMDL
MODEL 8
REMARK VINA RESULT:      -5.7      4.141      9.615
REMARK  Name = 
REMARK  19 active torsions:
REMARK  status: ('A' for Active; 'I' for Inactive)
REMARK    1  A    between atoms: C_1  and  C_2
REMARK    2  A    between atoms: C_2  and  C_3
REMARK    3  A    between atoms: C_3  and  C_4
REMARK    4  A    between atoms: C_4  and  C_5
REMARK    5  A    between atoms: C_5  and  C_6
REMARK    6  A    between atoms: C_6  and  C_7
REMARK    7  A    between atoms: C_7  and  C_8
REMARK    8  A    between atoms: C_8  and  C_9
REMARK    9  A    between atoms: C_9  and  C_10
REMARK   10  A    between atoms: C_10  and  C_11
REMARK   11  A    between atoms: C_11  and  C_12
REMARK   12  A    between atoms: C_12  and  C_13
REMARK   13  A    between atoms: C_13  and  C_14
REMARK   14  A    between atoms: C_14  and  C_15
REMARK   15  A    between atoms: C_15  and  C_16
REMARK   16  A    between atoms: C_16  and  C_17
REMARK   17  A    between atoms: N_19  and  C_20
REMARK   18  A    between atoms: N_19  and  C_21
REMARK   19  A    between atoms: P_25  and  C_26
REMARK                            x       y       z     vdW  Elec       q    Type
REMARK                         _______ _______ _______ _____ _____    ______ ____
ROOT
ATOM      1  C   UNL     1       1.762   8.581  21.365  0.00  0.00    +0.000 C 
ENDROOT
BRANCH   1   2
ATOM      2  C   UNL     1       0.583   8.962  22.260  0.00  0.00    +0.000 C 
BRANCH   2   3
ATOM      3  C   UNL     1      -0.658   9.256  21.428  0.00  0.00    +0.000 C 
BRANCH   3   4
ATOM      4  C   UNL     1      -0.434  10.442  20.497  0.00  0.00    +0.000 C 
BRANCH   4   5
ATOM      5  C   UNL     1      -1.211  11.652  21.000  0.00  0.00    +0.000 C 
BRANCH   5   6
ATOM      6  C   UNL     1      -1.960  12.332  19.863  0.00  0.00    +0.000 C 
BRANCH   6   7
ATOM      7  C   UNL     1      -3.042  13.248  20.422  0.00  0.00    +0.000 C 
BRANCH   7   8
ATOM      8  C   UNL     1      -4.362  12.504  20.561  0.00  0.00    +0.000 C 
BRANCH   8   9
ATOM      9  C   UNL     1      -5.178  12.609  19.277  0.00  0.00    +0.000 C 
BRANCH   9  10
ATOM     10  C   UNL     1      -5.380  11.230  18.663  0.00  0.00    +0.000 C 
BRANCH  10  11
ATOM     11  C   UNL     1      -4.500  11.047  17.432  0.00  0.00    +0.000 C 
BRANCH  11  12
ATOM     12  C   UNL     1      -3.497   9.919  17.651  0.00  0.00    +0.000 C 
BRANCH  12  14
ATOM     13  C   UNL     1      -2.835  10.846  15.414  0.00  0.00    +0.000 C 
ATOM     14  C   UNL     1      -2.483   9.859  16.514  0.00  0.00    +0.000 C 
ENDBRANCH  12  14
ENDBRANCH  11  12
ENDBRANCH  10  11
ENDBRANCH   9  10
ENDBRANCH   8   9
ENDBRANCH   7   8
ENDBRANCH   6   7
ENDBRANCH   5   6
ENDBRANCH   4   5
ENDBRANCH   3   4
ENDBRANCH   2   3
ENDBRANCH   1   2
BRANCH   1  15
ATOM     15  C   UNL     1       1.556   7.191  20.765  0.00  0.00    +0.000 C 
BRANCH  15  16
ATOM     16  C   UNL     1       2.452   6.945  19.543  0.00  0.00    +0.000 C 
BRANCH  16  17
ATOM     17  C   UNL     1       2.901   5.474  19.478  0.00  0.00    +0.000 C 
ATOM     18  C   UNL     1       1.835   4.590  18.827  0.00  0.00    +0.000 C 
ATOM     19  N   UNL     1       2.140   3.063  18.923  0.00  0.00    +0.000 N 
ATOM     20  C   UNL     1       2.772   2.440  17.664  0.00  0.00    +0.000 C 
ATOM     21  C   UNL     1       0.747   2.385  18.966  0.00  0.00    +0.000 C 
ATOM     22  C   UNL     1       2.861   2.692  20.235  0.00  0.00    +0.000 C 
ATOM     23  C   UNL     1       4.373   2.489  20.210  0.00  0.00    +0.000 C 
ATOM     24  O   UNL     1       5.059   3.023  19.116  0.00  0.00    +0.000 OA
ATOM     25  P   UNL     1       5.336   4.571  18.848  0.00  0.00    +0.000 P 
ATOM     26  C   UNL     1       5.869   4.514  17.139  0.00  0.00    +0.000 C 
ATOM     27  O   UNL     1       6.252   5.226  19.822  0.00  0.00    +0.000 OA
ATOM     28  O   UNL     1       3.966   5.350  18.592  0.00  0.00    +0.000 OA
ENDBRANCH  16  17
ENDBRANCH  15  16
ENDBRANCH   1  15
TORSDOF 15
ENDMDL
MODEL 9
REMARK VINA RESULT:      -5.6      3.968      9.538
REMARK  Name = 
REMARK  19 active torsions:
REMARK  status: ('A' for Active; 'I' for Inactive)
REMARK    1  A    between atoms: C_1  and  C_2
REMARK    2  A    between atoms: C_2  and  C_3
REMARK    3  A    between atoms: C_3  and  C_4
REMARK    4  A    between atoms: C_4  and  C_5
REMARK    5  A    between atoms: C_5  and  C_6
REMARK    6  A    between atoms: C_6  and  C_7
REMARK    7  A    between atoms: C_7  and  C_8
REMARK    8  A    between atoms: C_8  and  C_9
REMARK    9  A    between atoms: C_9  and  C_10
REMARK   10  A    between atoms: C_10  and  C_11
REMARK   11  A    between atoms: C_11  and  C_12
REMARK   12  A    between atoms: C_12  and  C_13
REMARK   13  A    between atoms: C_13  and  C_14
REMARK   14  A    between atoms: C_14  and  C_15
REMARK   15  A    between atoms: C_15  and  C_16
REMARK   16  A    between atoms: C_16  and  C_17
REMARK   17  A    between atoms: N_19  and  C_20
REMARK   18  A    between atoms: N_19  and  C_21
REMARK   19  A    between atoms: P_25  and  C_26
REMARK                            x       y       z     vdW  Elec       q    Type
REMARK                         _______ _______ _______ _____ _____    ______ ____
ROOT
ATOM      1  C   UNL     1       0.495   8.360  21.332  0.00  0.00    +0.000 C 
ENDROOT
BRANCH   1   2
ATOM      2  C   UNL     1       1.070   9.440  20.415  0.00  0.00    +0.000 C 
BRANCH   2   3
ATOM      3  C   UNL     1       0.650  10.828  20.881  0.00  0.00    +0.000 C 
BRANCH   3   4
ATOM      4  C   UNL     1      -0.688  11.235  20.276  0.00  0.00    +0.000 C 
BRANCH   4   5
ATOM      5  C   UNL     1      -0.461  11.999  18.977  0.00  0.00    +0.000 C 
BRANCH   5   6
ATOM      6  C   UNL     1      -1.493  11.614  17.929  0.00  0.00    +0.000 C 
BRANCH   6   7
ATOM      7  C   UNL     1      -1.875  10.146  18.083  0.00  0.00    +0.000 C 
BRANCH   7   8
ATOM      8  C   UNL     1      -3.298   9.903  17.599  0.00  0.00    +0.000 C 
BRANCH   8   9
ATOM      9  C   UNL     1      -3.739  11.010  16.647  0.00  0.00    +0.000 C 
BRANCH   9  10
ATOM     10  C   UNL     1      -5.127  11.511  17.023  0.00  0.00    +0.000 C 
BRANCH  10  11
ATOM     11  C   UNL     1      -5.387  11.331  18.514  0.00  0.00    +0.000 C 
BRANCH  11  12
ATOM     12  C   UNL     1      -5.251  12.661  19.248  0.00  0.00    +0.000 C 
BRANCH  12  14
ATOM     13  C   UNL     1      -4.223  13.762  21.256  0.00  0.00    +0.000 C 
ATOM     14  C   UNL     1      -4.123  12.609  20.273  0.00  0.00    +0.000 C 
ENDBRANCH  12  14
ENDBRANCH  11  12
ENDBRANCH  10  11
ENDBRANCH   9  10
ENDBRANCH   8   9
ENDBRANCH   7   8
ENDBRANCH   6   7
ENDBRANCH   5   6
ENDBRANCH   4   5
ENDBRANCH   3   4
ENDBRANCH   2   3
ENDBRANCH   1   2
BRANCH   1  15
ATOM     15  C   UNL     1       0.961   6.974  20.891  0.00  0.00    +0.000 C 
BRANCH  15  16
ATOM     16  C   UNL     1       2.197   7.036  19.983  0.00  0.00    +0.000 C 
BRANCH  16  17
ATOM     17  C   UNL     1       2.727   5.623  19.678  0.00  0.00    +0.000 C 
ATOM     18  C   UNL     1       1.656   4.754  19.015  0.00  0.00    +0.000 C 
ATOM     19  N   UNL     1       2.062   3.254  18.876  0.00  0.00    +0.000 N 
ATOM     20  C   UNL     1       2.598   2.847  17.490  0.00  0.00    +0.000 C 
ATOM     21  C   UNL     1       0.725   2.474  18.956  0.00  0.00    +0.000 C 
ATOM     22  C   UNL     1       2.934   2.772  20.051  0.00  0.00    +0.000 C 
ATOM     23  C   UNL     1       4.446   2.686  19.859  0.00  0.00    +0.000 C 
ATOM     24  O   UNL     1       4.983   3.407  18.787  0.00  0.00    +0.000 OA
ATOM     25  P   UNL     1       5.135   4.992  18.707  0.00  0.00    +0.000 P 
ATOM     26  C   UNL     1       5.493   5.195  16.964  0.00  0.00    +0.000 C 
ATOM     27  O   UNL     1       6.104   5.583  19.671  0.00  0.00    +0.000 OA
ATOM     28  O   UNL     1       3.701   5.694  18.687  0.00  0.00    +0.000 OA
ENDBRANCH  16  17
ENDBRANCH  15  16
ENDBRANCH   1  15
TORSDOF 15
ENDMDL
