MODEL 1
REMARK VINA RESULT:      -7.9      0.000      0.000
REMARK  Name = 
REMARK  1 active torsions:
REMARK  status: ('A' for Active; 'I' for Inactive)
REMARK    1  A    between atoms: C_2  and  C_3
REMARK                            x       y       z     vdW  Elec       q    Type
REMARK                         _______ _______ _______ _____ _____    ______ ____
ROOT
ATOM      1  O   UNL     1       8.144   4.777  13.950  0.00  0.00    +0.000 OA
ATOM      2  C   UNL     1       6.929   4.676  14.113  0.00  0.00    +0.000 C 
ATOM      3  N   UNL     1       6.255   5.259  15.196  0.00  0.00    +0.000 N 
ATOM      4  C   UNL     1       4.824   5.125  15.457  0.00  0.00    +0.000 C 
ATOM      5  C   UNL     1       4.535   4.878  16.919  0.00  0.00    +0.000 C 
ATOM      6  C   UNL     1       5.110   5.986  17.821  0.00  0.00    +0.000 C 
ATOM      7  C   UNL     1       4.468   7.371  17.556  0.00  0.00    +0.000 C 
ATOM      8  C   UNL     1       2.963   7.355  17.816  0.00  0.00    +0.000 C 
ATOM      9  C   UNL     1       2.645   6.862  19.224  0.00  0.00    +0.000 C 
ATOM     10  N   UNL     1       3.384   5.645  19.560  0.00  0.00    +0.000 N 
ATOM     11  C   UNL     1       2.674   4.511  19.913  0.00  0.00    +0.000 A 
ATOM     12  C   UNL     1       3.225   3.545  20.759  0.00  0.00    +0.000 A 
ATOM     13  C   UNL     1       2.481   2.424  21.135  0.00  0.00    +0.000 A 
ATOM     14  C   UNL     1       1.199   2.268  20.642  0.00  0.00    +0.000 A 
ATOM     15  C   UNL     1       0.714   3.256  19.809  0.00  0.00    +0.000 A 
ATOM     16  N   UNL     1       1.416   4.360  19.448  0.00  0.00    +0.000 NA
ATOM     17  C   UNL     1       4.824   5.605  19.295  0.00  0.00    +0.000 C 
ATOM     18  C   UNL     1       6.635   6.035  17.545  0.00  0.00    +0.000 C 
ATOM     19  C   UNL     1       6.975   6.208  16.054  0.00  0.00    +0.000 C 
ENDROOT
BRANCH   2  20
ATOM     20  C   UNL     1       6.174   3.841  13.133  0.00  0.00    +0.000 A 
ATOM     21  C   UNL     1       4.856   4.203  12.818  0.00  0.00    +0.000 A 
ATOM     22  C   UNL     1       4.167   3.530  11.804  0.00  0.00    +0.000 A 
ATOM     23  C   UNL     1       4.800   2.513  11.090  0.00  0.00    +0.000 A 
ATOM     24  C   UNL     1       6.084   2.124  11.450  0.00  0.00    +0.000 A 
ATOM     25  F   UNL     1       6.708   1.170  10.746  0.00  0.00    +0.000 F 
ATOM     26  C   UNL     1       6.750   2.734  12.503  0.00  0.00    +0.000 A 
ENDBRANCH   2  20
TORSDOF 1
ENDMDL
MODEL 2
REMARK VINA RESULT:      -7.5      4.530      8.172
REMARK  Name = 
REMARK  1 active torsions:
REMARK  status: ('A' for Active; 'I' for Inactive)
REMARK    1  A    between atoms: C_2  and  C_3
REMARK                            x       y       z     vdW  Elec       q    Type
REMARK                         _______ _______ _______ _____ _____    ______ ____
ROOT
ATOM      1  O   UNL     1       0.889   9.147  21.926  0.00  0.00    +0.000 OA
ATOM      2  C   UNL     1       1.028   8.910  20.727  0.00  0.00    +0.000 C 
ATOM      3  N   UNL     1       1.353   7.636  20.236  0.00  0.00    +0.000 N 
ATOM      4  C   UNL     1       1.577   7.318  18.828  0.00  0.00    +0.000 C 
ATOM      5  C   UNL     1       2.772   6.415  18.634  0.00  0.00    +0.000 C 
ATOM      6  C   UNL     1       2.646   5.104  19.432  0.00  0.00    +0.000 C 
ATOM      7  C   UNL     1       1.454   4.229  18.970  0.00  0.00    +0.000 C 
ATOM      8  C   UNL     1       1.591   3.818  17.505  0.00  0.00    +0.000 C 
ATOM      9  C   UNL     1       2.920   3.118  17.243  0.00  0.00    +0.000 C 
ATOM     10  N   UNL     1       4.048   3.842  17.831  0.00  0.00    +0.000 N 
ATOM     11  C   UNL     1       5.072   4.266  17.003  0.00  0.00    +0.000 A 
ATOM     12  C   UNL     1       6.373   4.427  17.484  0.00  0.00    +0.000 A 
ATOM     13  C   UNL     1       7.403   4.821  16.627  0.00  0.00    +0.000 A 
ATOM     14  C   UNL     1       7.116   5.071  15.298  0.00  0.00    +0.000 A 
ATOM     15  C   UNL     1       5.810   4.897  14.886  0.00  0.00    +0.000 A 
ATOM     16  N   UNL     1       4.802   4.498  15.701  0.00  0.00    +0.000 NA
ATOM     17  C   UNL     1       3.944   4.285  19.223  0.00  0.00    +0.000 C 
ATOM     18  C   UNL     1       2.476   5.506  20.920  0.00  0.00    +0.000 C 
ATOM     19  C   UNL     1       1.315   6.490  21.152  0.00  0.00    +0.000 C 
ENDROOT
BRANCH   2  20
ATOM     20  C   UNL     1       0.899  10.057  19.782  0.00  0.00    +0.000 A 
ATOM     21  C   UNL     1      -0.385  10.514  19.452  0.00  0.00    +0.000 A 
ATOM     22  C   UNL     1      -0.542  11.671  18.683  0.00  0.00    +0.000 A 
ATOM     23  C   UNL     1       0.581  12.385  18.263  0.00  0.00    +0.000 A 
ATOM     24  C   UNL     1       1.848  11.891  18.545  0.00  0.00    +0.000 A 
ATOM     25  F   UNL     1       2.928  12.589  18.172  0.00  0.00    +0.000 F 
ATOM     26  C   UNL     1       2.016  10.704  19.244  0.00  0.00    +0.000 A 
ENDBRANCH   2  20
TORSDOF 1
ENDMDL
MODEL 3
REMARK VINA RESULT:      -7.4      0.902      1.297
REMARK  Name = 
REMARK  1 active torsions:
REMARK  status: ('A' for Active; 'I' for Inactive)
REMARK    1  A    between atoms: C_2  and  C_3
REMARK                            x       y       z     vdW  Elec       q    Type
REMARK                         _______ _______ _______ _____ _____    ______ ____
ROOT
ATOM      1  O   UNL     1       8.431   4.996  13.915  0.00  0.00    +0.000 OA
ATOM      2  C   UNL     1       7.214   4.851  14.016  0.00  0.00    +0.000 C 
ATOM      3  N   UNL     1       6.470   5.378  15.083  0.00  0.00    +0.000 N 
ATOM      4  C   UNL     1       5.033   5.190  15.269  0.00  0.00    +0.000 C 
ATOM      5  C   UNL     1       4.684   4.886  16.707  0.00  0.00    +0.000 C 
ATOM      6  C   UNL     1       5.177   5.982  17.670  0.00  0.00    +0.000 C 
ATOM      7  C   UNL     1       4.504   7.354  17.417  0.00  0.00    +0.000 C 
ATOM      8  C   UNL     1       2.989   7.281  17.603  0.00  0.00    +0.000 C 
ATOM      9  C   UNL     1       2.621   6.734  18.978  0.00  0.00    +0.000 C 
ATOM     10  N   UNL     1       3.383   5.530  19.312  0.00  0.00    +0.000 N 
ATOM     11  C   UNL     1       2.695   4.364  19.595  0.00  0.00    +0.000 A 
ATOM     12  C   UNL     1       3.236   3.389  20.436  0.00  0.00    +0.000 A 
ATOM     13  C   UNL     1       2.513   2.233  20.741  0.00  0.00    +0.000 A 
ATOM     14  C   UNL     1       1.262   2.053  20.182  0.00  0.00    +0.000 A 
ATOM     15  C   UNL     1       0.785   3.051  19.356  0.00  0.00    +0.000 A 
ATOM     16  N   UNL     1       1.466   4.188  19.064  0.00  0.00    +0.000 NA
ATOM     17  C   UNL     1       4.834   5.545  19.116  0.00  0.00    +0.000 C 
ATOM     18  C   UNL     1       6.711   6.089  17.470  0.00  0.00    +0.000 C 
ATOM     19  C   UNL     1       7.116   6.320  16.003  0.00  0.00    +0.000 C 
ENDROOT
BRANCH   2  20
ATOM     20  C   UNL     1       6.534   4.025  12.976  0.00  0.00    +0.000 A 
ATOM     21  C   UNL     1       7.303   3.122  12.228  0.00  0.00    +0.000 A 
ATOM     22  C   UNL     1       6.682   2.233  11.344  0.00  0.00    +0.000 A 
ATOM     23  C   UNL     1       5.292   2.232  11.224  0.00  0.00    +0.000 A 
ATOM     24  C   UNL     1       4.545   3.170  11.925  0.00  0.00    +0.000 A 
ATOM     25  F   UNL     1       3.208   3.151  11.838  0.00  0.00    +0.000 F 
ATOM     26  C   UNL     1       5.158   4.105  12.748  0.00  0.00    +0.000 A 
ENDBRANCH   2  20
TORSDOF 1
ENDMDL
MODEL 4
REMARK VINA RESULT:      -7.2      5.405      7.840
REMARK  Name = 
REMARK  1 active torsions:
REMARK  status: ('A' for Active; 'I' for Inactive)
REMARK    1  A    between atoms: C_2  and  C_3
REMARK                            x       y       z     vdW  Elec       q    Type
REMARK                         _______ _______ _______ _____ _____    ______ ____
ROOT
ATOM      1  O   UNL     1       2.504   5.713  21.264  0.00  0.00    +0.000 OA
ATOM      2  C   UNL     1       2.381   6.352  20.220  0.00  0.00    +0.000 C 
ATOM      3  N   UNL     1       1.830   7.641  20.177  0.00  0.00    +0.000 N 
ATOM      4  C   UNL     1       1.618   8.417  18.957  0.00  0.00    +0.000 C 
ATOM      5  C   UNL     1       0.277   9.111  18.952  0.00  0.00    +0.000 C 
ATOM      6  C   UNL     1       0.094  10.033  20.173  0.00  0.00    +0.000 C 
ATOM      7  C   UNL     1       1.107  11.205  20.199  0.00  0.00    +0.000 C 
ATOM      8  C   UNL     1       0.964  12.101  18.969  0.00  0.00    +0.000 C 
ATOM      9  C   UNL     1      -0.465  12.612  18.814  0.00  0.00    +0.000 C 
ATOM     10  N   UNL     1      -1.451  11.541  18.965  0.00  0.00    +0.000 N 
ATOM     11  C   UNL     1      -2.324  11.288  17.923  0.00  0.00    +0.000 A 
ATOM     12  C   UNL     1      -3.589  10.742  18.154  0.00  0.00    +0.000 A 
ATOM     13  C   UNL     1      -4.473  10.526  17.094  0.00  0.00    +0.000 A 
ATOM     14  C   UNL     1      -4.074  10.839  15.808  0.00  0.00    +0.000 A 
ATOM     15  C   UNL     1      -2.812  11.373  15.646  0.00  0.00    +0.000 A 
ATOM     16  N   UNL     1      -1.947  11.605  16.666  0.00  0.00    +0.000 NA
ATOM     17  C   UNL     1      -1.331  10.637  20.112  0.00  0.00    +0.000 C 
ATOM     18  C   UNL     1       0.267   9.142  21.430  0.00  0.00    +0.000 C 
ATOM     19  C   UNL     1       1.589   8.354  21.437  0.00  0.00    +0.000 C 
ENDROOT
BRANCH   2  20
ATOM     20  C   UNL     1       2.787   5.677  18.953  0.00  0.00    +0.000 A 
ATOM     21  C   UNL     1       3.853   6.215  18.218  0.00  0.00    +0.000 A 
ATOM     22  C   UNL     1       4.352   5.533  17.103  0.00  0.00    +0.000 A 
ATOM     23  C   UNL     1       3.802   4.305  16.736  0.00  0.00    +0.000 A 
ATOM     24  C   UNL     1       2.708   3.811  17.435  0.00  0.00    +0.000 A 
ATOM     25  F   UNL     1       2.196   2.617  17.107  0.00  0.00    +0.000 F 
ATOM     26  C   UNL     1       2.158   4.515  18.497  0.00  0.00    +0.000 A 
ENDBRANCH   2  20
TORSDOF 1
ENDMDL
MODEL 5
REMARK VINA RESULT:      -7.2      9.236     11.939
REMARK  Name = 
REMARK  1 active torsions:
REMARK  status: ('A' for Active; 'I' for Inactive)
REMARK    1  A    between atoms: C_2  and  C_3
REMARK                            x       y       z     vdW  Elec       q    Type
REMARK                         _______ _______ _______ _____ _____    ______ ____
ROOT
ATOM      1  O   UNL     1      -1.349  12.456  19.256  0.00  0.00    +0.000 OA
ATOM      2  C   UNL     1      -0.352  12.533  19.973  0.00  0.00    +0.000 C 
ATOM      3  N   UNL     1       0.587  13.569  19.864  0.00  0.00    +0.000 N 
ATOM      4  C   UNL     1       1.809  13.673  20.658  0.00  0.00    +0.000 C 
ATOM      5  C   UNL     1       2.996  14.085  19.820  0.00  0.00    +0.000 C 
ATOM      6  C   UNL     1       2.756  15.418  19.087  0.00  0.00    +0.000 C 
ATOM      7  C   UNL     1       2.567  16.613  20.055  0.00  0.00    +0.000 C 
ATOM      8  C   UNL     1       3.800  16.830  20.931  0.00  0.00    +0.000 C 
ATOM      9  C   UNL     1       5.060  16.999  20.089  0.00  0.00    +0.000 C 
ATOM     10  N   UNL     1       5.166  15.979  19.046  0.00  0.00    +0.000 N 
ATOM     11  C   UNL     1       6.280  15.159  19.027  0.00  0.00    +0.000 A 
ATOM     12  C   UNL     1       6.745  14.595  17.837  0.00  0.00    +0.000 A 
ATOM     13  C   UNL     1       7.892  13.799  17.829  0.00  0.00    +0.000 A 
ATOM     14  C   UNL     1       8.554  13.557  19.019  0.00  0.00    +0.000 A 
ATOM     15  C   UNL     1       8.042  14.140  20.161  0.00  0.00    +0.000 A 
ATOM     16  N   UNL     1       6.940  14.931  20.183  0.00  0.00    +0.000 NA
ATOM     17  C   UNL     1       3.996  15.714  18.206  0.00  0.00    +0.000 C 
ATOM     18  C   UNL     1       1.489  15.223  18.216  0.00  0.00    +0.000 C 
ATOM     19  C   UNL     1       0.273  14.727  19.019  0.00  0.00    +0.000 C 
ENDROOT
BRANCH   2  20
ATOM     20  C   UNL     1      -0.127  11.429  20.952  0.00  0.00    +0.000 A 
ATOM     21  C   UNL     1      -0.783  11.486  22.190  0.00  0.00    +0.000 A 
ATOM     22  C   UNL     1      -0.707  10.405  23.076  0.00  0.00    +0.000 A 
ATOM     23  C   UNL     1       0.003   9.260  22.715  0.00  0.00    +0.000 A 
ATOM     24  C   UNL     1       0.697   9.239  21.512  0.00  0.00    +0.000 A 
ATOM     25  F   UNL     1       1.354   8.130  21.147  0.00  0.00    +0.000 F 
ATOM     26  C   UNL     1       0.690  10.334  20.660  0.00  0.00    +0.000 A 
ENDBRANCH   2  20
TORSDOF 1
ENDMDL
MODEL 6
REMARK VINA RESULT:      -7.1      8.877     11.925
REMARK  Name = 
REMARK  1 active torsions:
REMARK  status: ('A' for Active; 'I' for Inactive)
REMARK    1  A    between atoms: C_2  and  C_3
REMARK                            x       y       z     vdW  Elec       q    Type
REMARK                         _______ _______ _______ _____ _____    ______ ____
ROOT
ATOM      1  O   UNL     1      -1.285  12.367  19.056  0.00  0.00    +0.000 OA
ATOM      2  C   UNL     1      -0.277  12.326  19.761  0.00  0.00    +0.000 C 
ATOM      3  N   UNL     1       0.629  13.392  19.857  0.00  0.00    +0.000 N 
ATOM      4  C   UNL     1       1.863  13.369  20.640  0.00  0.00    +0.000 C 
ATOM      5  C   UNL     1       3.022  13.983  19.891  0.00  0.00    +0.000 C 
ATOM      6  C   UNL     1       2.730  15.431  19.453  0.00  0.00    +0.000 C 
ATOM      7  C   UNL     1       2.524  16.393  20.650  0.00  0.00    +0.000 C 
ATOM      8  C   UNL     1       3.766  16.463  21.536  0.00  0.00    +0.000 C 
ATOM      9  C   UNL     1       5.005  16.844  20.731  0.00  0.00    +0.000 C 
ATOM     10  N   UNL     1       5.121  16.065  19.499  0.00  0.00    +0.000 N 
ATOM     11  C   UNL     1       6.257  15.303  19.296  0.00  0.00    +0.000 A 
ATOM     12  C   UNL     1       6.715  15.012  18.009  0.00  0.00    +0.000 A 
ATOM     13  C   UNL     1       7.885  14.272  17.823  0.00  0.00    +0.000 A 
ATOM     14  C   UNL     1       8.576  13.811  18.928  0.00  0.00    +0.000 A 
ATOM     15  C   UNL     1       8.070  14.129  20.172  0.00  0.00    +0.000 A 
ATOM     16  N   UNL     1       6.945  14.862  20.371  0.00  0.00    +0.000 NA
ATOM     17  C   UNL     1       3.943  15.942  18.636  0.00  0.00    +0.000 C 
ATOM     18  C   UNL     1       1.452  15.379  18.576  0.00  0.00    +0.000 C 
ATOM     19  C   UNL     1       0.266  14.689  19.274  0.00  0.00    +0.000 C 
ENDROOT
BRANCH   2  20
ATOM     20  C   UNL     1      -0.002  11.052  20.487  0.00  0.00    +0.000 A 
ATOM     21  C   UNL     1       0.686  10.031  19.815  0.00  0.00    +0.000 A 
ATOM     22  C   UNL     1       1.084   8.881  20.505  0.00  0.00    +0.000 A 
ATOM     23  C   UNL     1       0.816   8.760  21.868  0.00  0.00    +0.000 A 
ATOM     24  C   UNL     1       0.082   9.749  22.509  0.00  0.00    +0.000 A 
ATOM     25  F   UNL     1      -0.151   9.653  23.825  0.00  0.00    +0.000 F 
ATOM     26  C   UNL     1      -0.382  10.860  21.819  0.00  0.00    +0.000 A 
ENDBRANCH   2  20
TORSDOF 1
ENDMDL
MODEL 7
REMARK VINA RESULT:      -7.0     10.065     12.677
REMARK  Name = 
REMARK  1 active torsions:
REMARK  status: ('A' for Active; 'I' for Inactive)
REMARK    1  A    between atoms: C_2  and  C_3
REMARK                            x       y       z     vdW  Elec       q    Type
REMARK                         _______ _______ _______ _____ _____    ______ ____
ROOT
ATOM      1  O   UNL     1       3.206  17.360  18.819  0.00  0.00    +0.000 OA
ATOM      2  C   UNL     1       3.736  16.340  19.256  0.00  0.00    +0.000 C 
ATOM      3  N   UNL     1       5.069  16.301  19.690  0.00  0.00    +0.000 N 
ATOM      4  C   UNL     1       5.755  15.102  20.169  0.00  0.00    +0.000 C 
ATOM      5  C   UNL     1       7.157  14.993  19.618  0.00  0.00    +0.000 C 
ATOM      6  C   UNL     1       8.011  16.230  19.953  0.00  0.00    +0.000 C 
ATOM      7  C   UNL     1       8.236  16.413  21.475  0.00  0.00    +0.000 C 
ATOM      8  C   UNL     1       8.966  15.219  22.085  0.00  0.00    +0.000 C 
ATOM      9  C   UNL     1      10.282  14.942  21.365  0.00  0.00    +0.000 C 
ATOM     10  N   UNL     1      10.124  14.943  19.911  0.00  0.00    +0.000 N 
ATOM     11  C   UNL     1      10.471  13.807  19.202  0.00  0.00    +0.000 A 
ATOM     12  C   UNL     1      10.893  13.882  17.873  0.00  0.00    +0.000 A 
ATOM     13  C   UNL     1      11.275  12.729  17.183  0.00  0.00    +0.000 A 
ATOM     14  C   UNL     1      11.210  11.506  17.825  0.00  0.00    +0.000 A 
ATOM     15  C   UNL     1      10.781  11.498  19.137  0.00  0.00    +0.000 A 
ATOM     16  N   UNL     1      10.424  12.611  19.827  0.00  0.00    +0.000 NA
ATOM     17  C   UNL     1       9.399  16.053  19.287  0.00  0.00    +0.000 C 
ATOM     18  C   UNL     1       7.266  17.456  19.366  0.00  0.00    +0.000 C 
ATOM     19  C   UNL     1       5.806  17.561  19.841  0.00  0.00    +0.000 C 
ENDROOT
BRANCH   2  20
ATOM     20  C   UNL     1       2.920  15.091  19.255  0.00  0.00    +0.000 A 
ATOM     21  C   UNL     1       3.042  14.210  18.171  0.00  0.00    +0.000 A 
ATOM     22  C   UNL     1       2.401  12.967  18.200  0.00  0.00    +0.000 A 
ATOM     23  C   UNL     1       1.659  12.594  19.321  0.00  0.00    +0.000 A 
ATOM     24  C   UNL     1       1.496  13.498  20.362  0.00  0.00    +0.000 A 
ATOM     25  F   UNL     1       0.811  13.133  21.454  0.00  0.00    +0.000 F 
ATOM     26  C   UNL     1       2.066  14.762  20.311  0.00  0.00    +0.000 A 
ENDBRANCH   2  20
TORSDOF 1
ENDMDL
MODEL 8
REMARK VINA RESULT:      -6.9     11.053     13.826
REMARK  Name = 
REMARK  1 active torsions:
REMARK  status: ('A' for Active; 'I' for Inactive)
REMARK    1  A    between atoms: C_2  and  C_3
REMARK                            x       y       z     vdW  Elec       q    Type
REMARK                         _______ _______ _______ _____ _____    ______ ____
ROOT
ATOM      1  O   UNL     1      -3.387  11.374  16.146  0.00  0.00    +0.000 OA
ATOM      2  C   UNL     1      -3.282  11.507  17.364  0.00  0.00    +0.000 C 
ATOM      3  N   UNL     1      -4.376  11.791  18.196  0.00  0.00    +0.000 N 
ATOM      4  C   UNL     1      -4.291  12.006  19.639  0.00  0.00    +0.000 C 
ATOM      5  C   UNL     1      -5.142  13.172  20.088  0.00  0.00    +0.000 C 
ATOM      6  C   UNL     1      -6.620  13.001  19.690  0.00  0.00    +0.000 C 
ATOM      7  C   UNL     1      -7.290  11.782  20.371  0.00  0.00    +0.000 C 
ATOM      8  C   UNL     1      -7.276  11.907  21.893  0.00  0.00    +0.000 C 
ATOM      9  C   UNL     1      -7.917  13.214  22.351  0.00  0.00    +0.000 C 
ATOM     10  N   UNL     1      -7.424  14.363  21.592  0.00  0.00    +0.000 N 
ATOM     11  C   UNL     1      -6.817  15.402  22.275  0.00  0.00    +0.000 A 
ATOM     12  C   UNL     1      -6.840  16.707  21.778  0.00  0.00    +0.000 A 
ATOM     13  C   UNL     1      -6.254  17.751  22.498  0.00  0.00    +0.000 A 
ATOM     14  C   UNL     1      -5.631  17.475  23.700  0.00  0.00    +0.000 A 
ATOM     15  C   UNL     1      -5.640  16.165  24.135  0.00  0.00    +0.000 A 
ATOM     16  N   UNL     1      -6.220  15.142  23.457  0.00  0.00    +0.000 NA
ATOM     17  C   UNL     1      -7.388  14.272  20.130  0.00  0.00    +0.000 C 
ATOM     18  C   UNL     1      -6.647  12.841  18.148  0.00  0.00    +0.000 C 
ATOM     19  C   UNL     1      -5.731  11.713  17.639  0.00  0.00    +0.000 C 
ENDROOT
BRANCH   2  20
ATOM     20  C   UNL     1      -1.912  11.418  17.947  0.00  0.00    +0.000 A 
ATOM     21  C   UNL     1      -1.364  10.148  18.182  0.00  0.00    +0.000 A 
ATOM     22  C   UNL     1      -0.033  10.023  18.595  0.00  0.00    +0.000 A 
ATOM     23  C   UNL     1       0.756  11.163  18.751  0.00  0.00    +0.000 A 
ATOM     24  C   UNL     1       0.186  12.417  18.574  0.00  0.00    +0.000 A 
ATOM     25  F   UNL     1       0.947  13.513  18.691  0.00  0.00    +0.000 F 
ATOM     26  C   UNL     1      -1.153  12.555  18.236  0.00  0.00    +0.000 A 
ENDBRANCH   2  20
TORSDOF 1
ENDMDL
MODEL 9
REMARK VINA RESULT:      -6.9     10.330     13.829
REMARK  Name = 
REMARK  1 active torsions:
REMARK  status: ('A' for Active; 'I' for Inactive)
REMARK    1  A    between atoms: C_2  and  C_3
REMARK                            x       y       z     vdW  Elec       q    Type
REMARK                         _______ _______ _______ _____ _____    ______ ____
ROOT
ATOM      1  O   UNL     1      -2.644  12.162  23.639  0.00  0.00    +0.000 OA
ATOM      2  C   UNL     1      -1.645  12.442  22.979  0.00  0.00    +0.000 C 
ATOM      3  N   UNL     1      -1.154  13.750  22.856  0.00  0.00    +0.000 N 
ATOM      4  C   UNL     1      -0.002  14.136  22.045  0.00  0.00    +0.000 C 
ATOM      5  C   UNL     1      -0.255  15.407  21.268  0.00  0.00    +0.000 C 
ATOM      6  C   UNL     1      -0.641  16.582  22.186  0.00  0.00    +0.000 C 
ATOM      7  C   UNL     1       0.492  16.978  23.166  0.00  0.00    +0.000 C 
ATOM      8  C   UNL     1       1.751  17.420  22.423  0.00  0.00    +0.000 C 
ATOM      9  C   UNL     1       1.454  18.549  21.442  0.00  0.00    +0.000 C 
ATOM     10  N   UNL     1       0.273  18.270  20.625  0.00  0.00    +0.000 N 
ATOM     11  C   UNL     1       0.406  18.243  19.248  0.00  0.00    +0.000 A 
ATOM     12  C   UNL     1      -0.668  18.553  18.410  0.00  0.00    +0.000 A 
ATOM     13  C   UNL     1      -0.506  18.557  17.022  0.00  0.00    +0.000 A 
ATOM     14  C   UNL     1       0.724  18.229  16.485  0.00  0.00    +0.000 A 
ATOM     15  C   UNL     1       1.743  17.929  17.366  0.00  0.00    +0.000 A 
ATOM     16  N   UNL     1       1.609  17.938  18.717  0.00  0.00    +0.000 NA
ATOM     17  C   UNL     1      -0.947  17.811  21.293  0.00  0.00    +0.000 C 
ATOM     18  C   UNL     1      -1.902  16.137  22.970  0.00  0.00    +0.000 C 
ATOM     19  C   UNL     1      -1.712  14.802  23.714  0.00  0.00    +0.000 C 
ENDROOT
BRANCH   2  20
ATOM     20  C   UNL     1      -0.980  11.329  22.239  0.00  0.00    +0.000 A 
ATOM     21  C   UNL     1      -0.433  10.268  22.973  0.00  0.00    +0.000 A 
ATOM     22  C   UNL     1       0.073   9.143  22.312  0.00  0.00    +0.000 A 
ATOM     23  C   UNL     1       0.010   9.069  20.920  0.00  0.00    +0.000 A 
ATOM     24  C   UNL     1      -0.480  10.151  20.201  0.00  0.00    +0.000 A 
ATOM     25  F   UNL     1      -0.571  10.072  18.867  0.00  0.00    +0.000 F 
ATOM     26  C   UNL     1      -0.915  11.302  20.843  0.00  0.00    +0.000 A 
ENDBRANCH   2  20
TORSDOF 1
ENDMDL
