MODEL 1
REMARK VINA RESULT:      -7.7      0.000      0.000
REMARK  Name = 
REMARK  8 active torsions:
REMARK  status: ('A' for Active; 'I' for Inactive)
REMARK    1  A    between atoms: C_1  and  O_2
REMARK    2  A    between atoms: O_2  and  C_3
REMARK    3  A    between atoms: C_7  and  N_8
REMARK    4  A    between atoms: N_11  and  C_12
REMARK    5  A    between atoms: C_12  and  C_13
REMARK    6  A    between atoms: C_14  and  C_15
REMARK    7  A    between atoms: N_17  and  C_18
REMARK    8  A    between atoms: C_25  and  C_26
REMARK                            x       y       z     vdW  Elec       q    Type
REMARK                         _______ _______ _______ _____ _____    ______ ____
ROOT
ATOM      1  C   UNL     1       1.244   7.279  20.409  0.00  0.00    +0.000 C 
ENDROOT
BRANCH   1   2
ATOM      2  C   UNL     1       2.285   6.381  19.811  0.00  0.00    +0.000 A 
ATOM      3  C   UNL     1       2.661   5.078  20.233  0.00  0.00    +0.000 A 
ATOM      4  C   UNL     1       2.196   4.303  21.412  0.00  0.00    +0.000 C 
ATOM      5  N   UNL     1       3.546   4.521  19.402  0.00  0.00    +0.000 NA
ATOM      6  N   UNL     1       3.870   5.496  18.515  0.00  0.00    +0.000 N 
ATOM      7  C   UNL     1       3.078   6.623  18.694  0.00  0.00    +0.000 A 
ATOM      8  C   UNL     1       3.037   7.812  17.799  0.00  0.00    +0.000 C 
BRANCH   6   9
ATOM      9  C   UNL     1       4.870   5.245  17.535  0.00  0.00    +0.000 A 
ATOM     10  C   UNL     1       4.588   4.373  16.469  0.00  0.00    +0.000 A 
ATOM     11  C   UNL     1       5.494   4.244  15.415  0.00  0.00    +0.000 A 
ATOM     12  C   UNL     1       6.692   4.951  15.450  0.00  0.00    +0.000 A 
ATOM     13  F   UNL     1       7.543   4.868  14.419  0.00  0.00    +0.000 F 
ATOM     14  C   UNL     1       7.022   5.749  16.540  0.00  0.00    +0.000 A 
ATOM     15  C   UNL     1       6.117   5.884  17.594  0.00  0.00    +0.000 A 
ENDBRANCH   6   9
ENDBRANCH   1   2
BRANCH   1  19
ATOM     16  N   UNL     1      -0.458  10.424  21.247  0.00  0.00    +0.000 N 
ATOM     17  C   UNL     1      -0.114  10.086  19.860  0.00  0.00    +0.000 C 
ATOM     18  C   UNL     1       1.370   9.621  19.778  0.00  0.00    +0.000 C 
ATOM     19  N   UNL     1       1.796   8.595  20.769  0.00  0.00    +0.000 NA
ATOM     20  C   UNL     1       1.376   9.059  22.114  0.00  0.00    +0.000 C 
ATOM     21  C   UNL     1      -0.124   9.386  22.233  0.00  0.00    +0.000 C 
BRANCH  16  26
ATOM     22  C   UNL     1      -2.833  12.543  23.187  0.00  0.00    +0.000 A 
ATOM     23  C   UNL     1      -3.379  13.307  22.158  0.00  0.00    +0.000 A 
ATOM     24  C   UNL     1      -2.952  13.129  20.850  0.00  0.00    +0.000 A 
ATOM     25  C   UNL     1      -1.972  12.180  20.567  0.00  0.00    +0.000 A 
ATOM     26  C   UNL     1      -1.395  11.389  21.573  0.00  0.00    +0.000 A 
ATOM     27  C   UNL     1      -1.849  11.588  22.887  0.00  0.00    +0.000 A 
BRANCH  22  29
ATOM     28  C   UNL     1      -4.627  12.290  24.723  0.00  0.00    +0.000 C 
ATOM     29  O   UNL     1      -3.340  12.814  24.429  0.00  0.00    +0.000 OA
ENDBRANCH  22  29
ENDBRANCH  16  26
ENDBRANCH   1  19
TORSDOF 5
ENDMDL
MODEL 2
REMARK VINA RESULT:      -7.7      2.357      3.591
REMARK  Name = 
REMARK  8 active torsions:
REMARK  status: ('A' for Active; 'I' for Inactive)
REMARK    1  A    between atoms: C_1  and  O_2
REMARK    2  A    between atoms: O_2  and  C_3
REMARK    3  A    between atoms: C_7  and  N_8
REMARK    4  A    between atoms: N_11  and  C_12
REMARK    5  A    between atoms: C_12  and  C_13
REMARK    6  A    between atoms: C_14  and  C_15
REMARK    7  A    between atoms: N_17  and  C_18
REMARK    8  A    between atoms: C_25  and  C_26
REMARK                            x       y       z     vdW  Elec       q    Type
REMARK                         _______ _______ _______ _____ _____    ______ ____
ROOT
ATOM      1  C   UNL     1       1.235   9.075  20.775  0.00  0.00    +0.000 C 
ENDROOT
BRANCH   1   2
ATOM      2  C   UNL     1       1.791   8.106  19.774  0.00  0.00    +0.000 A 
ATOM      3  C   UNL     1       2.242   8.375  18.456  0.00  0.00    +0.000 A 
ATOM      4  C   UNL     1       2.204   9.648  17.692  0.00  0.00    +0.000 C 
ATOM      5  N   UNL     1       2.779   7.294  17.883  0.00  0.00    +0.000 NA
ATOM      6  N   UNL     1       2.557   6.277  18.753  0.00  0.00    +0.000 N 
ATOM      7  C   UNL     1       2.013   6.743  19.944  0.00  0.00    +0.000 A 
ATOM      8  C   UNL     1       1.801   5.940  21.180  0.00  0.00    +0.000 C 
BRANCH   6   9
ATOM      9  C   UNL     1       2.939   4.954  18.396  0.00  0.00    +0.000 A 
ATOM     10  C   UNL     1       4.177   4.451  18.833  0.00  0.00    +0.000 A 
ATOM     11  C   UNL     1       4.493   3.106  18.632  0.00  0.00    +0.000 A 
ATOM     12  C   UNL     1       3.595   2.283  17.959  0.00  0.00    +0.000 A 
ATOM     13  F   UNL     1       3.873   0.983  17.806  0.00  0.00    +0.000 F 
ATOM     14  C   UNL     1       2.407   2.789  17.445  0.00  0.00    +0.000 A 
ATOM     15  C   UNL     1       2.084   4.132  17.648  0.00  0.00    +0.000 A 
ENDBRANCH   6   9
ENDBRANCH   1   2
BRANCH   1  19
ATOM     16  N   UNL     1      -1.162  11.352  22.374  0.00  0.00    +0.000 N 
ATOM     17  C   UNL     1      -0.589  10.212  23.100  0.00  0.00    +0.000 C 
ATOM     18  C   UNL     1      -0.699   8.920  22.236  0.00  0.00    +0.000 C 
ATOM     19  N   UNL     1      -0.235   9.029  20.825  0.00  0.00    +0.000 NA
ATOM     20  C   UNL     1      -0.880  10.222  20.224  0.00  0.00    +0.000 C 
ATOM     21  C   UNL     1      -0.652  11.529  21.006  0.00  0.00    +0.000 C 
BRANCH  16  26
ATOM     22  C   UNL     1      -1.754  14.727  23.840  0.00  0.00    +0.000 A 
ATOM     23  C   UNL     1      -3.008  14.531  24.414  0.00  0.00    +0.000 A 
ATOM     24  C   UNL     1      -3.647  13.304  24.299  0.00  0.00    +0.000 A 
ATOM     25  C   UNL     1      -3.028  12.266  23.607  0.00  0.00    +0.000 A 
ATOM     26  C   UNL     1      -1.766  12.421  23.014  0.00  0.00    +0.000 A 
ATOM     27  C   UNL     1      -1.141  13.672  23.148  0.00  0.00    +0.000 A 
BRANCH  22  29
ATOM     28  C   UNL     1       0.067  16.215  23.503  0.00  0.00    +0.000 C 
ATOM     29  O   UNL     1      -1.233  15.979  24.025  0.00  0.00    +0.000 OA
ENDBRANCH  22  29
ENDBRANCH  16  26
ENDBRANCH   1  19
TORSDOF 5
ENDMDL
MODEL 3
REMARK VINA RESULT:      -7.7      1.911      3.277
REMARK  Name = 
REMARK  8 active torsions:
REMARK  status: ('A' for Active; 'I' for Inactive)
REMARK    1  A    between atoms: C_1  and  O_2
REMARK    2  A    between atoms: O_2  and  C_3
REMARK    3  A    between atoms: C_7  and  N_8
REMARK    4  A    between atoms: N_11  and  C_12
REMARK    5  A    between atoms: C_12  and  C_13
REMARK    6  A    between atoms: C_14  and  C_15
REMARK    7  A    between atoms: N_17  and  C_18
REMARK    8  A    between atoms: C_25  and  C_26
REMARK                            x       y       z     vdW  Elec       q    Type
REMARK                         _______ _______ _______ _____ _____    ______ ____
ROOT
ATOM      1  C   UNL     1       3.705   5.666  19.331  0.00  0.00    +0.000 C 
ENDROOT
BRANCH   1   2
ATOM      2  C   UNL     1       4.290   4.896  18.185  0.00  0.00    +0.000 A 
ATOM      3  C   UNL     1       4.330   3.488  18.009  0.00  0.00    +0.000 A 
ATOM      4  C   UNL     1       3.890   2.413  18.935  0.00  0.00    +0.000 C 
ATOM      5  N   UNL     1       4.827   3.149  16.816  0.00  0.00    +0.000 NA
ATOM      6  N   UNL     1       5.252   4.311  16.260  0.00  0.00    +0.000 N 
ATOM      7  C   UNL     1       4.886   5.404  17.035  0.00  0.00    +0.000 A 
ATOM      8  C   UNL     1       5.033   6.836  16.652  0.00  0.00    +0.000 C 
BRANCH   6   9
ATOM      9  C   UNL     1       5.920   4.283  15.004  0.00  0.00    +0.000 A 
ATOM     10  C   UNL     1       5.332   3.599  13.925  0.00  0.00    +0.000 A 
ATOM     11  C   UNL     1       5.889   3.699  12.649  0.00  0.00    +0.000 A 
ATOM     12  C   UNL     1       7.051   4.443  12.465  0.00  0.00    +0.000 A 
ATOM     13  F   UNL     1       7.563   4.581  11.235  0.00  0.00    +0.000 F 
ATOM     14  C   UNL     1       7.691   5.051  13.539  0.00  0.00    +0.000 A 
ATOM     15  C   UNL     1       7.134   4.958  14.815  0.00  0.00    +0.000 A 
ENDBRANCH   6   9
ENDBRANCH   1   2
BRANCH   1  19
ATOM     16  N   UNL     1       1.455   8.504  19.943  0.00  0.00    +0.000 N 
ATOM     17  C   UNL     1       1.843   7.588  21.024  0.00  0.00    +0.000 C 
ATOM     18  C   UNL     1       1.659   6.112  20.562  0.00  0.00    +0.000 C 
ATOM     19  N   UNL     1       2.239   5.758  19.238  0.00  0.00    +0.000 NA
ATOM     20  C   UNL     1       1.776   6.767  18.253  0.00  0.00    +0.000 C 
ATOM     21  C   UNL     1       2.084   8.223  18.644  0.00  0.00    +0.000 C 
BRANCH  16  26
ATOM     22  C   UNL     1      -0.086  11.434  21.657  0.00  0.00    +0.000 A 
ATOM     23  C   UNL     1      -0.237  12.300  20.576  0.00  0.00    +0.000 A 
ATOM     24  C   UNL     1       0.181  11.920  19.309  0.00  0.00    +0.000 A 
ATOM     25  C   UNL     1       0.753  10.664  19.120  0.00  0.00    +0.000 A 
ATOM     26  C   UNL     1       0.925   9.761  20.180  0.00  0.00    +0.000 A 
ATOM     27  C   UNL     1       0.490  10.171  21.451  0.00  0.00    +0.000 A 
BRANCH  22  29
ATOM     28  C   UNL     1      -1.919  11.754  23.133  0.00  0.00    +0.000 C 
ATOM     29  O   UNL     1      -0.538  11.927  22.850  0.00  0.00    +0.000 OA
ENDBRANCH  22  29
ENDBRANCH  16  26
ENDBRANCH   1  19
TORSDOF 5
ENDMDL
MODEL 4
REMARK VINA RESULT:      -7.6      2.190      3.354
REMARK  Name = 
REMARK  8 active torsions:
REMARK  status: ('A' for Active; 'I' for Inactive)
REMARK    1  A    between atoms: C_1  and  O_2
REMARK    2  A    between atoms: O_2  and  C_3
REMARK    3  A    between atoms: C_7  and  N_8
REMARK    4  A    between atoms: N_11  and  C_12
REMARK    5  A    between atoms: C_12  and  C_13
REMARK    6  A    between atoms: C_14  and  C_15
REMARK    7  A    between atoms: N_17  and  C_18
REMARK    8  A    between atoms: C_25  and  C_26
REMARK                            x       y       z     vdW  Elec       q    Type
REMARK                         _______ _______ _______ _____ _____    ______ ____
ROOT
ATOM      1  C   UNL     1       1.205   9.052  20.875  0.00  0.00    +0.000 C 
ENDROOT
BRANCH   1   2
ATOM      2  C   UNL     1       1.755   8.122  19.835  0.00  0.00    +0.000 A 
ATOM      3  C   UNL     1       2.176   8.437  18.517  0.00  0.00    +0.000 A 
ATOM      4  C   UNL     1       2.104   9.733  17.792  0.00  0.00    +0.000 C 
ATOM      5  N   UNL     1       2.718   7.383  17.901  0.00  0.00    +0.000 NA
ATOM      6  N   UNL     1       2.530   6.337  18.744  0.00  0.00    +0.000 N 
ATOM      7  C   UNL     1       2.002   6.758  19.959  0.00  0.00    +0.000 A 
ATOM      8  C   UNL     1       1.827   5.916  21.174  0.00  0.00    +0.000 C 
BRANCH   6   9
ATOM      9  C   UNL     1       2.924   5.031  18.340  0.00  0.00    +0.000 A 
ATOM     10  C   UNL     1       4.230   4.590  18.614  0.00  0.00    +0.000 A 
ATOM     11  C   UNL     1       4.581   3.260  18.373  0.00  0.00    +0.000 A 
ATOM     12  C   UNL     1       3.643   2.392  17.820  0.00  0.00    +0.000 A 
ATOM     13  F   UNL     1       3.961   1.105  17.630  0.00  0.00    +0.000 F 
ATOM     14  C   UNL     1       2.377   2.840  17.463  0.00  0.00    +0.000 A 
ATOM     15  C   UNL     1       2.020   4.167  17.707  0.00  0.00    +0.000 A 
ENDBRANCH   6   9
ENDBRANCH   1   2
BRANCH   1  19
ATOM     16  N   UNL     1      -1.183  11.423  22.346  0.00  0.00    +0.000 N 
ATOM     17  C   UNL     1      -0.627  10.311  23.129  0.00  0.00    +0.000 C 
ATOM     18  C   UNL     1      -0.743   8.983  22.324  0.00  0.00    +0.000 C 
ATOM     19  N   UNL     1      -0.265   9.022  20.914  0.00  0.00    +0.000 NA
ATOM     20  C   UNL     1      -0.893  10.193  20.253  0.00  0.00    +0.000 C 
ATOM     21  C   UNL     1      -0.660  11.532  20.976  0.00  0.00    +0.000 C 
BRANCH  16  26
ATOM     22  C   UNL     1      -3.757  13.769  23.674  0.00  0.00    +0.000 A 
ATOM     23  C   UNL     1      -2.948  14.842  24.038  0.00  0.00    +0.000 A 
ATOM     24  C   UNL     1      -1.573  14.777  23.860  0.00  0.00    +0.000 A 
ATOM     25  C   UNL     1      -1.003  13.630  23.312  0.00  0.00    +0.000 A 
ATOM     26  C   UNL     1      -1.781  12.526  22.931  0.00  0.00    +0.000 A 
ATOM     27  C   UNL     1      -3.170  12.622  23.120  0.00  0.00    +0.000 A 
BRANCH  22  29
ATOM     28  C   UNL     1      -5.564  15.301  23.865  0.00  0.00    +0.000 C 
ATOM     29  O   UNL     1      -5.093  13.960  23.899  0.00  0.00    +0.000 OA
ENDBRANCH  22  29
ENDBRANCH  16  26
ENDBRANCH   1  19
TORSDOF 5
ENDMDL
MODEL 5
REMARK VINA RESULT:      -7.6      4.729     10.673
REMARK  Name = 
REMARK  8 active torsions:
REMARK  status: ('A' for Active; 'I' for Inactive)
REMARK    1  A    between atoms: C_1  and  O_2
REMARK    2  A    between atoms: O_2  and  C_3
REMARK    3  A    between atoms: C_7  and  N_8
REMARK    4  A    between atoms: N_11  and  C_12
REMARK    5  A    between atoms: C_12  and  C_13
REMARK    6  A    between atoms: C_14  and  C_15
REMARK    7  A    between atoms: N_17  and  C_18
REMARK    8  A    between atoms: C_25  and  C_26
REMARK                            x       y       z     vdW  Elec       q    Type
REMARK                         _______ _______ _______ _____ _____    ______ ____
ROOT
ATOM      1  C   UNL     1      -0.194   9.628  19.732  0.00  0.00    +0.000 C 
ENDROOT
BRANCH   1   2
ATOM      2  C   UNL     1      -0.839  10.854  20.305  0.00  0.00    +0.000 A 
ATOM      3  C   UNL     1      -1.406  11.951  19.605  0.00  0.00    +0.000 A 
ATOM      4  C   UNL     1      -1.433  12.219  18.143  0.00  0.00    +0.000 C 
ATOM      5  N   UNL     1      -1.996  12.819  20.431  0.00  0.00    +0.000 NA
ATOM      6  N   UNL     1      -1.700  12.384  21.682  0.00  0.00    +0.000 N 
ATOM      7  C   UNL     1      -1.050  11.156  21.647  0.00  0.00    +0.000 A 
ATOM      8  C   UNL     1      -0.730  10.305  22.825  0.00  0.00    +0.000 C 
BRANCH   6   9
ATOM      9  C   UNL     1      -2.116  13.150  22.806  0.00  0.00    +0.000 A 
ATOM     10  C   UNL     1      -1.196  14.007  23.435  0.00  0.00    +0.000 A 
ATOM     11  C   UNL     1      -1.628  14.883  24.431  0.00  0.00    +0.000 A 
ATOM     12  C   UNL     1      -2.964  14.871  24.824  0.00  0.00    +0.000 A 
ATOM     13  F   UNL     1      -3.393  15.742  25.746  0.00  0.00    +0.000 F 
ATOM     14  C   UNL     1      -3.864  13.967  24.272  0.00  0.00    +0.000 A 
ATOM     15  C   UNL     1      -3.436  13.092  23.272  0.00  0.00    +0.000 A 
ENDBRANCH   6   9
ENDBRANCH   1   2
BRANCH   1  19
ATOM     16  N   UNL     1       2.341   7.062  19.039  0.00  0.00    +0.000 N 
ATOM     17  C   UNL     1       1.746   7.209  20.373  0.00  0.00    +0.000 C 
ATOM     18  C   UNL     1       1.778   8.704  20.809  0.00  0.00    +0.000 C 
ATOM     19  N   UNL     1       1.274   9.692  19.815  0.00  0.00    +0.000 NA
ATOM     20  C   UNL     1       1.946   9.419  18.520  0.00  0.00    +0.000 C 
ATOM     21  C   UNL     1       1.795   7.971  18.020  0.00  0.00    +0.000 C 
BRANCH  16  26
ATOM     22  C   UNL     1       5.027   4.542  18.464  0.00  0.00    +0.000 A 
ATOM     23  C   UNL     1       4.329   3.607  17.704  0.00  0.00    +0.000 A 
ATOM     24  C   UNL     1       2.988   3.806  17.404  0.00  0.00    +0.000 A 
ATOM     25  C   UNL     1       2.341   4.949  17.868  0.00  0.00    +0.000 A 
ATOM     26  C   UNL     1       3.006   5.917  18.637  0.00  0.00    +0.000 A 
ATOM     27  C   UNL     1       4.363   5.691  18.921  0.00  0.00    +0.000 A 
BRANCH  22  29
ATOM     28  C   UNL     1       7.277   4.663  17.711  0.00  0.00    +0.000 C 
ATOM     29  O   UNL     1       6.340   4.229  18.687  0.00  0.00    +0.000 OA
ENDBRANCH  22  29
ENDBRANCH  16  26
ENDBRANCH   1  19
TORSDOF 5
ENDMDL
MODEL 6
REMARK VINA RESULT:      -7.6      4.757     10.677
REMARK  Name = 
REMARK  8 active torsions:
REMARK  status: ('A' for Active; 'I' for Inactive)
REMARK    1  A    between atoms: C_1  and  O_2
REMARK    2  A    between atoms: O_2  and  C_3
REMARK    3  A    between atoms: C_7  and  N_8
REMARK    4  A    between atoms: N_11  and  C_12
REMARK    5  A    between atoms: C_12  and  C_13
REMARK    6  A    between atoms: C_14  and  C_15
REMARK    7  A    between atoms: N_17  and  C_18
REMARK    8  A    between atoms: C_25  and  C_26
REMARK                            x       y       z     vdW  Elec       q    Type
REMARK                         _______ _______ _______ _____ _____    ______ ____
ROOT
ATOM      1  C   UNL     1      -0.244   9.697  19.923  0.00  0.00    +0.000 C 
ENDROOT
BRANCH   1   2
ATOM      2  C   UNL     1      -0.880  10.947  20.454  0.00  0.00    +0.000 A 
ATOM      3  C   UNL     1      -1.408  12.039  19.717  0.00  0.00    +0.000 A 
ATOM      4  C   UNL     1      -1.395  12.276  18.251  0.00  0.00    +0.000 C 
ATOM      5  N   UNL     1      -2.001  12.935  20.511  0.00  0.00    +0.000 NA
ATOM      6  N   UNL     1      -1.744  12.521  21.777  0.00  0.00    +0.000 N 
ATOM      7  C   UNL     1      -1.118  11.281  21.784  0.00  0.00    +0.000 A 
ATOM      8  C   UNL     1      -0.843  10.448  22.987  0.00  0.00    +0.000 C 
BRANCH   6   9
ATOM      9  C   UNL     1      -2.173  13.318  22.875  0.00  0.00    +0.000 A 
ATOM     10  C   UNL     1      -1.232  14.098  23.569  0.00  0.00    +0.000 A 
ATOM     11  C   UNL     1      -1.659  15.007  24.539  0.00  0.00    +0.000 A 
ATOM     12  C   UNL     1      -3.015  15.102  24.840  0.00  0.00    +0.000 A 
ATOM     13  F   UNL     1      -3.434  16.005  25.735  0.00  0.00    +0.000 F 
ATOM     14  C   UNL     1      -3.945  14.273  24.223  0.00  0.00    +0.000 A 
ATOM     15  C   UNL     1      -3.522  13.367  23.250  0.00  0.00    +0.000 A 
ENDBRANCH   6   9
ENDBRANCH   1   2
BRANCH   1  19
ATOM     16  N   UNL     1       2.285   7.338  18.686  0.00  0.00    +0.000 N 
ATOM     17  C   UNL     1       1.760   7.250  20.055  0.00  0.00    +0.000 C 
ATOM     18  C   UNL     1       1.795   8.653  20.730  0.00  0.00    +0.000 C 
ATOM     19  N   UNL     1       1.225   9.779  19.940  0.00  0.00    +0.000 NA
ATOM     20  C   UNL     1       1.830   9.738  18.586  0.00  0.00    +0.000 C 
ATOM     21  C   UNL     1       1.673   8.390  17.861  0.00  0.00    +0.000 C 
BRANCH  16  26
ATOM     22  C   UNL     1       3.145   3.924  17.463  0.00  0.00    +0.000 A 
ATOM     23  C   UNL     1       4.380   4.178  16.870  0.00  0.00    +0.000 A 
ATOM     24  C   UNL     1       4.904   5.463  16.866  0.00  0.00    +0.000 A 
ATOM     25  C   UNL     1       4.190   6.501  17.459  0.00  0.00    +0.000 A 
ATOM     26  C   UNL     1       2.943   6.290  18.066  0.00  0.00    +0.000 A 
ATOM     27  C   UNL     1       2.438   4.979  18.059  0.00  0.00    +0.000 A 
BRANCH  22  29
ATOM     28  C   UNL     1       3.445   1.690  18.216  0.00  0.00    +0.000 C 
ATOM     29  O   UNL     1       2.742   2.618  17.401  0.00  0.00    +0.000 OA
ENDBRANCH  22  29
ENDBRANCH  16  26
ENDBRANCH   1  19
TORSDOF 5
ENDMDL
MODEL 7
REMARK VINA RESULT:      -7.6      4.821     10.704
REMARK  Name = 
REMARK  8 active torsions:
REMARK  status: ('A' for Active; 'I' for Inactive)
REMARK    1  A    between atoms: C_1  and  O_2
REMARK    2  A    between atoms: O_2  and  C_3
REMARK    3  A    between atoms: C_7  and  N_8
REMARK    4  A    between atoms: N_11  and  C_12
REMARK    5  A    between atoms: C_12  and  C_13
REMARK    6  A    between atoms: C_14  and  C_15
REMARK    7  A    between atoms: N_17  and  C_18
REMARK    8  A    between atoms: C_25  and  C_26
REMARK                            x       y       z     vdW  Elec       q    Type
REMARK                         _______ _______ _______ _____ _____    ______ ____
ROOT
ATOM      1  C   UNL     1       2.970   5.512  18.103  0.00  0.00    +0.000 C 
ENDROOT
BRANCH   1   2
ATOM      2  C   UNL     1       2.336   6.270  19.230  0.00  0.00    +0.000 A 
ATOM      3  C   UNL     1       2.007   5.794  20.526  0.00  0.00    +0.000 A 
ATOM      4  C   UNL     1       2.117   4.419  21.078  0.00  0.00    +0.000 C 
ATOM      5  N   UNL     1       1.556   6.772  21.317  0.00  0.00    +0.000 NA
ATOM      6  N   UNL     1       1.446   7.861  20.516  0.00  0.00    +0.000 N 
ATOM      7  C   UNL     1       1.970   7.612  19.253  0.00  0.00    +0.000 A 
ATOM      8  C   UNL     1       2.172   8.621  18.177  0.00  0.00    +0.000 C 
BRANCH   6   9
ATOM      9  C   UNL     1       0.903   9.066  21.042  0.00  0.00    +0.000 A 
ATOM     10  C   UNL     1       0.743  10.177  20.197  0.00  0.00    +0.000 A 
ATOM     11  C   UNL     1       0.063  11.308  20.653  0.00  0.00    +0.000 A 
ATOM     12  C   UNL     1      -0.413  11.341  21.961  0.00  0.00    +0.000 A 
ATOM     13  F   UNL     1      -1.106  12.404  22.388  0.00  0.00    +0.000 F 
ATOM     14  C   UNL     1      -0.184  10.284  22.833  0.00  0.00    +0.000 A 
ATOM     15  C   UNL     1       0.491   9.149  22.379  0.00  0.00    +0.000 A 
ENDBRANCH   6   9
ENDBRANCH   1   2
BRANCH   1  19
ATOM     16  N   UNL     1       5.465   4.867  15.486  0.00  0.00    +0.000 N 
ATOM     17  C   UNL     1       4.985   3.794  16.367  0.00  0.00    +0.000 C 
ATOM     18  C   UNL     1       5.038   4.261  17.851  0.00  0.00    +0.000 C 
ATOM     19  N   UNL     1       4.439   5.593  18.146  0.00  0.00    +0.000 NA
ATOM     20  C   UNL     1       5.000   6.568  17.179  0.00  0.00    +0.000 C 
ATOM     21  C   UNL     1       4.824   6.172  15.702  0.00  0.00    +0.000 C 
BRANCH  16  26
ATOM     22  C   UNL     1       6.357   3.376  12.188  0.00  0.00    +0.000 A 
ATOM     23  C   UNL     1       7.513   4.097  11.896  0.00  0.00    +0.000 A 
ATOM     24  C   UNL     1       7.974   5.068  12.774  0.00  0.00    +0.000 A 
ATOM     25  C   UNL     1       7.275   5.321  13.952  0.00  0.00    +0.000 A 
ATOM     26  C   UNL     1       6.106   4.619  14.284  0.00  0.00    +0.000 A 
ATOM     27  C   UNL     1       5.665   3.640  13.379  0.00  0.00    +0.000 A 
BRANCH  22  29
ATOM     28  C   UNL     1       6.787   1.259  11.200  0.00  0.00    +0.000 C 
ATOM     29  O   UNL     1       6.011   2.448  11.244  0.00  0.00    +0.000 OA
ENDBRANCH  22  29
ENDBRANCH  16  26
ENDBRANCH   1  19
TORSDOF 5
ENDMDL
MODEL 8
REMARK VINA RESULT:      -7.6      0.900      1.482
REMARK  Name = 
REMARK  8 active torsions:
REMARK  status: ('A' for Active; 'I' for Inactive)
REMARK    1  A    between atoms: C_1  and  O_2
REMARK    2  A    between atoms: O_2  and  C_3
REMARK    3  A    between atoms: C_7  and  N_8
REMARK    4  A    between atoms: N_11  and  C_12
REMARK    5  A    between atoms: C_12  and  C_13
REMARK    6  A    between atoms: C_14  and  C_15
REMARK    7  A    between atoms: N_17  and  C_18
REMARK    8  A    between atoms: C_25  and  C_26
REMARK                            x       y       z     vdW  Elec       q    Type
REMARK                         _______ _______ _______ _____ _____    ______ ____
ROOT
ATOM      1  C   UNL     1       1.180   7.316  20.368  0.00  0.00    +0.000 C 
ENDROOT
BRANCH   1   2
ATOM      2  C   UNL     1       2.237   6.420  19.794  0.00  0.00    +0.000 A 
ATOM      3  C   UNL     1       2.622   5.128  20.238  0.00  0.00    +0.000 A 
ATOM      4  C   UNL     1       2.154   4.364  21.423  0.00  0.00    +0.000 C 
ATOM      5  N   UNL     1       3.521   4.568  19.423  0.00  0.00    +0.000 NA
ATOM      6  N   UNL     1       3.843   5.533  18.525  0.00  0.00    +0.000 N 
ATOM      7  C   UNL     1       3.037   6.654  18.680  0.00  0.00    +0.000 A 
ATOM      8  C   UNL     1       2.992   7.830  17.767  0.00  0.00    +0.000 C 
BRANCH   6   9
ATOM      9  C   UNL     1       4.854   5.280  17.557  0.00  0.00    +0.000 A 
ATOM     10  C   UNL     1       4.604   4.361  16.523  0.00  0.00    +0.000 A 
ATOM     11  C   UNL     1       5.518   4.223  15.477  0.00  0.00    +0.000 A 
ATOM     12  C   UNL     1       6.694   4.968  15.490  0.00  0.00    +0.000 A 
ATOM     13  F   UNL     1       7.550   4.874  14.466  0.00  0.00    +0.000 F 
ATOM     14  C   UNL     1       6.993   5.814  16.552  0.00  0.00    +0.000 A 
ATOM     15  C   UNL     1       6.080   5.958  17.597  0.00  0.00    +0.000 A 
ENDBRANCH   6   9
ENDBRANCH   1   2
BRANCH   1  19
ATOM     16  N   UNL     1      -0.529  10.393  21.417  0.00  0.00    +0.000 N 
ATOM     17  C   UNL     1      -0.227  10.128  20.005  0.00  0.00    +0.000 C 
ATOM     18  C   UNL     1       1.259   9.688  19.851  0.00  0.00    +0.000 C 
ATOM     19  N   UNL     1       1.729   8.619  20.775  0.00  0.00    +0.000 NA
ATOM     20  C   UNL     1       1.348   9.011  22.155  0.00  0.00    +0.000 C 
ATOM     21  C   UNL     1      -0.150   9.312  22.339  0.00  0.00    +0.000 C 
BRANCH  16  26
ATOM     22  C   UNL     1      -2.942  13.233  21.382  0.00  0.00    +0.000 A 
ATOM     23  C   UNL     1      -3.297  13.273  22.728  0.00  0.00    +0.000 A 
ATOM     24  C   UNL     1      -2.754  12.361  23.623  0.00  0.00    +0.000 A 
ATOM     25  C   UNL     1      -1.849  11.404  23.169  0.00  0.00    +0.000 A 
ATOM     26  C   UNL     1      -1.465  11.329  21.821  0.00  0.00    +0.000 A 
ATOM     27  C   UNL     1      -2.028  12.266  20.939  0.00  0.00    +0.000 A 
BRANCH  22  29
ATOM     28  C   UNL     1      -3.819  15.436  21.222  0.00  0.00    +0.000 C 
ATOM     29  O   UNL     1      -3.546  14.185  20.606  0.00  0.00    +0.000 OA
ENDBRANCH  22  29
ENDBRANCH  16  26
ENDBRANCH   1  19
TORSDOF 5
ENDMDL
MODEL 9
REMARK VINA RESULT:      -7.5      1.560      2.608
REMARK  Name = 
REMARK  8 active torsions:
REMARK  status: ('A' for Active; 'I' for Inactive)
REMARK    1  A    between atoms: C_1  and  O_2
REMARK    2  A    between atoms: O_2  and  C_3
REMARK    3  A    between atoms: C_7  and  N_8
REMARK    4  A    between atoms: N_11  and  C_12
REMARK    5  A    between atoms: C_12  and  C_13
REMARK    6  A    between atoms: C_14  and  C_15
REMARK    7  A    between atoms: N_17  and  C_18
REMARK    8  A    between atoms: C_25  and  C_26
REMARK                            x       y       z     vdW  Elec       q    Type
REMARK                         _______ _______ _______ _____ _____    ______ ____
ROOT
ATOM      1  C   UNL     1       0.716   8.544  20.591  0.00  0.00    +0.000 C 
ENDROOT
BRANCH   1   2
ATOM      2  C   UNL     1       1.618   8.197  19.444  0.00  0.00    +0.000 A 
ATOM      3  C   UNL     1       1.871   8.957  18.272  0.00  0.00    +0.000 A 
ATOM      4  C   UNL     1       1.256  10.235  17.830  0.00  0.00    +0.000 C 
ATOM      5  N   UNL     1       2.817   8.399  17.511  0.00  0.00    +0.000 NA
ATOM      6  N   UNL     1       3.089   7.203  18.094  0.00  0.00    +0.000 N 
ATOM      7  C   UNL     1       2.424   7.072  19.307  0.00  0.00    +0.000 A 
ATOM      8  C   UNL     1       2.619   5.975  20.294  0.00  0.00    +0.000 C 
BRANCH   6   9
ATOM      9  C   UNL     1       4.007   6.313  17.470  0.00  0.00    +0.000 A 
ATOM     10  C   UNL     1       5.259   6.796  17.050  0.00  0.00    +0.000 A 
ATOM     11  C   UNL     1       6.230   5.906  16.589  0.00  0.00    +0.000 A 
ATOM     12  C   UNL     1       5.933   4.548  16.507  0.00  0.00    +0.000 A 
ATOM     13  F   UNL     1       6.877   3.686  16.110  0.00  0.00    +0.000 F 
ATOM     14  C   UNL     1       4.670   4.071  16.836  0.00  0.00    +0.000 A 
ATOM     15  C   UNL     1       3.698   4.957  17.302  0.00  0.00    +0.000 A 
ENDBRANCH   6   9
ENDBRANCH   1   2
BRANCH   1  19
ATOM     16  N   UNL     1      -0.803  11.271  22.526  0.00  0.00    +0.000 N 
ATOM     17  C   UNL     1      -0.338  11.477  21.149  0.00  0.00    +0.000 C 
ATOM     18  C   UNL     1       1.103  10.910  20.983  0.00  0.00    +0.000 C 
ATOM     19  N   UNL     1       1.332   9.530  21.493  0.00  0.00    +0.000 NA
ATOM     20  C   UNL     1       0.806   9.464  22.879  0.00  0.00    +0.000 C 
ATOM     21  C   UNL     1      -0.666   9.893  23.021  0.00  0.00    +0.000 C 
BRANCH  16  26
ATOM     22  C   UNL     1      -3.875  12.638  24.135  0.00  0.00    +0.000 A 
ATOM     23  C   UNL     1      -3.478  13.956  24.345  0.00  0.00    +0.000 A 
ATOM     24  C   UNL     1      -2.207  14.374  23.973  0.00  0.00    +0.000 A 
ATOM     25  C   UNL     1      -1.328  13.467  23.385  0.00  0.00    +0.000 A 
ATOM     26  C   UNL     1      -1.687  12.130  23.155  0.00  0.00    +0.000 A 
ATOM     27  C   UNL     1      -2.980  11.737  23.539  0.00  0.00    +0.000 A 
BRANCH  22  29
ATOM     28  C   UNL     1      -6.194  13.127  23.968  0.00  0.00    +0.000 C 
ATOM     29  O   UNL     1      -5.150  12.355  24.544  0.00  0.00    +0.000 OA
ENDBRANCH  22  29
ENDBRANCH  16  26
ENDBRANCH   1  19
TORSDOF 5
ENDMDL
