MODEL 1
REMARK VINA RESULT:      -7.8      0.000      0.000
REMARK  Name = 
REMARK  6 active torsions:
REMARK  status: ('A' for Active; 'I' for Inactive)
REMARK    1  A    between atoms: C_1  and  O_2
REMARK    2  A    between atoms: O_2  and  N_3
REMARK    3  A    between atoms: N_3  and  C_4
REMARK    4  A    between atoms: C_5  and  C_7
REMARK    5  A    between atoms: C_7  and  C_8
REMARK    6  A    between atoms: C_8  and  C_9
REMARK                            x       y       z     vdW  Elec       q    Type
REMARK                         _______ _______ _______ _____ _____    ______ ____
ROOT
ATOM      1  C   UNL     1       2.061   7.628  19.469  0.00  0.00    +0.000 A 
ATOM      2  C   UNL     1       2.006   8.350  18.276  0.00  0.00    +0.000 A 
ATOM      3  C   UNL     1       1.445   9.634  18.250  0.00  0.00    +0.000 A 
ATOM      4  C   UNL     1       0.951  10.231  19.418  0.00  0.00    +0.000 A 
ATOM      5  C   UNL     1       0.950   9.514  20.614  0.00  0.00    +0.000 A 
ATOM      6  C   UNL     1       1.508   8.222  20.615  0.00  0.00    +0.000 A 
ATOM      7  C   UNL     1       0.370   9.955  21.919  0.00  0.00    +0.000 C 
ATOM      8  O   UNL     1       0.582   9.280  22.927  0.00  0.00    +0.000 OA
ATOM      9  C   UNL     1      -0.484  11.149  22.078  0.00  0.00    +0.000 A 
ATOM     10  C   UNL     1      -1.487  11.108  23.062  0.00  0.00    +0.000 A 
ATOM     11  C   UNL     1      -2.303  12.212  23.288  0.00  0.00    +0.000 A 
ATOM     12  C   UNL     1      -2.120  13.368  22.536  0.00  0.00    +0.000 A 
ATOM     13  C   UNL     1      -1.116  13.423  21.568  0.00  0.00    +0.000 A 
ATOM     14  C   UNL     1      -0.285  12.315  21.334  0.00  0.00    +0.000 A 
ATOM     15  C   UNL     1       0.809  12.384  20.316  0.00  0.00    +0.000 C 
ATOM     16  O   UNL     1       0.495  11.508  19.238  0.00  0.00    +0.000 OA
ENDROOT
BRANCH   1  17
ATOM     17  C   UNL     1       2.707   6.251  19.500  0.00  0.00    +0.000 C 
BRANCH  17  18
ATOM     18  C   UNL     1       3.058   5.699  18.115  0.00  0.00    +0.000 C 
BRANCH  18  21
ATOM     19  N   UNL     1       3.298   3.282  17.836  0.00  0.00    +0.000 N 
ATOM     20  C   UNL     1       2.777   1.935  17.936  0.00  0.00    +0.000 C 
ATOM     21  C   UNL     1       2.427   4.366  17.775  0.00  0.00    +0.000 C 
ATOM     22  O   UNL     1       1.247   4.261  17.437  0.00  0.00    +0.000 OA
BRANCH  19  24
ATOM     23  C   UNL     1       4.349   2.574  19.765  0.00  0.00    +0.000 C 
ATOM     24  O   UNL     1       4.449   3.462  18.649  0.00  0.00    +0.000 OA
ENDBRANCH  19  24
ENDBRANCH  18  21
ENDBRANCH  17  18
ENDBRANCH   1  17
TORSDOF 4
ENDMDL
MODEL 2
REMARK VINA RESULT:      -7.7      1.832      2.316
REMARK  Name = 
REMARK  6 active torsions:
REMARK  status: ('A' for Active; 'I' for Inactive)
REMARK    1  A    between atoms: C_1  and  O_2
REMARK    2  A    between atoms: O_2  and  N_3
REMARK    3  A    between atoms: N_3  and  C_4
REMARK    4  A    between atoms: C_5  and  C_7
REMARK    5  A    between atoms: C_7  and  C_8
REMARK    6  A    between atoms: C_8  and  C_9
REMARK                            x       y       z     vdW  Elec       q    Type
REMARK                         _______ _______ _______ _____ _____    ______ ____
ROOT
ATOM      1  C   UNL     1       2.392   7.161  19.330  0.00  0.00    +0.000 A 
ATOM      2  C   UNL     1       2.189   7.768  18.090  0.00  0.00    +0.000 A 
ATOM      3  C   UNL     1       1.534   9.004  18.005  0.00  0.00    +0.000 A 
ATOM      4  C   UNL     1       1.093   9.670  19.157  0.00  0.00    +0.000 A 
ATOM      5  C   UNL     1       1.242   9.065  20.405  0.00  0.00    +0.000 A 
ATOM      6  C   UNL     1       1.892   7.818  20.466  0.00  0.00    +0.000 A 
ATOM      7  C   UNL     1       0.738   9.581  21.713  0.00  0.00    +0.000 C 
ATOM      8  O   UNL     1       1.079   9.015  22.752  0.00  0.00    +0.000 OA
ATOM      9  C   UNL     1      -0.186  10.726  21.845  0.00  0.00    +0.000 A 
ATOM     10  C   UNL     1      -1.101  10.708  22.912  0.00  0.00    +0.000 A 
ATOM     11  C   UNL     1      -1.975  11.771  23.114  0.00  0.00    +0.000 A 
ATOM     12  C   UNL     1      -1.938  12.864  22.255  0.00  0.00    +0.000 A 
ATOM     13  C   UNL     1      -1.023  12.898  21.202  0.00  0.00    +0.000 A 
ATOM     14  C   UNL     1      -0.134  11.831  20.991  0.00  0.00    +0.000 A 
ATOM     15  C   UNL     1       0.867  11.880  19.880  0.00  0.00    +0.000 C 
ATOM     16  O   UNL     1       0.532  10.892  18.910  0.00  0.00    +0.000 OA
ENDROOT
BRANCH   1  17
ATOM     17  C   UNL     1       3.138   5.838  19.420  0.00  0.00    +0.000 C 
BRANCH  17  18
ATOM     18  C   UNL     1       3.913   5.475  18.150  0.00  0.00    +0.000 C 
BRANCH  18  21
ATOM     19  N   UNL     1       6.267   5.131  17.584  0.00  0.00    +0.000 N 
ATOM     20  C   UNL     1       7.625   4.795  17.955  0.00  0.00    +0.000 C 
ATOM     21  C   UNL     1       5.202   4.714  18.378  0.00  0.00    +0.000 C 
ATOM     22  O   UNL     1       5.285   3.779  19.176  0.00  0.00    +0.000 OA
BRANCH  19  24
ATOM     23  C   UNL     1       7.351   7.165  17.460  0.00  0.00    +0.000 C 
ATOM     24  O   UNL     1       6.173   6.453  17.073  0.00  0.00    +0.000 OA
ENDBRANCH  19  24
ENDBRANCH  18  21
ENDBRANCH  17  18
ENDBRANCH   1  17
TORSDOF 4
ENDMDL
MODEL 3
REMARK VINA RESULT:      -7.7      0.711      1.327
REMARK  Name = 
REMARK  6 active torsions:
REMARK  status: ('A' for Active; 'I' for Inactive)
REMARK    1  A    between atoms: C_1  and  O_2
REMARK    2  A    between atoms: O_2  and  N_3
REMARK    3  A    between atoms: N_3  and  C_4
REMARK    4  A    between atoms: C_5  and  C_7
REMARK    5  A    between atoms: C_7  and  C_8
REMARK    6  A    between atoms: C_8  and  C_9
REMARK                            x       y       z     vdW  Elec       q    Type
REMARK                         _______ _______ _______ _____ _____    ______ ____
ROOT
ATOM      1  C   UNL     1       2.163   7.455  19.400  0.00  0.00    +0.000 A 
ATOM      2  C   UNL     1       1.969   8.060  18.158  0.00  0.00    +0.000 A 
ATOM      3  C   UNL     1       1.337   9.307  18.068  0.00  0.00    +0.000 A 
ATOM      4  C   UNL     1       0.910   9.986  19.218  0.00  0.00    +0.000 A 
ATOM      5  C   UNL     1       1.050   9.384  20.468  0.00  0.00    +0.000 A 
ATOM      6  C   UNL     1       1.677   8.126  20.534  0.00  0.00    +0.000 A 
ATOM      7  C   UNL     1       0.558   9.916  21.775  0.00  0.00    +0.000 C 
ATOM      8  O   UNL     1       0.891   9.349  22.817  0.00  0.00    +0.000 OA
ATOM      9  C   UNL     1      -0.344  11.078  21.904  0.00  0.00    +0.000 A 
ATOM     10  C   UNL     1      -1.257  11.082  22.972  0.00  0.00    +0.000 A 
ATOM     11  C   UNL     1      -2.111  12.161  23.171  0.00  0.00    +0.000 A 
ATOM     12  C   UNL     1      -2.056  13.250  22.307  0.00  0.00    +0.000 A 
ATOM     13  C   UNL     1      -1.142  13.263  21.252  0.00  0.00    +0.000 A 
ATOM     14  C   UNL     1      -0.274  12.178  21.045  0.00  0.00    +0.000 A 
ATOM     15  C   UNL     1       0.726  12.204  19.931  0.00  0.00    +0.000 C 
ATOM     16  O   UNL     1       0.372  11.217  18.967  0.00  0.00    +0.000 OA
ENDROOT
BRANCH   1  17
ATOM     17  C   UNL     1       2.885   6.119  19.496  0.00  0.00    +0.000 C 
BRANCH  17  18
ATOM     18  C   UNL     1       3.108   5.436  18.143  0.00  0.00    +0.000 C 
BRANCH  18  21
ATOM     19  N   UNL     1       2.949   3.005  18.347  0.00  0.00    +0.000 N 
ATOM     20  C   UNL     1       3.410   1.671  18.023  0.00  0.00    +0.000 C 
ATOM     21  C   UNL     1       3.805   4.094  18.207  0.00  0.00    +0.000 C 
ATOM     22  O   UNL     1       5.031   3.985  18.173  0.00  0.00    +0.000 OA
BRANCH  19  24
ATOM     23  C   UNL     1       0.748   2.466  18.782  0.00  0.00    +0.000 C 
ATOM     24  O   UNL     1       1.610   3.215  17.923  0.00  0.00    +0.000 OA
ENDBRANCH  19  24
ENDBRANCH  18  21
ENDBRANCH  17  18
ENDBRANCH   1  17
TORSDOF 4
ENDMDL
MODEL 4
REMARK VINA RESULT:      -7.7      6.704      8.474
REMARK  Name = 
REMARK  6 active torsions:
REMARK  status: ('A' for Active; 'I' for Inactive)
REMARK    1  A    between atoms: C_1  and  O_2
REMARK    2  A    between atoms: O_2  and  N_3
REMARK    3  A    between atoms: N_3  and  C_4
REMARK    4  A    between atoms: C_5  and  C_7
REMARK    5  A    between atoms: C_7  and  C_8
REMARK    6  A    between atoms: C_8  and  C_9
REMARK                            x       y       z     vdW  Elec       q    Type
REMARK                         _______ _______ _______ _____ _____    ______ ____
ROOT
ATOM      1  C   UNL     1       5.767   4.681  15.556  0.00  0.00    +0.000 A 
ATOM      2  C   UNL     1       6.798   4.877  16.475  0.00  0.00    +0.000 A 
ATOM      3  C   UNL     1       6.616   4.550  17.825  0.00  0.00    +0.000 A 
ATOM      4  C   UNL     1       5.410   3.997  18.279  0.00  0.00    +0.000 A 
ATOM      5  C   UNL     1       4.347   3.834  17.391  0.00  0.00    +0.000 A 
ATOM      6  C   UNL     1       4.549   4.180  16.042  0.00  0.00    +0.000 A 
ATOM      7  C   UNL     1       2.969   3.363  17.725  0.00  0.00    +0.000 C 
ATOM      8  O   UNL     1       2.180   3.120  16.810  0.00  0.00    +0.000 OA
ATOM      9  C   UNL     1       2.468   3.197  19.105  0.00  0.00    +0.000 A 
ATOM     10  C   UNL     1       1.102   3.434  19.336  0.00  0.00    +0.000 A 
ATOM     11  C   UNL     1       0.559   3.262  20.605  0.00  0.00    +0.000 A 
ATOM     12  C   UNL     1       1.374   2.844  21.652  0.00  0.00    +0.000 A 
ATOM     13  C   UNL     1       2.728   2.591  21.428  0.00  0.00    +0.000 A 
ATOM     14  C   UNL     1       3.286   2.759  20.150  0.00  0.00    +0.000 A 
ATOM     15  C   UNL     1       4.731   2.460  19.903  0.00  0.00    +0.000 C 
ATOM     16  O   UNL     1       5.413   3.675  19.608  0.00  0.00    +0.000 OA
ENDROOT
BRANCH   1  17
ATOM     17  C   UNL     1       5.984   5.001  14.085  0.00  0.00    +0.000 C 
BRANCH  17  18
ATOM     18  C   UNL     1       5.769   3.805  13.151  0.00  0.00    +0.000 C 
BRANCH  18  21
ATOM     19  N   UNL     1       6.923   2.309  11.600  0.00  0.00    +0.000 N 
ATOM     20  C   UNL     1       7.598   2.059  10.344  0.00  0.00    +0.000 C 
ATOM     21  C   UNL     1       6.844   3.604  12.104  0.00  0.00    +0.000 C 
ATOM     22  O   UNL     1       7.606   4.508  11.759  0.00  0.00    +0.000 OA
BRANCH  19  24
ATOM     23  C   UNL     1       6.015   0.228  11.189  0.00  0.00    +0.000 C 
ATOM     24  O   UNL     1       5.747   1.524  11.730  0.00  0.00    +0.000 OA
ENDBRANCH  19  24
ENDBRANCH  18  21
ENDBRANCH  17  18
ENDBRANCH   1  17
TORSDOF 4
ENDMDL
MODEL 5
REMARK VINA RESULT:      -7.6      6.604      8.368
REMARK  Name = 
REMARK  6 active torsions:
REMARK  status: ('A' for Active; 'I' for Inactive)
REMARK    1  A    between atoms: C_1  and  O_2
REMARK    2  A    between atoms: O_2  and  N_3
REMARK    3  A    between atoms: N_3  and  C_4
REMARK    4  A    between atoms: C_5  and  C_7
REMARK    5  A    between atoms: C_7  and  C_8
REMARK    6  A    between atoms: C_8  and  C_9
REMARK                            x       y       z     vdW  Elec       q    Type
REMARK                         _______ _______ _______ _____ _____    ______ ____
ROOT
ATOM      1  C   UNL     1       6.319   4.725  15.699  0.00  0.00    +0.000 A 
ATOM      2  C   UNL     1       7.238   4.923  16.729  0.00  0.00    +0.000 A 
ATOM      3  C   UNL     1       6.895   4.618  18.053  0.00  0.00    +0.000 A 
ATOM      4  C   UNL     1       5.638   4.086  18.371  0.00  0.00    +0.000 A 
ATOM      5  C   UNL     1       4.684   3.921  17.366  0.00  0.00    +0.000 A 
ATOM      6  C   UNL     1       5.046   4.244  16.045  0.00  0.00    +0.000 A 
ATOM      7  C   UNL     1       3.271   3.470  17.544  0.00  0.00    +0.000 C 
ATOM      8  O   UNL     1       2.591   3.223  16.546  0.00  0.00    +0.000 OA
ATOM      9  C   UNL     1       2.610   3.330  18.857  0.00  0.00    +0.000 A 
ATOM     10  C   UNL     1       1.229   3.586  18.924  0.00  0.00    +0.000 A 
ATOM     11  C   UNL     1       0.540   3.438  20.123  0.00  0.00    +0.000 A 
ATOM     12  C   UNL     1       1.222   3.027  21.264  0.00  0.00    +0.000 A 
ATOM     13  C   UNL     1       2.589   2.756  21.203  0.00  0.00    +0.000 A 
ATOM     14  C   UNL     1       3.295   2.899  19.996  0.00  0.00    +0.000 A 
ATOM     15  C   UNL     1       4.755   2.580  19.924  0.00  0.00    +0.000 C 
ATOM     16  O   UNL     1       5.482   3.783  19.694  0.00  0.00    +0.000 OA
ENDROOT
BRANCH   1  17
ATOM     17  C   UNL     1       6.710   5.020  14.258  0.00  0.00    +0.000 C 
BRANCH  17  18
ATOM     18  C   UNL     1       5.719   4.482  13.223  0.00  0.00    +0.000 C 
BRANCH  18  21
ATOM     19  N   UNL     1       5.285   2.470  11.902  0.00  0.00    +0.000 N 
ATOM     20  C   UNL     1       5.548   1.621  10.760  0.00  0.00    +0.000 C 
ATOM     21  C   UNL     1       6.250   3.374  12.338  0.00  0.00    +0.000 C 
ATOM     22  O   UNL     1       7.445   3.268  12.059  0.00  0.00    +0.000 OA
BRANCH  19  24
ATOM     23  C   UNL     1       3.582   3.262  10.562  0.00  0.00    +0.000 C 
ATOM     24  O   UNL     1       3.948   2.946  11.907  0.00  0.00    +0.000 OA
ENDBRANCH  19  24
ENDBRANCH  18  21
ENDBRANCH  17  18
ENDBRANCH   1  17
TORSDOF 4
ENDMDL
MODEL 6
REMARK VINA RESULT:      -7.6      6.295      9.290
REMARK  Name = 
REMARK  6 active torsions:
REMARK  status: ('A' for Active; 'I' for Inactive)
REMARK    1  A    between atoms: C_1  and  O_2
REMARK    2  A    between atoms: O_2  and  N_3
REMARK    3  A    between atoms: N_3  and  C_4
REMARK    4  A    between atoms: C_5  and  C_7
REMARK    5  A    between atoms: C_7  and  C_8
REMARK    6  A    between atoms: C_8  and  C_9
REMARK                            x       y       z     vdW  Elec       q    Type
REMARK                         _______ _______ _______ _____ _____    ______ ____
ROOT
ATOM      1  C   UNL     1       7.574   7.921  17.982  0.00  0.00    +0.000 A 
ATOM      2  C   UNL     1       8.337   6.918  18.580  0.00  0.00    +0.000 A 
ATOM      3  C   UNL     1       7.808   5.632  18.752  0.00  0.00    +0.000 A 
ATOM      4  C   UNL     1       6.517   5.316  18.307  0.00  0.00    +0.000 A 
ATOM      5  C   UNL     1       5.715   6.312  17.749  0.00  0.00    +0.000 A 
ATOM      6  C   UNL     1       6.263   7.599  17.597  0.00  0.00    +0.000 A 
ATOM      7  C   UNL     1       4.289   6.175  17.323  0.00  0.00    +0.000 C 
ATOM      8  O   UNL     1       3.758   7.098  16.704  0.00  0.00    +0.000 OA
ATOM      9  C   UNL     1       3.447   5.001  17.630  0.00  0.00    +0.000 A 
ATOM     10  C   UNL     1       2.072   5.217  17.826  0.00  0.00    +0.000 A 
ATOM     11  C   UNL     1       1.218   4.150  18.083  0.00  0.00    +0.000 A 
ATOM     12  C   UNL     1       1.729   2.857  18.140  0.00  0.00    +0.000 A 
ATOM     13  C   UNL     1       3.090   2.632  17.931  0.00  0.00    +0.000 A 
ATOM     14  C   UNL     1       3.961   3.703  17.668  0.00  0.00    +0.000 A 
ATOM     15  C   UNL     1       5.416   3.458  17.415  0.00  0.00    +0.000 C 
ATOM     16  O   UNL     1       6.172   4.006  18.491  0.00  0.00    +0.000 OA
ENDROOT
BRANCH   1  17
ATOM     17  C   UNL     1       8.168   9.305  17.762  0.00  0.00    +0.000 C 
BRANCH  17  18
ATOM     18  C   UNL     1       9.058   9.788  18.911  0.00  0.00    +0.000 C 
BRANCH  18  21
ATOM     19  N   UNL     1       9.526  12.047  19.721  0.00  0.00    +0.000 N 
ATOM     20  C   UNL     1      10.400  13.194  19.850  0.00  0.00    +0.000 C 
ATOM     21  C   UNL     1       9.720  11.132  18.691  0.00  0.00    +0.000 C 
ATOM     22  O   UNL     1      10.347  11.398  17.664  0.00  0.00    +0.000 OA
BRANCH  19  24
ATOM     23  C   UNL     1       9.221  12.542  21.955  0.00  0.00    +0.000 C 
ATOM     24  O   UNL     1       9.199  11.490  20.986  0.00  0.00    +0.000 OA
ENDBRANCH  19  24
ENDBRANCH  18  21
ENDBRANCH  17  18
ENDBRANCH   1  17
TORSDOF 4
ENDMDL
MODEL 7
REMARK VINA RESULT:      -7.6      1.084      1.230
REMARK  Name = 
REMARK  6 active torsions:
REMARK  status: ('A' for Active; 'I' for Inactive)
REMARK    1  A    between atoms: C_1  and  O_2
REMARK    2  A    between atoms: O_2  and  N_3
REMARK    3  A    between atoms: N_3  and  C_4
REMARK    4  A    between atoms: C_5  and  C_7
REMARK    5  A    between atoms: C_7  and  C_8
REMARK    6  A    between atoms: C_8  and  C_9
REMARK                            x       y       z     vdW  Elec       q    Type
REMARK                         _______ _______ _______ _____ _____    ______ ____
ROOT
ATOM      1  C   UNL     1       2.318   7.690  18.808  0.00  0.00    +0.000 A 
ATOM      2  C   UNL     1       2.144   8.524  17.704  0.00  0.00    +0.000 A 
ATOM      3  C   UNL     1       1.529   9.774  17.850  0.00  0.00    +0.000 A 
ATOM      4  C   UNL     1       1.098  10.226  19.105  0.00  0.00    +0.000 A 
ATOM      5  C   UNL     1       1.217   9.394  20.218  0.00  0.00    +0.000 A 
ATOM      6  C   UNL     1       1.828   8.137  20.046  0.00  0.00    +0.000 A 
ATOM      7  C   UNL     1       0.718   9.672  21.598  0.00  0.00    +0.000 C 
ATOM      8  O   UNL     1       1.033   8.910  22.514  0.00  0.00    +0.000 OA
ATOM      9  C   UNL     1      -0.172  10.800  21.940  0.00  0.00    +0.000 A 
ATOM     10  C   UNL     1      -1.096  10.611  22.982  0.00  0.00    +0.000 A 
ATOM     11  C   UNL     1      -1.938  11.644  23.378  0.00  0.00    +0.000 A 
ATOM     12  C   UNL     1      -1.861  12.878  22.739  0.00  0.00    +0.000 A 
ATOM     13  C   UNL     1      -0.936  13.080  21.714  0.00  0.00    +0.000 A 
ATOM     14  C   UNL     1      -0.079  12.043  21.309  0.00  0.00    +0.000 A 
ATOM     15  C   UNL     1       0.933  12.268  20.229  0.00  0.00    +0.000 C 
ATOM     16  O   UNL     1       0.577  11.490  19.091  0.00  0.00    +0.000 OA
ENDROOT
BRANCH   1  17
ATOM     17  C   UNL     1       3.022   6.350  18.651  0.00  0.00    +0.000 C 
BRANCH  17  18
ATOM     18  C   UNL     1       2.149   5.260  18.024  0.00  0.00    +0.000 C 
BRANCH  18  21
ATOM     19  N   UNL     1       1.442   2.968  18.503  0.00  0.00    +0.000 N 
ATOM     20  C   UNL     1       1.288   1.851  19.411  0.00  0.00    +0.000 C 
ATOM     21  C   UNL     1       1.564   4.262  19.002  0.00  0.00    +0.000 C 
ATOM     22  O   UNL     1       1.194   4.585  20.132  0.00  0.00    +0.000 OA
BRANCH  19  24
ATOM     23  C   UNL     1       3.337   1.801  17.896  0.00  0.00    +0.000 C 
ATOM     24  O   UNL     1       2.291   2.646  17.412  0.00  0.00    +0.000 OA
ENDBRANCH  19  24
ENDBRANCH  18  21
ENDBRANCH  17  18
ENDBRANCH   1  17
TORSDOF 4
ENDMDL
MODEL 8
REMARK VINA RESULT:      -7.5      5.767      8.127
REMARK  Name = 
REMARK  6 active torsions:
REMARK  status: ('A' for Active; 'I' for Inactive)
REMARK    1  A    between atoms: C_1  and  O_2
REMARK    2  A    between atoms: O_2  and  N_3
REMARK    3  A    between atoms: N_3  and  C_4
REMARK    4  A    between atoms: C_5  and  C_7
REMARK    5  A    between atoms: C_7  and  C_8
REMARK    6  A    between atoms: C_8  and  C_9
REMARK                            x       y       z     vdW  Elec       q    Type
REMARK                         _______ _______ _______ _____ _____    ______ ____
ROOT
ATOM      1  C   UNL     1       5.747   4.294  14.688  0.00  0.00    +0.000 A 
ATOM      2  C   UNL     1       5.826   5.670  14.904  0.00  0.00    +0.000 A 
ATOM      3  C   UNL     1       5.246   6.244  16.042  0.00  0.00    +0.000 A 
ATOM      4  C   UNL     1       4.598   5.452  17.001  0.00  0.00    +0.000 A 
ATOM      5  C   UNL     1       4.464   4.080  16.788  0.00  0.00    +0.000 A 
ATOM      6  C   UNL     1       5.044   3.527  15.632  0.00  0.00    +0.000 A 
ATOM      7  C   UNL     1       3.717   3.113  17.647  0.00  0.00    +0.000 C 
ATOM      8  O   UNL     1       3.815   1.906  17.417  0.00  0.00    +0.000 OA
ATOM      9  C   UNL     1       2.825   3.513  18.755  0.00  0.00    +0.000 A 
ATOM     10  C   UNL     1       1.708   2.701  19.020  0.00  0.00    +0.000 A 
ATOM     11  C   UNL     1       0.848   3.003  20.071  0.00  0.00    +0.000 A 
ATOM     12  C   UNL     1       1.099   4.114  20.869  0.00  0.00    +0.000 A 
ATOM     13  C   UNL     1       2.213   4.917  20.622  0.00  0.00    +0.000 A 
ATOM     14  C   UNL     1       3.090   4.620  19.565  0.00  0.00    +0.000 A 
ATOM     15  C   UNL     1       4.301   5.464  19.319  0.00  0.00    +0.000 C 
ATOM     16  O   UNL     1       4.142   6.153  18.082  0.00  0.00    +0.000 OA
ENDROOT
BRANCH   1  17
ATOM     17  C   UNL     1       6.413   3.671  13.471  0.00  0.00    +0.000 C 
BRANCH  17  18
ATOM     18  C   UNL     1       5.701   3.977  12.149  0.00  0.00    +0.000 C 
BRANCH  18  21
ATOM     19  N   UNL     1       3.755   3.104  10.954  0.00  0.00    +0.000 N 
ATOM     20  C   UNL     1       3.157   2.214   9.982  0.00  0.00    +0.000 C 
ATOM     21  C   UNL     1       4.994   2.800  11.511  0.00  0.00    +0.000 C 
ATOM     22  O   UNL     1       5.466   1.663  11.520  0.00  0.00    +0.000 OA
BRANCH  19  24
ATOM     23  C   UNL     1       2.742   4.516   9.436  0.00  0.00    +0.000 C 
ATOM     24  O   UNL     1       3.550   4.468  10.614  0.00  0.00    +0.000 OA
ENDBRANCH  19  24
ENDBRANCH  18  21
ENDBRANCH  17  18
ENDBRANCH   1  17
TORSDOF 4
ENDMDL
MODEL 9
REMARK VINA RESULT:      -7.5      2.331      4.059
REMARK  Name = 
REMARK  6 active torsions:
REMARK  status: ('A' for Active; 'I' for Inactive)
REMARK    1  A    between atoms: C_1  and  O_2
REMARK    2  A    between atoms: O_2  and  N_3
REMARK    3  A    between atoms: N_3  and  C_4
REMARK    4  A    between atoms: C_5  and  C_7
REMARK    5  A    between atoms: C_7  and  C_8
REMARK    6  A    between atoms: C_8  and  C_9
REMARK                            x       y       z     vdW  Elec       q    Type
REMARK                         _______ _______ _______ _____ _____    ______ ____
ROOT
ATOM      1  C   UNL     1       2.732   5.718  18.609  0.00  0.00    +0.000 A 
ATOM      2  C   UNL     1       2.470   5.418  19.946  0.00  0.00    +0.000 A 
ATOM      3  C   UNL     1       1.934   6.392  20.798  0.00  0.00    +0.000 A 
ATOM      4  C   UNL     1       1.625   7.675  20.327  0.00  0.00    +0.000 A 
ATOM      5  C   UNL     1       1.920   8.016  19.007  0.00  0.00    +0.000 A 
ATOM      6  C   UNL     1       2.470   7.026  18.171  0.00  0.00    +0.000 A 
ATOM      7  C   UNL     1       1.757   9.360  18.374  0.00  0.00    +0.000 C 
ATOM      8  O   UNL     1       1.913   9.472  17.157  0.00  0.00    +0.000 OA
ATOM      9  C   UNL     1       1.448  10.592  19.127  0.00  0.00    +0.000 A 
ATOM     10  C   UNL     1       1.973  11.803  18.642  0.00  0.00    +0.000 A 
ATOM     11  C   UNL     1       1.691  13.004  19.284  0.00  0.00    +0.000 A 
ATOM     12  C   UNL     1       0.877  13.007  20.412  0.00  0.00    +0.000 A 
ATOM     13  C   UNL     1       0.339  11.812  20.891  0.00  0.00    +0.000 A 
ATOM     14  C   UNL     1       0.615  10.594  20.249  0.00  0.00    +0.000 A 
ATOM     15  C   UNL     1       0.015   9.316  20.746  0.00  0.00    +0.000 C 
ATOM     16  O   UNL     1       1.051   8.487  21.265  0.00  0.00    +0.000 OA
ENDROOT
BRANCH   1  17
ATOM     17  C   UNL     1       3.277   4.645  17.678  0.00  0.00    +0.000 C 
BRANCH  17  18
ATOM     18  C   UNL     1       4.699   4.920  17.178  0.00  0.00    +0.000 C 
BRANCH  18  21
ATOM     19  N   UNL     1       6.894   5.587  18.024  0.00  0.00    +0.000 N 
ATOM     20  C   UNL     1       7.808   5.846  19.116  0.00  0.00    +0.000 C 
ATOM     21  C   UNL     1       5.788   4.764  18.218  0.00  0.00    +0.000 C 
ATOM     22  O   UNL     1       5.712   3.947  19.136  0.00  0.00    +0.000 OA
BRANCH  19  24
ATOM     23  C   UNL     1       7.642   7.730  17.606  0.00  0.00    +0.000 C 
ATOM     24  O   UNL     1       6.666   6.751  17.243  0.00  0.00    +0.000 OA
ENDBRANCH  19  24
ENDBRANCH  18  21
ENDBRANCH  17  18
ENDBRANCH   1  17
TORSDOF 4
ENDMDL
