MODEL 1
REMARK VINA RESULT:      -7.5      0.000      0.000
REMARK  Name = 
REMARK  7 active torsions:
REMARK  status: ('A' for Active; 'I' for Inactive)
REMARK    1  A    between atoms: C_2  and  C_10
REMARK    2  A    between atoms: N_3  and  C_4
REMARK    3  A    between atoms: C_13  and  O_14
REMARK    4  A    between atoms: O_14  and  C_15
REMARK    5  A    between atoms: C_18  and  O_19
REMARK    6  A    between atoms: O_19  and  C_20
REMARK    7  A    between atoms: C_20  and  C_21
REMARK                            x       y       z     vdW  Elec       q    Type
REMARK                         _______ _______ _______ _____ _____    ______ ____
ROOT
ATOM      1  C   UNL     1       2.970   5.606  19.115  0.00  0.00    +0.000 A 
ATOM      2  C   UNL     1       2.486   5.063  17.928  0.00  0.00    +0.000 A 
ATOM      3  C   UNL     1       3.365   4.373  17.092  0.00  0.00    +0.000 A 
ATOM      4  C   UNL     1       4.722   4.236  17.420  0.00  0.00    +0.000 A 
ATOM      5  C   UNL     1       5.201   4.763  18.629  0.00  0.00    +0.000 A 
ATOM      6  C   UNL     1       4.326   5.467  19.457  0.00  0.00    +0.000 A 
ENDROOT
BRANCH   1   8
ATOM      7  O   UNL     1       1.447   5.755  20.854  0.00  0.00    +0.000 OA
ATOM      8  C   UNL     1       2.110   6.389  20.036  0.00  0.00    +0.000 C 
ATOM      9  N   UNL     1       2.078   7.758  19.839  0.00  0.00    +0.000 N 
ATOM     10  H   UNL     1       2.520   8.127  19.007  0.00  0.00    +0.000 HD
BRANCH   9  11
ATOM     11  C   UNL     1       1.276   8.657  20.581  0.00  0.00    +0.000 A 
ATOM     12  C   UNL     1       0.303   9.473  20.004  0.00  0.00    +0.000 A 
ATOM     13  C   UNL     1      -0.399  10.381  20.789  0.00  0.00    +0.000 A 
ATOM     14  C   UNL     1      -0.122  10.437  22.141  0.00  0.00    +0.000 A 
ATOM     15  N   UNL     1       0.776   9.635  22.753  0.00  0.00    +0.000 NA
ATOM     16  C   UNL     1       1.453   8.768  21.959  0.00  0.00    +0.000 A 
ENDBRANCH   9  11
ENDBRANCH   1   8
BRANCH   4  17
ATOM     17  O   UNL     1       5.430   3.515  16.498  0.00  0.00    +0.000 OA
BRANCH  17  18
ATOM     18  C   UNL     1       6.070   4.239  15.459  0.00  0.00    +0.000 C 
ATOM     19  F   UNL     1       7.387   4.364  15.751  0.00  0.00    +0.000 F 
ATOM     20  F   UNL     1       6.010   3.453  14.350  0.00  0.00    +0.000 F 
ENDBRANCH  17  18
ENDBRANCH   4  17
BRANCH   5  21
ATOM     21  O   UNL     1       6.520   4.586  18.932  0.00  0.00    +0.000 OA
BRANCH  21  22
ATOM     22  C   UNL     1       7.266   5.736  19.338  0.00  0.00    +0.000 C 
BRANCH  22  23
ATOM     23  C   UNL     1       7.754   6.423  18.096  0.00  0.00    +0.000 C 
ATOM     24  C   UNL     1       6.873   7.411  17.375  0.00  0.00    +0.000 C 
ATOM     25  C   UNL     1       8.089   7.895  18.115  0.00  0.00    +0.000 C 
ENDBRANCH  22  23
ENDBRANCH  21  22
ENDBRANCH   5  21
TORSDOF 7
ENDMDL
MODEL 2
REMARK VINA RESULT:      -7.5      0.751      1.166
REMARK  Name = 
REMARK  7 active torsions:
REMARK  status: ('A' for Active; 'I' for Inactive)
REMARK    1  A    between atoms: C_2  and  C_10
REMARK    2  A    between atoms: N_3  and  C_4
REMARK    3  A    between atoms: C_13  and  O_14
REMARK    4  A    between atoms: O_14  and  C_15
REMARK    5  A    between atoms: C_18  and  O_19
REMARK    6  A    between atoms: O_19  and  C_20
REMARK    7  A    between atoms: C_20  and  C_21
REMARK                            x       y       z     vdW  Elec       q    Type
REMARK                         _______ _______ _______ _____ _____    ______ ____
ROOT
ATOM      1  C   UNL     1       2.983   5.431  19.028  0.00  0.00    +0.000 A 
ATOM      2  C   UNL     1       2.478   4.804  17.892  0.00  0.00    +0.000 A 
ATOM      3  C   UNL     1       3.354   4.105  17.060  0.00  0.00    +0.000 A 
ATOM      4  C   UNL     1       4.727   4.041  17.341  0.00  0.00    +0.000 A 
ATOM      5  C   UNL     1       5.227   4.652  18.501  0.00  0.00    +0.000 A 
ATOM      6  C   UNL     1       4.355   5.365  19.324  0.00  0.00    +0.000 A 
ENDROOT
BRANCH   1   8
ATOM      7  O   UNL     1       1.402   5.604  20.712  0.00  0.00    +0.000 OA
ATOM      8  C   UNL     1       2.125   6.228  19.939  0.00  0.00    +0.000 C 
ATOM      9  N   UNL     1       2.165   7.602  19.782  0.00  0.00    +0.000 N 
ATOM     10  H   UNL     1       2.657   7.973  18.979  0.00  0.00    +0.000 HD
BRANCH   9  11
ATOM     11  C   UNL     1       1.379   8.518  20.520  0.00  0.00    +0.000 A 
ATOM     12  C   UNL     1       1.384   8.588  21.912  0.00  0.00    +0.000 A 
ATOM     13  C   UNL     1       0.534   9.470  22.570  0.00  0.00    +0.000 A 
ATOM     14  C   UNL     1      -0.293  10.277  21.813  0.00  0.00    +0.000 A 
ATOM     15  N   UNL     1      -0.300  10.280  20.462  0.00  0.00    +0.000 NA
ATOM     16  C   UNL     1       0.533   9.400  19.851  0.00  0.00    +0.000 A 
ENDBRANCH   9  11
ENDBRANCH   1   8
BRANCH   4  17
ATOM     17  O   UNL     1       5.430   3.299  16.432  0.00  0.00    +0.000 OA
BRANCH  17  18
ATOM     18  C   UNL     1       6.039   3.996  15.357  0.00  0.00    +0.000 C 
ATOM     19  F   UNL     1       5.478   5.225  15.251  0.00  0.00    +0.000 F 
ATOM     20  F   UNL     1       7.332   4.211  15.722  0.00  0.00    +0.000 F 
ENDBRANCH  17  18
ENDBRANCH   4  17
BRANCH   5  21
ATOM     21  O   UNL     1       6.563   4.545  18.760  0.00  0.00    +0.000 OA
BRANCH  21  22
ATOM     22  C   UNL     1       7.244   5.716  19.218  0.00  0.00    +0.000 C 
BRANCH  22  23
ATOM     23  C   UNL     1       7.727   6.463  18.008  0.00  0.00    +0.000 C 
ATOM     24  C   UNL     1       6.841   7.478  17.334  0.00  0.00    +0.000 C 
ATOM     25  C   UNL     1       8.054   7.934  18.095  0.00  0.00    +0.000 C 
ENDBRANCH  22  23
ENDBRANCH  21  22
ENDBRANCH   5  21
TORSDOF 7
ENDMDL
MODEL 3
REMARK VINA RESULT:      -7.5      1.958      3.471
REMARK  Name = 
REMARK  7 active torsions:
REMARK  status: ('A' for Active; 'I' for Inactive)
REMARK    1  A    between atoms: C_2  and  C_10
REMARK    2  A    between atoms: N_3  and  C_4
REMARK    3  A    between atoms: C_13  and  O_14
REMARK    4  A    between atoms: O_14  and  C_15
REMARK    5  A    between atoms: C_18  and  O_19
REMARK    6  A    between atoms: O_19  and  C_20
REMARK    7  A    between atoms: C_20  and  C_21
REMARK                            x       y       z     vdW  Elec       q    Type
REMARK                         _______ _______ _______ _____ _____    ______ ____
ROOT
ATOM      1  C   UNL     1       2.967   6.987  18.068  0.00  0.00    +0.000 A 
ATOM      2  C   UNL     1       4.034   7.258  17.215  0.00  0.00    +0.000 A 
ATOM      3  C   UNL     1       4.779   6.194  16.705  0.00  0.00    +0.000 A 
ATOM      4  C   UNL     1       4.482   4.867  17.052  0.00  0.00    +0.000 A 
ATOM      5  C   UNL     1       3.390   4.597  17.891  0.00  0.00    +0.000 A 
ATOM      6  C   UNL     1       2.655   5.662  18.414  0.00  0.00    +0.000 A 
ENDROOT
BRANCH   1   8
ATOM      7  O   UNL     1       1.936   9.059  17.998  0.00  0.00    +0.000 OA
ATOM      8  C   UNL     1       2.153   8.064  18.684  0.00  0.00    +0.000 C 
ATOM      9  N   UNL     1       1.777   7.878  20.002  0.00  0.00    +0.000 N 
ATOM     10  H   UNL     1       2.188   7.102  20.507  0.00  0.00    +0.000 HD
BRANCH   9  11
ATOM     11  C   UNL     1       1.049   8.817  20.769  0.00  0.00    +0.000 A 
ATOM     12  C   UNL     1       0.064   9.647  20.235  0.00  0.00    +0.000 A 
ATOM     13  C   UNL     1      -0.562  10.593  21.039  0.00  0.00    +0.000 A 
ATOM     14  C   UNL     1      -0.198  10.672  22.370  0.00  0.00    +0.000 A 
ATOM     15  N   UNL     1       0.715   9.859  22.944  0.00  0.00    +0.000 NA
ATOM     16  C   UNL     1       1.316   8.955  22.130  0.00  0.00    +0.000 A 
ENDBRANCH   9  11
ENDBRANCH   1   8
BRANCH   4  17
ATOM     17  O   UNL     1       5.301   3.954  16.446  0.00  0.00    +0.000 OA
BRANCH  17  18
ATOM     18  C   UNL     1       6.469   4.450  15.812  0.00  0.00    +0.000 C 
ATOM     19  F   UNL     1       7.546   4.170  16.586  0.00  0.00    +0.000 F 
ATOM     20  F   UNL     1       6.630   3.717  14.677  0.00  0.00    +0.000 F 
ENDBRANCH  17  18
ENDBRANCH   4  17
BRANCH   5  21
ATOM     21  O   UNL     1       3.110   3.293  18.184  0.00  0.00    +0.000 OA
BRANCH  21  22
ATOM     22  C   UNL     1       1.753   2.960  18.487  0.00  0.00    +0.000 C 
BRANCH  22  23
ATOM     23  C   UNL     1       1.730   2.347  19.857  0.00  0.00    +0.000 C 
ATOM     24  C   UNL     1       2.699   2.807  20.915  0.00  0.00    +0.000 C 
ATOM     25  C   UNL     1       1.238   3.138  21.044  0.00  0.00    +0.000 C 
ENDBRANCH  22  23
ENDBRANCH  21  22
ENDBRANCH   5  21
TORSDOF 7
ENDMDL
MODEL 4
REMARK VINA RESULT:      -7.3      2.421      3.802
REMARK  Name = 
REMARK  7 active torsions:
REMARK  status: ('A' for Active; 'I' for Inactive)
REMARK    1  A    between atoms: C_2  and  C_10
REMARK    2  A    between atoms: N_3  and  C_4
REMARK    3  A    between atoms: C_13  and  O_14
REMARK    4  A    between atoms: O_14  and  C_15
REMARK    5  A    between atoms: C_18  and  O_19
REMARK    6  A    between atoms: O_19  and  C_20
REMARK    7  A    between atoms: C_20  and  C_21
REMARK                            x       y       z     vdW  Elec       q    Type
REMARK                         _______ _______ _______ _____ _____    ______ ____
ROOT
ATOM      1  C   UNL     1       3.037   7.019  18.121  0.00  0.00    +0.000 A 
ATOM      2  C   UNL     1       4.062   7.323  17.228  0.00  0.00    +0.000 A 
ATOM      3  C   UNL     1       4.870   6.290  16.750  0.00  0.00    +0.000 A 
ATOM      4  C   UNL     1       4.677   4.964  17.167  0.00  0.00    +0.000 A 
ATOM      5  C   UNL     1       3.627   4.659  18.047  0.00  0.00    +0.000 A 
ATOM      6  C   UNL     1       2.829   5.694  18.538  0.00  0.00    +0.000 A 
ENDROOT
BRANCH   1   8
ATOM      7  O   UNL     1       1.878   7.952  19.897  0.00  0.00    +0.000 OA
ATOM      8  C   UNL     1       2.162   8.065  18.707  0.00  0.00    +0.000 C 
ATOM      9  N   UNL     1       1.688   9.032  17.839  0.00  0.00    +0.000 N 
ATOM     10  H   UNL     1       1.843   8.896  16.848  0.00  0.00    +0.000 HD
BRANCH   9  11
ATOM     11  C   UNL     1       0.803  10.073  18.203  0.00  0.00    +0.000 A 
ATOM     12  C   UNL     1      -0.579  10.003  18.028  0.00  0.00    +0.000 A 
ATOM     13  C   UNL     1      -1.380  11.094  18.349  0.00  0.00    +0.000 A 
ATOM     14  C   UNL     1      -0.776  12.228  18.856  0.00  0.00    +0.000 A 
ATOM     15  N   UNL     1       0.551  12.327  19.088  0.00  0.00    +0.000 NA
ATOM     16  C   UNL     1       1.306  11.250  18.754  0.00  0.00    +0.000 A 
ENDBRANCH   9  11
ENDBRANCH   1   8
BRANCH   4  17
ATOM     17  O   UNL     1       5.546   4.083  16.584  0.00  0.00    +0.000 OA
BRANCH  17  18
ATOM     18  C   UNL     1       6.770   4.606  16.095  0.00  0.00    +0.000 C 
ATOM     19  F   UNL     1       7.780   4.193  16.898  0.00  0.00    +0.000 F 
ATOM     20  F   UNL     1       6.988   4.011  14.891  0.00  0.00    +0.000 F 
ENDBRANCH  17  18
ENDBRANCH   4  17
BRANCH   5  21
ATOM     21  O   UNL     1       3.448   3.356  18.409  0.00  0.00    +0.000 OA
BRANCH  21  22
ATOM     22  C   UNL     1       3.435   3.052  19.806  0.00  0.00    +0.000 C 
BRANCH  22  23
ATOM     23  C   UNL     1       2.073   2.519  20.143  0.00  0.00    +0.000 C 
ATOM     24  C   UNL     1       1.562   2.571  21.560  0.00  0.00    +0.000 C 
ATOM     25  C   UNL     1       0.951   3.459  20.512  0.00  0.00    +0.000 C 
ENDBRANCH  22  23
ENDBRANCH  21  22
ENDBRANCH   5  21
TORSDOF 7
ENDMDL
MODEL 5
REMARK VINA RESULT:      -7.3      2.435      3.873
REMARK  Name = 
REMARK  7 active torsions:
REMARK  status: ('A' for Active; 'I' for Inactive)
REMARK    1  A    between atoms: C_2  and  C_10
REMARK    2  A    between atoms: N_3  and  C_4
REMARK    3  A    between atoms: C_13  and  O_14
REMARK    4  A    between atoms: O_14  and  C_15
REMARK    5  A    between atoms: C_18  and  O_19
REMARK    6  A    between atoms: O_19  and  C_20
REMARK    7  A    between atoms: C_20  and  C_21
REMARK                            x       y       z     vdW  Elec       q    Type
REMARK                         _______ _______ _______ _____ _____    ______ ____
ROOT
ATOM      1  C   UNL     1       3.010   6.962  18.064  0.00  0.00    +0.000 A 
ATOM      2  C   UNL     1       4.088   7.221  17.221  0.00  0.00    +0.000 A 
ATOM      3  C   UNL     1       4.815   6.149  16.704  0.00  0.00    +0.000 A 
ATOM      4  C   UNL     1       4.488   4.824  17.033  0.00  0.00    +0.000 A 
ATOM      5  C   UNL     1       3.386   4.566  17.861  0.00  0.00    +0.000 A 
ATOM      6  C   UNL     1       2.668   5.639  18.392  0.00  0.00    +0.000 A 
ENDROOT
BRANCH   1   8
ATOM      7  O   UNL     1       1.917   7.912  19.872  0.00  0.00    +0.000 OA
ATOM      8  C   UNL     1       2.214   8.048  18.688  0.00  0.00    +0.000 C 
ATOM      9  N   UNL     1       1.817   9.080  17.856  0.00  0.00    +0.000 N 
ATOM     10  H   UNL     1       1.964   8.970  16.860  0.00  0.00    +0.000 HD
BRANCH   9  11
ATOM     11  C   UNL     1       1.010  10.170  18.258  0.00  0.00    +0.000 A 
ATOM     12  C   UNL     1       1.528  11.375  18.732  0.00  0.00    +0.000 A 
ATOM     13  C   UNL     1       0.670  12.378  19.171  0.00  0.00    +0.000 A 
ATOM     14  C   UNL     1      -0.691  12.155  19.108  0.00  0.00    +0.000 A 
ATOM     15  N   UNL     1      -1.241  11.025  18.614  0.00  0.00    +0.000 NA
ATOM     16  C   UNL     1      -0.378  10.062  18.204  0.00  0.00    +0.000 A 
ENDBRANCH   9  11
ENDBRANCH   1   8
BRANCH   4  17
ATOM     17  O   UNL     1       5.294   3.902  16.421  0.00  0.00    +0.000 OA
BRANCH  17  18
ATOM     18  C   UNL     1       6.417   4.393  15.707  0.00  0.00    +0.000 C 
ATOM     19  F   UNL     1       7.531   4.214  16.456  0.00  0.00    +0.000 F 
ATOM     20  F   UNL     1       6.566   3.583  14.624  0.00  0.00    +0.000 F 
ENDBRANCH  17  18
ENDBRANCH   4  17
BRANCH   5  21
ATOM     21  O   UNL     1       3.077   3.265  18.136  0.00  0.00    +0.000 OA
BRANCH  21  22
ATOM     22  C   UNL     1       1.710   2.954  18.415  0.00  0.00    +0.000 C 
BRANCH  22  23
ATOM     23  C   UNL     1       1.653   2.333  19.780  0.00  0.00    +0.000 C 
ATOM     24  C   UNL     1       2.617   2.766  20.855  0.00  0.00    +0.000 C 
ATOM     25  C   UNL     1       1.162   3.129  20.965  0.00  0.00    +0.000 C 
ENDBRANCH  22  23
ENDBRANCH  21  22
ENDBRANCH   5  21
TORSDOF 7
ENDMDL
MODEL 6
REMARK VINA RESULT:      -7.3      3.824      4.569
REMARK  Name = 
REMARK  7 active torsions:
REMARK  status: ('A' for Active; 'I' for Inactive)
REMARK    1  A    between atoms: C_2  and  C_10
REMARK    2  A    between atoms: N_3  and  C_4
REMARK    3  A    between atoms: C_13  and  O_14
REMARK    4  A    between atoms: O_14  and  C_15
REMARK    5  A    between atoms: C_18  and  O_19
REMARK    6  A    between atoms: O_19  and  C_20
REMARK    7  A    between atoms: C_20  and  C_21
REMARK                            x       y       z     vdW  Elec       q    Type
REMARK                         _______ _______ _______ _____ _____    ______ ____
ROOT
ATOM      1  C   UNL     1       5.018   4.105  16.455  0.00  0.00    +0.000 A 
ATOM      2  C   UNL     1       5.150   3.615  15.158  0.00  0.00    +0.000 A 
ATOM      3  C   UNL     1       6.169   4.117  14.347  0.00  0.00    +0.000 A 
ATOM      4  C   UNL     1       7.042   5.113  14.810  0.00  0.00    +0.000 A 
ATOM      5  C   UNL     1       6.921   5.585  16.126  0.00  0.00    +0.000 A 
ATOM      6  C   UNL     1       5.892   5.096  16.932  0.00  0.00    +0.000 A 
ENDROOT
BRANCH   1   8
ATOM      7  O   UNL     1       2.933   3.172  16.842  0.00  0.00    +0.000 OA
ATOM      8  C   UNL     1       3.935   3.654  17.365  0.00  0.00    +0.000 C 
ATOM      9  N   UNL     1       4.125   3.885  18.715  0.00  0.00    +0.000 N 
ATOM     10  H   UNL     1       4.908   4.465  18.991  0.00  0.00    +0.000 HD
BRANCH   9  11
ATOM     11  C   UNL     1       3.183   3.575  19.723  0.00  0.00    +0.000 A 
ATOM     12  C   UNL     1       1.901   4.121  19.770  0.00  0.00    +0.000 A 
ATOM     13  C   UNL     1       1.053   3.819  20.830  0.00  0.00    +0.000 A 
ATOM     14  C   UNL     1       1.505   2.959  21.812  0.00  0.00    +0.000 A 
ATOM     15  N   UNL     1       2.719   2.368  21.786  0.00  0.00    +0.000 NA
ATOM     16  C   UNL     1       3.527   2.692  20.745  0.00  0.00    +0.000 A 
ENDBRANCH   9  11
ENDBRANCH   1   8
BRANCH   4  17
ATOM     17  O   UNL     1       7.989   5.471  13.890  0.00  0.00    +0.000 OA
BRANCH  17  18
ATOM     18  C   UNL     1       7.578   5.555  12.535  0.00  0.00    +0.000 C 
ATOM     19  F   UNL     1       8.316   6.501  11.905  0.00  0.00    +0.000 F 
ATOM     20  F   UNL     1       7.923   4.372  11.956  0.00  0.00    +0.000 F 
ENDBRANCH  17  18
ENDBRANCH   4  17
BRANCH   5  21
ATOM     21  O   UNL     1       7.806   6.532  16.554  0.00  0.00    +0.000 OA
BRANCH  21  22
ATOM     22  C   UNL     1       7.322   7.528  17.460  0.00  0.00    +0.000 C 
BRANCH  22  23
ATOM     23  C   UNL     1       8.361   8.608  17.545  0.00  0.00    +0.000 C 
ATOM     24  C   UNL     1       7.970  10.017  17.907  0.00  0.00    +0.000 C 
ATOM     25  C   UNL     1       8.758   9.187  18.881  0.00  0.00    +0.000 C 
ENDBRANCH  22  23
ENDBRANCH  21  22
ENDBRANCH   5  21
TORSDOF 7
ENDMDL
MODEL 7
REMARK VINA RESULT:      -7.2      3.997      7.662
REMARK  Name = 
REMARK  7 active torsions:
REMARK  status: ('A' for Active; 'I' for Inactive)
REMARK    1  A    between atoms: C_2  and  C_10
REMARK    2  A    between atoms: N_3  and  C_4
REMARK    3  A    between atoms: C_13  and  O_14
REMARK    4  A    between atoms: O_14  and  C_15
REMARK    5  A    between atoms: C_18  and  O_19
REMARK    6  A    between atoms: O_19  and  C_20
REMARK    7  A    between atoms: C_20  and  C_21
REMARK                            x       y       z     vdW  Elec       q    Type
REMARK                         _______ _______ _______ _____ _____    ______ ____
ROOT
ATOM      1  C   UNL     1       3.605   4.685  17.488  0.00  0.00    +0.000 A 
ATOM      2  C   UNL     1       3.073   3.398  17.514  0.00  0.00    +0.000 A 
ATOM      3  C   UNL     1       2.223   3.039  18.561  0.00  0.00    +0.000 A 
ATOM      4  C   UNL     1       1.915   3.944  19.588  0.00  0.00    +0.000 A 
ATOM      5  C   UNL     1       2.432   5.247  19.545  0.00  0.00    +0.000 A 
ATOM      6  C   UNL     1       3.295   5.601  18.506  0.00  0.00    +0.000 A 
ENDROOT
BRANCH   1   8
ATOM      7  O   UNL     1       4.726   6.339  16.317  0.00  0.00    +0.000 OA
ATOM      8  C   UNL     1       4.549   5.129  16.432  0.00  0.00    +0.000 C 
ATOM      9  N   UNL     1       5.086   4.141  15.627  0.00  0.00    +0.000 N 
ATOM     10  H   UNL     1       4.705   3.206  15.706  0.00  0.00    +0.000 HD
BRANCH   9  11
ATOM     11  C   UNL     1       5.958   4.378  14.538  0.00  0.00    +0.000 A 
ATOM     12  C   UNL     1       5.801   3.786  13.286  0.00  0.00    +0.000 A 
ATOM     13  C   UNL     1       6.737   4.016  12.283  0.00  0.00    +0.000 A 
ATOM     14  C   UNL     1       7.803   4.851  12.556  0.00  0.00    +0.000 A 
ATOM     15  N   UNL     1       7.972   5.485  13.737  0.00  0.00    +0.000 NA
ATOM     16  C   UNL     1       7.048   5.231  14.697  0.00  0.00    +0.000 A 
ENDBRANCH   9  11
ENDBRANCH   1   8
BRANCH   4  17
ATOM     17  O   UNL     1       1.054   3.429  20.519  0.00  0.00    +0.000 OA
BRANCH  17  18
ATOM     18  C   UNL     1       1.618   2.679  21.582  0.00  0.00    +0.000 C 
ATOM     19  F   UNL     1       2.465   3.471  22.283  0.00  0.00    +0.000 F 
ATOM     20  F   UNL     1       0.596   2.388  22.432  0.00  0.00    +0.000 F 
ENDBRANCH  17  18
ENDBRANCH   4  17
BRANCH   5  21
ATOM     21  O   UNL     1       2.088   6.110  20.544  0.00  0.00    +0.000 OA
BRANCH  21  22
ATOM     22  C   UNL     1       1.935   7.490  20.202  0.00  0.00    +0.000 C 
BRANCH  22  23
ATOM     23  C   UNL     1       0.913   8.078  21.131  0.00  0.00    +0.000 C 
ATOM     24  C   UNL     1       1.301   9.157  22.109  0.00  0.00    +0.000 C 
ATOM     25  C   UNL     1       0.421   9.491  20.937  0.00  0.00    +0.000 C 
ENDBRANCH  22  23
ENDBRANCH  21  22
ENDBRANCH   5  21
TORSDOF 7
ENDMDL
MODEL 8
REMARK VINA RESULT:      -7.2      2.524      3.185
REMARK  Name = 
REMARK  7 active torsions:
REMARK  status: ('A' for Active; 'I' for Inactive)
REMARK    1  A    between atoms: C_2  and  C_10
REMARK    2  A    between atoms: N_3  and  C_4
REMARK    3  A    between atoms: C_13  and  O_14
REMARK    4  A    between atoms: O_14  and  C_15
REMARK    5  A    between atoms: C_18  and  O_19
REMARK    6  A    between atoms: O_19  and  C_20
REMARK    7  A    between atoms: C_20  and  C_21
REMARK                            x       y       z     vdW  Elec       q    Type
REMARK                         _______ _______ _______ _____ _____    ______ ____
ROOT
ATOM      1  C   UNL     1       2.379   6.473  19.852  0.00  0.00    +0.000 A 
ATOM      2  C   UNL     1       2.018   5.326  20.555  0.00  0.00    +0.000 A 
ATOM      3  C   UNL     1       2.652   4.121  20.252  0.00  0.00    +0.000 A 
ATOM      4  C   UNL     1       3.627   4.045  19.245  0.00  0.00    +0.000 A 
ATOM      5  C   UNL     1       4.005   5.208  18.557  0.00  0.00    +0.000 A 
ATOM      6  C   UNL     1       3.360   6.411  18.848  0.00  0.00    +0.000 A 
ENDROOT
BRANCH   1   8
ATOM      7  O   UNL     1       1.711   8.576  19.146  0.00  0.00    +0.000 OA
ATOM      8  C   UNL     1       1.722   7.784  20.085  0.00  0.00    +0.000 C 
ATOM      9  N   UNL     1       1.247   8.018  21.363  0.00  0.00    +0.000 N 
ATOM     10  H   UNL     1       1.495   7.358  22.089  0.00  0.00    +0.000 HD
BRANCH   9  11
ATOM     11  C   UNL     1       0.644   9.226  21.786  0.00  0.00    +0.000 A 
ATOM     12  C   UNL     1      -0.370   9.284  22.742  0.00  0.00    +0.000 A 
ATOM     13  C   UNL     1      -0.961  10.502  23.059  0.00  0.00    +0.000 A 
ATOM     14  C   UNL     1      -0.508  11.640  22.420  0.00  0.00    +0.000 A 
ATOM     15  N   UNL     1       0.502  11.641  21.522  0.00  0.00    +0.000 NA
ATOM     16  C   UNL     1       1.050  10.436  21.227  0.00  0.00    +0.000 A 
ENDBRANCH   9  11
ENDBRANCH   1   8
BRANCH   4  17
ATOM     17  O   UNL     1       4.154   2.792  19.097  0.00  0.00    +0.000 OA
BRANCH  17  18
ATOM     18  C   UNL     1       3.268   1.757  18.701  0.00  0.00    +0.000 C 
ATOM     19  F   UNL     1       2.736   2.067  17.494  0.00  0.00    +0.000 F 
ATOM     20  F   UNL     1       4.037   0.653  18.493  0.00  0.00    +0.000 F 
ENDBRANCH  17  18
ENDBRANCH   4  17
BRANCH   5  21
ATOM     21  O   UNL     1       4.977   5.105  17.605  0.00  0.00    +0.000 OA
BRANCH  21  22
ATOM     22  C   UNL     1       4.614   4.527  16.348  0.00  0.00    +0.000 C 
BRANCH  22  23
ATOM     23  C   UNL     1       5.569   5.050  15.315  0.00  0.00    +0.000 C 
ATOM     24  C   UNL     1       7.021   4.647  15.345  0.00  0.00    +0.000 C 
ATOM     25  C   UNL     1       6.126   4.134  14.252  0.00  0.00    +0.000 C 
ENDBRANCH  22  23
ENDBRANCH  21  22
ENDBRANCH   5  21
TORSDOF 7
ENDMDL
MODEL 9
REMARK VINA RESULT:      -7.2      2.337      3.720
REMARK  Name = 
REMARK  7 active torsions:
REMARK  status: ('A' for Active; 'I' for Inactive)
REMARK    1  A    between atoms: C_2  and  C_10
REMARK    2  A    between atoms: N_3  and  C_4
REMARK    3  A    between atoms: C_13  and  O_14
REMARK    4  A    between atoms: O_14  and  C_15
REMARK    5  A    between atoms: C_18  and  O_19
REMARK    6  A    between atoms: O_19  and  C_20
REMARK    7  A    between atoms: C_20  and  C_21
REMARK                            x       y       z     vdW  Elec       q    Type
REMARK                         _______ _______ _______ _____ _____    ______ ____
ROOT
ATOM      1  C   UNL     1       2.964   7.434  17.862  0.00  0.00    +0.000 A 
ATOM      2  C   UNL     1       4.137   7.520  17.115  0.00  0.00    +0.000 A 
ATOM      3  C   UNL     1       4.876   6.359  16.882  0.00  0.00    +0.000 A 
ATOM      4  C   UNL     1       4.467   5.121  17.401  0.00  0.00    +0.000 A 
ATOM      5  C   UNL     1       3.272   5.035  18.131  0.00  0.00    +0.000 A 
ATOM      6  C   UNL     1       2.541   6.198  18.378  0.00  0.00    +0.000 A 
ENDROOT
BRANCH   1   8
ATOM      7  O   UNL     1       2.208   9.576  17.409  0.00  0.00    +0.000 OA
ATOM      8  C   UNL     1       2.146   8.628  18.188  0.00  0.00    +0.000 C 
ATOM      9  N   UNL     1       1.443   8.590  19.379  0.00  0.00    +0.000 N 
ATOM     10  H   UNL     1       1.634   7.827  20.017  0.00  0.00    +0.000 HD
BRANCH   9  11
ATOM     11  C   UNL     1       0.656   9.652  19.881  0.00  0.00    +0.000 A 
ATOM     12  C   UNL     1       0.893  10.270  21.109  0.00  0.00    +0.000 A 
ATOM     13  C   UNL     1       0.035  11.264  21.566  0.00  0.00    +0.000 A 
ATOM     14  C   UNL     1      -1.035  11.629  20.772  0.00  0.00    +0.000 A 
ATOM     15  N   UNL     1      -1.279  11.094  19.556  0.00  0.00    +0.000 NA
ATOM     16  C   UNL     1      -0.430  10.119  19.143  0.00  0.00    +0.000 A 
ENDBRANCH   9  11
ENDBRANCH   1   8
BRANCH   4  17
ATOM     17  O   UNL     1       5.300   4.091  17.059  0.00  0.00    +0.000 OA
BRANCH  17  18
ATOM     18  C   UNL     1       6.310   4.363  16.101  0.00  0.00    +0.000 C 
ATOM     19  F   UNL     1       7.524   4.236  16.688  0.00  0.00    +0.000 F 
ATOM     20  F   UNL     1       6.240   3.366  15.177  0.00  0.00    +0.000 F 
ENDBRANCH  17  18
ENDBRANCH   4  17
BRANCH   5  21
ATOM     21  O   UNL     1       2.888   3.811  18.595  0.00  0.00    +0.000 OA
BRANCH  21  22
ATOM     22  C   UNL     1       3.394   3.397  19.867  0.00  0.00    +0.000 C 
BRANCH  22  23
ATOM     23  C   UNL     1       2.352   3.720  20.898  0.00  0.00    +0.000 C 
ATOM     24  C   UNL     1       0.890   3.514  20.597  0.00  0.00    +0.000 C 
ATOM     25  C   UNL     1       1.583   2.617  21.584  0.00  0.00    +0.000 C 
ENDBRANCH  22  23
ENDBRANCH  21  22
ENDBRANCH   5  21
TORSDOF 7
ENDMDL
