MODEL 1
REMARK VINA RESULT:      -8.3      0.000      0.000
REMARK  Name = 
REMARK  7 active torsions:
REMARK  status: ('A' for Active; 'I' for Inactive)
REMARK    1  A    between atoms: C_1  and  C_2
REMARK    2  A    between atoms: C_2  and  O_3
REMARK    3  A    between atoms: O_3  and  C_4
REMARK    4  A    between atoms: C_7  and  C_8
REMARK    5  A    between atoms: C_10  and  C_11
REMARK    6  A    between atoms: C_11  and  O_13
REMARK    7  A    between atoms: N_15  and  C_16
REMARK                            x       y       z     vdW  Elec       q    Type
REMARK                         _______ _______ _______ _____ _____    ______ ____
ROOT
ATOM      1  C   UNL     1       4.024   6.135  18.099  0.00  0.00    +0.000 A 
ATOM      2  C   UNL     1       5.212   6.275  17.401  0.00  0.00    +0.000 A 
ATOM      3  C   UNL     1       5.879   5.041  17.505  0.00  0.00    +0.000 A 
ATOM      4  N   UNL     1       5.174   4.160  18.236  0.00  0.00    +0.000 NA
ATOM      5  N   UNL     1       3.979   4.784  18.464  0.00  0.00    +0.000 N 
ENDROOT
BRANCH   1   9
ATOM      6  C   UNL     1       1.245   9.232  19.160  0.00  0.00    +0.000 A 
ATOM      7  C   UNL     1       1.522   8.192  20.045  0.00  0.00    +0.000 A 
ATOM      8  C   UNL     1       2.423   7.182  19.695  0.00  0.00    +0.000 A 
ATOM      9  C   UNL     1       3.043   7.178  18.439  0.00  0.00    +0.000 A 
ATOM     10  C   UNL     1       2.672   8.175  17.523  0.00  0.00    +0.000 A 
ATOM     11  C   UNL     1       1.802   9.210  17.886  0.00  0.00    +0.000 A 
BRANCH   6  12
ATOM     12  O   UNL     1       0.403  10.197  19.635  0.00  0.00    +0.000 OA
BRANCH  12  14
ATOM     13  C   UNL     1      -1.640  10.276  18.421  0.00  0.00    +0.000 C 
ATOM     14  C   UNL     1      -0.300  10.952  18.646  0.00  0.00    +0.000 C 
ENDBRANCH  12  14
ENDBRANCH   6  12
ENDBRANCH   1   9
BRANCH   5  15
ATOM     15  C   UNL     1       2.898   4.025  18.997  0.00  0.00    +0.000 A 
ATOM     16  C   UNL     1       2.835   3.800  20.380  0.00  0.00    +0.000 A 
ATOM     17  C   UNL     1       1.732   3.141  20.928  0.00  0.00    +0.000 A 
ATOM     18  C   UNL     1       0.711   2.675  20.100  0.00  0.00    +0.000 A 
ATOM     19  C   UNL     1       0.796   2.849  18.721  0.00  0.00    +0.000 A 
ATOM     20  C   UNL     1       1.890   3.515  18.167  0.00  0.00    +0.000 A 
ENDBRANCH   5  15
BRANCH   3  21
ATOM     21  C   UNL     1       7.181   4.669  16.951  0.00  0.00    +0.000 C 
ATOM     22  O   UNL     1       7.528   4.874  15.795  0.00  0.00    +0.000 OA
BRANCH  21  23
ATOM     23  O   UNL     1       7.980   4.052  17.867  0.00  0.00    +0.000 OA
ATOM     24  H   UNL     1       7.747   3.094  17.832  0.00  0.00    +0.000 HD
ENDBRANCH  21  23
ENDBRANCH   3  21
TORSDOF 6
ENDMDL
MODEL 2
REMARK VINA RESULT:      -8.3      3.350      5.658
REMARK  Name = 
REMARK  7 active torsions:
REMARK  status: ('A' for Active; 'I' for Inactive)
REMARK    1  A    between atoms: C_1  and  C_2
REMARK    2  A    between atoms: C_2  and  O_3
REMARK    3  A    between atoms: O_3  and  C_4
REMARK    4  A    between atoms: C_7  and  C_8
REMARK    5  A    between atoms: C_10  and  C_11
REMARK    6  A    between atoms: C_11  and  O_13
REMARK    7  A    between atoms: N_15  and  C_16
REMARK                            x       y       z     vdW  Elec       q    Type
REMARK                         _______ _______ _______ _____ _____    ______ ____
ROOT
ATOM      1  C   UNL     1       5.183   4.414  15.776  0.00  0.00    +0.000 A 
ATOM      2  C   UNL     1       5.150   3.762  14.554  0.00  0.00    +0.000 A 
ATOM      3  C   UNL     1       6.300   4.172  13.856  0.00  0.00    +0.000 A 
ATOM      4  N   UNL     1       7.026   5.047  14.574  0.00  0.00    +0.000 NA
ATOM      5  N   UNL     1       6.419   5.070  15.800  0.00  0.00    +0.000 N 
ENDROOT
BRANCH   1   9
ATOM      6  C   UNL     1       2.197   4.503  18.861  0.00  0.00    +0.000 A 
ATOM      7  C   UNL     1       2.419   3.343  18.121  0.00  0.00    +0.000 A 
ATOM      8  C   UNL     1       3.389   3.318  17.113  0.00  0.00    +0.000 A 
ATOM      9  C   UNL     1       4.134   4.464  16.808  0.00  0.00    +0.000 A 
ATOM     10  C   UNL     1       3.823   5.650  17.492  0.00  0.00    +0.000 A 
ATOM     11  C   UNL     1       2.882   5.666  18.529  0.00  0.00    +0.000 A 
BRANCH   6  12
ATOM     12  O   UNL     1       1.276   4.391  19.863  0.00  0.00    +0.000 OA
BRANCH  12  14
ATOM     13  C   UNL     1       1.831   2.977  21.693  0.00  0.00    +0.000 C 
ATOM     14  C   UNL     1       1.075   3.074  20.380  0.00  0.00    +0.000 C 
ENDBRANCH  12  14
ENDBRANCH   6  12
ENDBRANCH   1   9
BRANCH   5  15
ATOM     15  C   UNL     1       7.088   5.706  16.884  0.00  0.00    +0.000 A 
ATOM     16  C   UNL     1       7.317   7.088  16.833  0.00  0.00    +0.000 A 
ATOM     17  C   UNL     1       7.884   7.741  17.930  0.00  0.00    +0.000 A 
ATOM     18  C   UNL     1       8.254   7.017  19.063  0.00  0.00    +0.000 A 
ATOM     19  C   UNL     1       8.078   5.635  19.096  0.00  0.00    +0.000 A 
ATOM     20  C   UNL     1       7.504   4.977  18.008  0.00  0.00    +0.000 A 
ENDBRANCH   5  15
BRANCH   3  21
ATOM     21  C   UNL     1       6.728   3.780  12.513  0.00  0.00    +0.000 C 
ATOM     22  O   UNL     1       7.426   4.467  11.779  0.00  0.00    +0.000 OA
BRANCH  21  23
ATOM     23  O   UNL     1       6.252   2.556  12.152  0.00  0.00    +0.000 OA
ATOM     24  H   UNL     1       5.365   2.470  12.573  0.00  0.00    +0.000 HD
ENDBRANCH  21  23
ENDBRANCH   3  21
TORSDOF 6
ENDMDL
MODEL 3
REMARK VINA RESULT:      -8.2      3.468      5.782
REMARK  Name = 
REMARK  7 active torsions:
REMARK  status: ('A' for Active; 'I' for Inactive)
REMARK    1  A    between atoms: C_1  and  C_2
REMARK    2  A    between atoms: C_2  and  O_3
REMARK    3  A    between atoms: O_3  and  C_4
REMARK    4  A    between atoms: C_7  and  C_8
REMARK    5  A    between atoms: C_10  and  C_11
REMARK    6  A    between atoms: C_11  and  O_13
REMARK    7  A    between atoms: N_15  and  C_16
REMARK                            x       y       z     vdW  Elec       q    Type
REMARK                         _______ _______ _______ _____ _____    ______ ____
ROOT
ATOM      1  C   UNL     1       5.309   4.283  15.800  0.00  0.00    +0.000 A 
ATOM      2  C   UNL     1       5.291   3.653  14.567  0.00  0.00    +0.000 A 
ATOM      3  C   UNL     1       6.377   4.175  13.840  0.00  0.00    +0.000 A 
ATOM      4  N   UNL     1       7.049   5.096  14.552  0.00  0.00    +0.000 NA
ATOM      5  N   UNL     1       6.484   5.044  15.797  0.00  0.00    +0.000 N 
ENDROOT
BRANCH   1   9
ATOM      6  C   UNL     1       2.268   4.132  18.827  0.00  0.00    +0.000 A 
ATOM      7  C   UNL     1       2.758   5.355  18.373  0.00  0.00    +0.000 A 
ATOM      8  C   UNL     1       3.752   5.401  17.390  0.00  0.00    +0.000 A 
ATOM      9  C   UNL     1       4.296   4.222  16.866  0.00  0.00    +0.000 A 
ATOM     10  C   UNL     1       3.865   3.002  17.411  0.00  0.00    +0.000 A 
ATOM     11  C   UNL     1       2.841   2.953  18.364  0.00  0.00    +0.000 A 
BRANCH   6  12
ATOM     12  O   UNL     1       1.252   4.209  19.737  0.00  0.00    +0.000 OA
BRANCH  12  14
ATOM     13  C   UNL     1       1.911   3.137  21.754  0.00  0.00    +0.000 C 
ATOM     14  C   UNL     1       1.029   3.037  20.524  0.00  0.00    +0.000 C 
ENDBRANCH  12  14
ENDBRANCH   6  12
ENDBRANCH   1   9
BRANCH   5  15
ATOM     15  C   UNL     1       7.132   5.716  16.873  0.00  0.00    +0.000 A 
ATOM     16  C   UNL     1       7.326   7.103  16.797  0.00  0.00    +0.000 A 
ATOM     17  C   UNL     1       7.871   7.790  17.885  0.00  0.00    +0.000 A 
ATOM     18  C   UNL     1       8.255   7.095  19.031  0.00  0.00    +0.000 A 
ATOM     19  C   UNL     1       8.114   5.710  19.089  0.00  0.00    +0.000 A 
ATOM     20  C   UNL     1       7.562   5.019  18.011  0.00  0.00    +0.000 A 
ENDBRANCH   5  15
BRANCH   3  21
ATOM     21  C   UNL     1       6.791   3.846  12.476  0.00  0.00    +0.000 C 
ATOM     22  O   UNL     1       7.476   4.569  11.765  0.00  0.00    +0.000 OA
BRANCH  21  23
ATOM     23  O   UNL     1       6.319   2.635  12.066  0.00  0.00    +0.000 OA
ATOM     24  H   UNL     1       6.956   2.307  11.389  0.00  0.00    +0.000 HD
ENDBRANCH  21  23
ENDBRANCH   3  21
TORSDOF 6
ENDMDL
MODEL 4
REMARK VINA RESULT:      -8.2      1.011      1.108
REMARK  Name = 
REMARK  7 active torsions:
REMARK  status: ('A' for Active; 'I' for Inactive)
REMARK    1  A    between atoms: C_1  and  C_2
REMARK    2  A    between atoms: C_2  and  O_3
REMARK    3  A    between atoms: O_3  and  C_4
REMARK    4  A    between atoms: C_7  and  C_8
REMARK    5  A    between atoms: C_10  and  C_11
REMARK    6  A    between atoms: C_11  and  O_13
REMARK    7  A    between atoms: N_15  and  C_16
REMARK                            x       y       z     vdW  Elec       q    Type
REMARK                         _______ _______ _______ _____ _____    ______ ____
ROOT
ATOM      1  C   UNL     1       3.981   6.283  17.895  0.00  0.00    +0.000 A 
ATOM      2  C   UNL     1       5.096   6.527  17.110  0.00  0.00    +0.000 A 
ATOM      3  C   UNL     1       5.826   5.325  17.075  0.00  0.00    +0.000 A 
ATOM      4  N   UNL     1       5.229   4.365  17.803  0.00  0.00    +0.000 NA
ATOM      5  N   UNL     1       4.031   4.911  18.172  0.00  0.00    +0.000 N 
ENDROOT
BRANCH   1   9
ATOM      6  C   UNL     1       1.166   9.160  19.389  0.00  0.00    +0.000 A 
ATOM      7  C   UNL     1       1.579   8.092  20.183  0.00  0.00    +0.000 A 
ATOM      8  C   UNL     1       2.492   7.153  19.692  0.00  0.00    +0.000 A 
ATOM      9  C   UNL     1       2.986   7.250  18.386  0.00  0.00    +0.000 A 
ATOM     10  C   UNL     1       2.479   8.272  17.567  0.00  0.00    +0.000 A 
ATOM     11  C   UNL     1       1.597   9.236  18.070  0.00  0.00    +0.000 A 
BRANCH   6  12
ATOM     12  O   UNL     1       0.327  10.051  19.996  0.00  0.00    +0.000 OA
BRANCH  12  14
ATOM     13  C   UNL     1      -0.386  10.440  22.231  0.00  0.00    +0.000 C 
ATOM     14  C   UNL     1       0.768  10.565  21.254  0.00  0.00    +0.000 C 
ENDBRANCH  12  14
ENDBRANCH   6  12
ENDBRANCH   1   9
BRANCH   5  15
ATOM     15  C   UNL     1       3.038   4.065  18.744  0.00  0.00    +0.000 A 
ATOM     16  C   UNL     1       3.199   3.612  20.061  0.00  0.00    +0.000 A 
ATOM     17  C   UNL     1       2.188   2.862  20.667  0.00  0.00    +0.000 A 
ATOM     18  C   UNL     1       1.035   2.533  19.954  0.00  0.00    +0.000 A 
ATOM     19  C   UNL     1       0.897   2.936  18.628  0.00  0.00    +0.000 A 
ATOM     20  C   UNL     1       1.897   3.693  18.019  0.00  0.00    +0.000 A 
ENDBRANCH   5  15
BRANCH   3  21
ATOM     21  C   UNL     1       7.091   5.057  16.390  0.00  0.00    +0.000 C 
ATOM     22  O   UNL     1       7.421   5.558  15.323  0.00  0.00    +0.000 OA
BRANCH  21  23
ATOM     23  O   UNL     1       7.872   4.169  17.066  0.00  0.00    +0.000 OA
ATOM     24  H   UNL     1       7.798   3.314  16.583  0.00  0.00    +0.000 HD
ENDBRANCH  21  23
ENDBRANCH   3  21
TORSDOF 6
ENDMDL
MODEL 5
REMARK VINA RESULT:      -8.2      3.517      5.732
REMARK  Name = 
REMARK  7 active torsions:
REMARK  status: ('A' for Active; 'I' for Inactive)
REMARK    1  A    between atoms: C_1  and  C_2
REMARK    2  A    between atoms: C_2  and  O_3
REMARK    3  A    between atoms: O_3  and  C_4
REMARK    4  A    between atoms: C_7  and  C_8
REMARK    5  A    between atoms: C_10  and  C_11
REMARK    6  A    between atoms: C_11  and  O_13
REMARK    7  A    between atoms: N_15  and  C_16
REMARK                            x       y       z     vdW  Elec       q    Type
REMARK                         _______ _______ _______ _____ _____    ______ ____
ROOT
ATOM      1  C   UNL     1       5.280   4.260  15.830  0.00  0.00    +0.000 A 
ATOM      2  C   UNL     1       5.312   3.621  14.601  0.00  0.00    +0.000 A 
ATOM      3  C   UNL     1       6.379   4.195  13.885  0.00  0.00    +0.000 A 
ATOM      4  N   UNL     1       6.991   5.156  14.599  0.00  0.00    +0.000 NA
ATOM      5  N   UNL     1       6.413   5.082  15.837  0.00  0.00    +0.000 N 
ENDROOT
BRANCH   1   9
ATOM      6  C   UNL     1       2.209   3.968  18.816  0.00  0.00    +0.000 A 
ATOM      7  C   UNL     1       2.632   5.212  18.352  0.00  0.00    +0.000 A 
ATOM      8  C   UNL     1       3.636   5.305  17.383  0.00  0.00    +0.000 A 
ATOM      9  C   UNL     1       4.256   4.154  16.882  0.00  0.00    +0.000 A 
ATOM     10  C   UNL     1       3.890   2.917  17.438  0.00  0.00    +0.000 A 
ATOM     11  C   UNL     1       2.857   2.820  18.377  0.00  0.00    +0.000 A 
BRANCH   6  12
ATOM     12  O   UNL     1       1.176   3.997  19.710  0.00  0.00    +0.000 OA
BRANCH  12  14
ATOM     13  C   UNL     1       1.375   2.614  21.634  0.00  0.00    +0.000 C 
ATOM     14  C   UNL     1       1.547   4.020  21.090  0.00  0.00    +0.000 C 
ENDBRANCH  12  14
ENDBRANCH   6  12
ENDBRANCH   1   9
BRANCH   5  15
ATOM     15  C   UNL     1       7.008   5.796  16.916  0.00  0.00    +0.000 A 
ATOM     16  C   UNL     1       7.396   5.098  18.068  0.00  0.00    +0.000 A 
ATOM     17  C   UNL     1       8.070   5.767  19.093  0.00  0.00    +0.000 A 
ATOM     18  C   UNL     1       8.325   7.134  18.989  0.00  0.00    +0.000 A 
ATOM     19  C   UNL     1       7.893   7.841  17.869  0.00  0.00    +0.000 A 
ATOM     20  C   UNL     1       7.229   7.178  16.837  0.00  0.00    +0.000 A 
ENDBRANCH   5  15
BRANCH   3  21
ATOM     21  C   UNL     1       6.829   3.879  12.529  0.00  0.00    +0.000 C 
ATOM     22  O   UNL     1       7.516   4.618  11.836  0.00  0.00    +0.000 OA
BRANCH  21  23
ATOM     23  O   UNL     1       6.389   2.661  12.105  0.00  0.00    +0.000 OA
ATOM     24  H   UNL     1       6.478   2.053  12.876  0.00  0.00    +0.000 HD
ENDBRANCH  21  23
ENDBRANCH   3  21
TORSDOF 6
ENDMDL
MODEL 6
REMARK VINA RESULT:      -8.1      3.387      5.649
REMARK  Name = 
REMARK  7 active torsions:
REMARK  status: ('A' for Active; 'I' for Inactive)
REMARK    1  A    between atoms: C_1  and  C_2
REMARK    2  A    between atoms: C_2  and  O_3
REMARK    3  A    between atoms: O_3  and  C_4
REMARK    4  A    between atoms: C_7  and  C_8
REMARK    5  A    between atoms: C_10  and  C_11
REMARK    6  A    between atoms: C_11  and  O_13
REMARK    7  A    between atoms: N_15  and  C_16
REMARK                            x       y       z     vdW  Elec       q    Type
REMARK                         _______ _______ _______ _____ _____    ______ ____
ROOT
ATOM      1  C   UNL     1       5.198   4.406  15.869  0.00  0.00    +0.000 A 
ATOM      2  C   UNL     1       5.211   3.735  14.658  0.00  0.00    +0.000 A 
ATOM      3  C   UNL     1       6.319   4.227  13.944  0.00  0.00    +0.000 A 
ATOM      4  N   UNL     1       6.975   5.170  14.644  0.00  0.00    +0.000 NA
ATOM      5  N   UNL     1       6.376   5.162  15.873  0.00  0.00    +0.000 N 
ENDROOT
BRANCH   1   9
ATOM      6  C   UNL     1       2.239   4.318  18.979  0.00  0.00    +0.000 A 
ATOM      7  C   UNL     1       2.694   3.136  18.398  0.00  0.00    +0.000 A 
ATOM      8  C   UNL     1       3.654   3.167  17.382  0.00  0.00    +0.000 A 
ATOM      9  C   UNL     1       4.155   4.386  16.907  0.00  0.00    +0.000 A 
ATOM     10  C   UNL     1       3.607   5.569  17.432  0.00  0.00    +0.000 A 
ATOM     11  C   UNL     1       2.677   5.538  18.478  0.00  0.00    +0.000 A 
BRANCH   6  12
ATOM     12  O   UNL     1       1.353   4.162  20.008  0.00  0.00    +0.000 OA
BRANCH  12  14
ATOM     13  C   UNL     1       1.407   2.544  21.750  0.00  0.00    +0.000 C 
ATOM     14  C   UNL     1       1.928   3.893  21.289  0.00  0.00    +0.000 C 
ENDBRANCH  12  14
ENDBRANCH   6  12
ENDBRANCH   1   9
BRANCH   5  15
ATOM     15  C   UNL     1       6.996   5.868  16.943  0.00  0.00    +0.000 A 
ATOM     16  C   UNL     1       7.394   5.166  18.089  0.00  0.00    +0.000 A 
ATOM     17  C   UNL     1       8.090   5.827  19.104  0.00  0.00    +0.000 A 
ATOM     18  C   UNL     1       8.360   7.191  18.996  0.00  0.00    +0.000 A 
ATOM     19  C   UNL     1       7.920   7.903  17.883  0.00  0.00    +0.000 A 
ATOM     20  C   UNL     1       7.232   7.248  16.861  0.00  0.00    +0.000 A 
ENDBRANCH   5  15
BRANCH   3  21
ATOM     21  C   UNL     1       6.769   3.850  12.604  0.00  0.00    +0.000 C 
ATOM     22  O   UNL     1       7.484   4.543  11.892  0.00  0.00    +0.000 OA
BRANCH  21  23
ATOM     23  O   UNL     1       6.295   2.632  12.219  0.00  0.00    +0.000 OA
ATOM     24  H   UNL     1       6.806   2.380  11.415  0.00  0.00    +0.000 HD
ENDBRANCH  21  23
ENDBRANCH   3  21
TORSDOF 6
ENDMDL
MODEL 7
REMARK VINA RESULT:      -8.1      0.231      1.440
REMARK  Name = 
REMARK  7 active torsions:
REMARK  status: ('A' for Active; 'I' for Inactive)
REMARK    1  A    between atoms: C_1  and  C_2
REMARK    2  A    between atoms: C_2  and  O_3
REMARK    3  A    between atoms: O_3  and  C_4
REMARK    4  A    between atoms: C_7  and  C_8
REMARK    5  A    between atoms: C_10  and  C_11
REMARK    6  A    between atoms: C_11  and  O_13
REMARK    7  A    between atoms: N_15  and  C_16
REMARK                            x       y       z     vdW  Elec       q    Type
REMARK                         _______ _______ _______ _____ _____    ______ ____
ROOT
ATOM      1  C   UNL     1       3.944   6.236  18.163  0.00  0.00    +0.000 A 
ATOM      2  C   UNL     1       5.121   6.391  17.450  0.00  0.00    +0.000 A 
ATOM      3  C   UNL     1       5.789   5.155  17.516  0.00  0.00    +0.000 A 
ATOM      4  N   UNL     1       5.095   4.258  18.238  0.00  0.00    +0.000 NA
ATOM      5  N   UNL     1       3.904   4.877  18.498  0.00  0.00    +0.000 N 
ENDROOT
BRANCH   1   9
ATOM      6  C   UNL     1       1.016   9.198  19.207  0.00  0.00    +0.000 A 
ATOM      7  C   UNL     1       1.640   9.225  17.961  0.00  0.00    +0.000 A 
ATOM      8  C   UNL     1       2.597   8.261  17.625  0.00  0.00    +0.000 A 
ATOM      9  C   UNL     1       2.969   7.271  18.543  0.00  0.00    +0.000 A 
ATOM     10  C   UNL     1       2.406   7.324  19.829  0.00  0.00    +0.000 A 
ATOM     11  C   UNL     1       1.419   8.262  20.152  0.00  0.00    +0.000 A 
BRANCH   6  12
ATOM     12  O   UNL     1       0.050  10.145  19.398  0.00  0.00    +0.000 OA
BRANCH  12  14
ATOM     13  C   UNL     1      -1.967  10.175  18.139  0.00  0.00    +0.000 C 
ATOM     14  C   UNL     1      -0.539  10.683  18.213  0.00  0.00    +0.000 C 
ENDBRANCH  12  14
ENDBRANCH   6  12
ENDBRANCH   1   9
BRANCH   5  15
ATOM     15  C   UNL     1       2.832   4.106  19.032  0.00  0.00    +0.000 A 
ATOM     16  C   UNL     1       1.849   3.607  18.165  0.00  0.00    +0.000 A 
ATOM     17  C   UNL     1       0.846   2.769  18.659  0.00  0.00    +0.000 A 
ATOM     18  C   UNL     1       0.800   2.456  20.018  0.00  0.00    +0.000 A 
ATOM     19  C   UNL     1       1.743   2.994  20.890  0.00  0.00    +0.000 A 
ATOM     20  C   UNL     1       2.753   3.824  20.403  0.00  0.00    +0.000 A 
ENDBRANCH   5  15
BRANCH   3  21
ATOM     21  C   UNL     1       7.082   4.796  16.933  0.00  0.00    +0.000 C 
ATOM     22  O   UNL     1       7.441   5.097  15.801  0.00  0.00    +0.000 OA
BRANCH  21  23
ATOM     23  O   UNL     1       7.855   4.070  17.788  0.00  0.00    +0.000 OA
ATOM     24  H   UNL     1       8.791   4.264  17.544  0.00  0.00    +0.000 HD
ENDBRANCH  21  23
ENDBRANCH   3  21
TORSDOF 6
ENDMDL
MODEL 8
REMARK VINA RESULT:      -8.1      0.527      1.319
REMARK  Name = 
REMARK  7 active torsions:
REMARK  status: ('A' for Active; 'I' for Inactive)
REMARK    1  A    between atoms: C_1  and  C_2
REMARK    2  A    between atoms: C_2  and  O_3
REMARK    3  A    between atoms: O_3  and  C_4
REMARK    4  A    between atoms: C_7  and  C_8
REMARK    5  A    between atoms: C_10  and  C_11
REMARK    6  A    between atoms: C_11  and  O_13
REMARK    7  A    between atoms: N_15  and  C_16
REMARK                            x       y       z     vdW  Elec       q    Type
REMARK                         _______ _______ _______ _____ _____    ______ ____
ROOT
ATOM      1  C   UNL     1       3.897   6.342  17.805  0.00  0.00    +0.000 A 
ATOM      2  C   UNL     1       4.974   6.560  16.961  0.00  0.00    +0.000 A 
ATOM      3  C   UNL     1       5.678   5.343  16.896  0.00  0.00    +0.000 A 
ATOM      4  N   UNL     1       5.101   4.399  17.661  0.00  0.00    +0.000 NA
ATOM      5  N   UNL     1       3.935   4.972  18.089  0.00  0.00    +0.000 N 
ENDROOT
BRANCH   1   9
ATOM      6  C   UNL     1       1.044   9.179  19.305  0.00  0.00    +0.000 A 
ATOM      7  C   UNL     1       1.600   9.334  18.036  0.00  0.00    +0.000 A 
ATOM      8  C   UNL     1       2.533   8.411  17.552  0.00  0.00    +0.000 A 
ATOM      9  C   UNL     1       2.949   7.332  18.342  0.00  0.00    +0.000 A 
ATOM     10  C   UNL     1       2.457   7.252  19.655  0.00  0.00    +0.000 A 
ATOM     11  C   UNL     1       1.493   8.150  20.125  0.00  0.00    +0.000 A 
BRANCH   6  12
ATOM     12  O   UNL     1       0.094  10.100  19.644  0.00  0.00    +0.000 OA
BRANCH  12  14
ATOM     13  C   UNL     1      -1.863  10.301  18.309  0.00  0.00    +0.000 C 
ATOM     14  C   UNL     1      -0.468  10.843  18.561  0.00  0.00    +0.000 C 
ENDBRANCH  12  14
ENDBRANCH   6  12
ENDBRANCH   1   9
BRANCH   5  15
ATOM     15  C   UNL     1       2.957   4.149  18.717  0.00  0.00    +0.000 A 
ATOM     16  C   UNL     1       3.154   3.742  20.045  0.00  0.00    +0.000 A 
ATOM     17  C   UNL     1       2.159   3.017  20.705  0.00  0.00    +0.000 A 
ATOM     18  C   UNL     1       0.986   2.666  20.037  0.00  0.00    +0.000 A 
ATOM     19  C   UNL     1       0.811   3.021  18.701  0.00  0.00    +0.000 A 
ATOM     20  C   UNL     1       1.796   3.754  18.038  0.00  0.00    +0.000 A 
ENDBRANCH   5  15
BRANCH   3  21
ATOM     21  C   UNL     1       6.898   5.046  16.146  0.00  0.00    +0.000 C 
ATOM     22  O   UNL     1       7.865   4.449  16.603  0.00  0.00    +0.000 OA
BRANCH  21  23
ATOM     23  O   UNL     1       6.853   5.519  14.869  0.00  0.00    +0.000 OA
ATOM     24  H   UNL     1       6.407   4.823  14.334  0.00  0.00    +0.000 HD
ENDBRANCH  21  23
ENDBRANCH   3  21
TORSDOF 6
ENDMDL
MODEL 9
REMARK VINA RESULT:      -8.1      0.386      1.102
REMARK  Name = 
REMARK  7 active torsions:
REMARK  status: ('A' for Active; 'I' for Inactive)
REMARK    1  A    between atoms: C_1  and  C_2
REMARK    2  A    between atoms: C_2  and  O_3
REMARK    3  A    between atoms: O_3  and  C_4
REMARK    4  A    between atoms: C_7  and  C_8
REMARK    5  A    between atoms: C_10  and  C_11
REMARK    6  A    between atoms: C_11  and  O_13
REMARK    7  A    between atoms: N_15  and  C_16
REMARK                            x       y       z     vdW  Elec       q    Type
REMARK                         _______ _______ _______ _____ _____    ______ ____
ROOT
ATOM      1  C   UNL     1       3.890   6.319  18.141  0.00  0.00    +0.000 A 
ATOM      2  C   UNL     1       5.077   6.465  17.441  0.00  0.00    +0.000 A 
ATOM      3  C   UNL     1       5.755   5.238  17.554  0.00  0.00    +0.000 A 
ATOM      4  N   UNL     1       5.059   4.356  18.292  0.00  0.00    +0.000 NA
ATOM      5  N   UNL     1       3.858   4.971  18.517  0.00  0.00    +0.000 N 
ENDROOT
BRANCH   1   9
ATOM      6  C   UNL     1       1.086   9.401  19.177  0.00  0.00    +0.000 A 
ATOM      7  C   UNL     1       1.416   8.404  20.094  0.00  0.00    +0.000 A 
ATOM      8  C   UNL     1       2.326   7.399  19.752  0.00  0.00    +0.000 A 
ATOM      9  C   UNL     1       2.900   7.356  18.475  0.00  0.00    +0.000 A 
ATOM     10  C   UNL     1       2.475   8.307  17.533  0.00  0.00    +0.000 A 
ATOM     11  C   UNL     1       1.597   9.338  17.886  0.00  0.00    +0.000 A 
BRANCH   6  12
ATOM     12  O   UNL     1       0.241  10.369  19.644  0.00  0.00    +0.000 OA
BRANCH  12  14
ATOM     13  C   UNL     1      -1.178  11.805  18.388  0.00  0.00    +0.000 C 
ATOM     14  C   UNL     1      -1.041  10.430  19.017  0.00  0.00    +0.000 C 
ENDBRANCH  12  14
ENDBRANCH   6  12
ENDBRANCH   1   9
BRANCH   5  15
ATOM     15  C   UNL     1       2.785   4.206  19.057  0.00  0.00    +0.000 A 
ATOM     16  C   UNL     1       1.858   3.615  18.187  0.00  0.00    +0.000 A 
ATOM     17  C   UNL     1       0.858   2.782  18.696  0.00  0.00    +0.000 A 
ATOM     18  C   UNL     1       0.759   2.565  20.070  0.00  0.00    +0.000 A 
ATOM     19  C   UNL     1       1.645   3.194  20.942  0.00  0.00    +0.000 A 
ATOM     20  C   UNL     1       2.652   4.019  20.440  0.00  0.00    +0.000 A 
ENDBRANCH   5  15
BRANCH   3  21
ATOM     21  C   UNL     1       7.060   4.874  17.001  0.00  0.00    +0.000 C 
ATOM     22  O   UNL     1       7.483   5.251  15.916  0.00  0.00    +0.000 OA
BRANCH  21  23
ATOM     23  O   UNL     1       7.765   4.052  17.828  0.00  0.00    +0.000 OA
ATOM     24  H   UNL     1       8.262   3.434  17.242  0.00  0.00    +0.000 HD
ENDBRANCH  21  23
ENDBRANCH   3  21
TORSDOF 6
ENDMDL
