MODEL 1
REMARK VINA RESULT:      -7.7      0.000      0.000
REMARK  Name = 
REMARK  8 active torsions:
REMARK  status: ('A' for Active; 'I' for Inactive)
REMARK    1  A    between atoms: C_1  and  C_2
REMARK    2  A    between atoms: C_2  and  C_3
REMARK    3  A    between atoms: C_2  and  C_4
REMARK    4  A    between atoms: C_4  and  C_5
REMARK    5  A    between atoms: N_7  and  C_8
REMARK    6  A    between atoms: C_8  and  C_9
REMARK    7  A    between atoms: C_12  and  C_13
REMARK    8  A    between atoms: N_15  and  C_16
REMARK                            x       y       z     vdW  Elec       q    Type
REMARK                         _______ _______ _______ _____ _____    ______ ____
ROOT
ATOM      1  C   UNL     1       5.640   4.434  16.387  0.00  0.00    +0.000 A 
ATOM      2  N   UNL     1       4.976   3.415  16.899  0.00  0.00    +0.000 NA
ATOM      3  N   UNL     1       3.824   3.816  17.563  0.00  0.00    +0.000 NA
ATOM      4  C   UNL     1       3.671   5.125  17.521  0.00  0.00    +0.000 A 
ATOM      5  S   UNL     1       4.915   5.961  16.687  0.00  0.00    +0.000 S 
ENDROOT
BRANCH   4   6
ATOM      6  C   UNL     1       2.568   5.855  18.132  0.00  0.00    +0.000 C 
ATOM      7  O   UNL     1       1.455   5.352  18.270  0.00  0.00    +0.000 OA
ATOM      8  N   UNL     1       2.874   7.167  18.495  0.00  0.00    +0.000 N 
ATOM      9  H   UNL     1       3.789   7.504  18.211  0.00  0.00    +0.000 HD
BRANCH   8  10
ATOM     10  C   UNL     1       1.975   8.102  19.064  0.00  0.00    +0.000 A 
ATOM     11  C   UNL     1       1.403   9.160  18.326  0.00  0.00    +0.000 A 
ATOM     12  C   UNL     1       0.581  10.117  18.931  0.00  0.00    +0.000 A 
ATOM     13  C   UNL     1       0.346   9.995  20.278  0.00  0.00    +0.000 A 
ATOM     14  C   UNL     1       0.866   8.951  21.004  0.00  0.00    +0.000 A 
ATOM     15  C   UNL     1       1.662   7.976  20.426  0.00  0.00    +0.000 A 
ATOM     16  O   UNL     1       0.520   9.025  22.320  0.00  0.00    +0.000 OA
ATOM     17  C   UNL     1      -0.199  10.279  22.343  0.00  0.00    +0.000 C 
ATOM     18  O   UNL     1      -0.384  10.854  21.035  0.00  0.00    +0.000 OA
ENDBRANCH   8  10
ENDBRANCH   4   6
BRANCH   1  19
ATOM     19  C   UNL     1       6.918   4.345  15.616  0.00  0.00    +0.000 C 
BRANCH  19  22
ATOM     20  C   UNL     1       7.111   4.493  13.175  0.00  0.00    +0.000 C 
ATOM     21  O   UNL     1       7.835   5.482  13.241  0.00  0.00    +0.000 OA
ATOM     22  N   UNL     1       6.656   3.824  14.287  0.00  0.00    +0.000 N 
ATOM     23  H   UNL     1       5.917   3.141  14.185  0.00  0.00    +0.000 HD
BRANCH  20  24
ATOM     24  C   UNL     1       6.686   3.898  11.844  0.00  0.00    +0.000 C 
BRANCH  24  26
ATOM     25  C   UNL     1       4.290   3.213  11.370  0.00  0.00    +0.000 C 
ATOM     26  C   UNL     1       5.633   2.786  11.964  0.00  0.00    +0.000 C 
ATOM     27  C   UNL     1       6.127   1.518  11.265  0.00  0.00    +0.000 C 
ENDBRANCH  24  26
ENDBRANCH  20  24
ENDBRANCH  19  22
ENDBRANCH   1  19
TORSDOF 6
ENDMDL
MODEL 2
REMARK VINA RESULT:      -7.3      6.520      8.263
REMARK  Name = 
REMARK  8 active torsions:
REMARK  status: ('A' for Active; 'I' for Inactive)
REMARK    1  A    between atoms: C_1  and  C_2
REMARK    2  A    between atoms: C_2  and  C_3
REMARK    3  A    between atoms: C_2  and  C_4
REMARK    4  A    between atoms: C_4  and  C_5
REMARK    5  A    between atoms: N_7  and  C_8
REMARK    6  A    between atoms: C_8  and  C_9
REMARK    7  A    between atoms: C_12  and  C_13
REMARK    8  A    between atoms: N_15  and  C_16
REMARK                            x       y       z     vdW  Elec       q    Type
REMARK                         _______ _______ _______ _____ _____    ______ ____
ROOT
ATOM      1  C   UNL     1       6.849   5.407  17.627  0.00  0.00    +0.000 A 
ATOM      2  N   UNL     1       7.721   5.318  18.614  0.00  0.00    +0.000 NA
ATOM      3  N   UNL     1       8.279   6.548  18.937  0.00  0.00    +0.000 NA
ATOM      4  C   UNL     1       7.801   7.513  18.175  0.00  0.00    +0.000 A 
ATOM      5  S   UNL     1       6.653   6.997  17.011  0.00  0.00    +0.000 S 
ENDROOT
BRANCH   4   6
ATOM      6  C   UNL     1       8.194   8.913  18.259  0.00  0.00    +0.000 C 
ATOM      7  O   UNL     1       7.793   9.748  17.451  0.00  0.00    +0.000 OA
ATOM      8  N   UNL     1       9.085   9.202  19.293  0.00  0.00    +0.000 N 
ATOM      9  H   UNL     1       9.439   8.404  19.810  0.00  0.00    +0.000 HD
BRANCH   8  10
ATOM     10  C   UNL     1       9.655  10.470  19.567  0.00  0.00    +0.000 A 
ATOM     11  C   UNL     1       9.407  11.177  20.762  0.00  0.00    +0.000 A 
ATOM     12  C   UNL     1       9.918  12.463  20.973  0.00  0.00    +0.000 A 
ATOM     13  C   UNL     1      10.674  13.021  19.973  0.00  0.00    +0.000 A 
ATOM     14  C   UNL     1      10.955  12.331  18.818  0.00  0.00    +0.000 A 
ATOM     15  C   UNL     1      10.484  11.049  18.593  0.00  0.00    +0.000 A 
ATOM     16  O   UNL     1      11.711  13.069  17.957  0.00  0.00    +0.000 OA
ATOM     17  C   UNL     1      11.792  14.323  18.670  0.00  0.00    +0.000 C 
ATOM     18  O   UNL     1      11.208  14.270  19.986  0.00  0.00    +0.000 OA
ENDBRANCH   8  10
ENDBRANCH   4   6
BRANCH   1  19
ATOM     19  C   UNL     1       6.075   4.270  17.041  0.00  0.00    +0.000 C 
BRANCH  19  22
ATOM     20  C   UNL     1       4.030   3.785  18.306  0.00  0.00    +0.000 C 
ATOM     21  O   UNL     1       3.348   4.497  17.575  0.00  0.00    +0.000 OA
ATOM     22  N   UNL     1       5.369   3.560  18.092  0.00  0.00    +0.000 N 
ATOM     23  H   UNL     1       5.921   3.128  18.822  0.00  0.00    +0.000 HD
BRANCH  20  24
ATOM     24  C   UNL     1       3.435   3.055  19.497  0.00  0.00    +0.000 C 
BRANCH  24  26
ATOM     25  C   UNL     1       0.907   2.844  19.468  0.00  0.00    +0.000 C 
ATOM     26  C   UNL     1       2.103   3.642  19.989  0.00  0.00    +0.000 C 
ATOM     27  C   UNL     1       2.076   3.673  21.519  0.00  0.00    +0.000 C 
ENDBRANCH  24  26
ENDBRANCH  20  24
ENDBRANCH  19  22
ENDBRANCH   1  19
TORSDOF 6
ENDMDL
MODEL 3
REMARK VINA RESULT:      -7.3      6.084      7.969
REMARK  Name = 
REMARK  8 active torsions:
REMARK  status: ('A' for Active; 'I' for Inactive)
REMARK    1  A    between atoms: C_1  and  C_2
REMARK    2  A    between atoms: C_2  and  C_3
REMARK    3  A    between atoms: C_2  and  C_4
REMARK    4  A    between atoms: C_4  and  C_5
REMARK    5  A    between atoms: N_7  and  C_8
REMARK    6  A    between atoms: C_8  and  C_9
REMARK    7  A    between atoms: C_12  and  C_13
REMARK    8  A    between atoms: N_15  and  C_16
REMARK                            x       y       z     vdW  Elec       q    Type
REMARK                         _______ _______ _______ _____ _____    ______ ____
ROOT
ATOM      1  C   UNL     1       5.903   5.337  16.481  0.00  0.00    +0.000 A 
ATOM      2  N   UNL     1       5.568   6.549  16.078  0.00  0.00    +0.000 NA
ATOM      3  N   UNL     1       6.334   7.537  16.682  0.00  0.00    +0.000 NA
ATOM      4  C   UNL     1       7.216   7.023  17.517  0.00  0.00    +0.000 A 
ATOM      5  S   UNL     1       7.171   5.313  17.637  0.00  0.00    +0.000 S 
ENDROOT
BRANCH   4   6
ATOM      6  C   UNL     1       8.159   7.798  18.312  0.00  0.00    +0.000 C 
ATOM      7  O   UNL     1       8.762   7.305  19.264  0.00  0.00    +0.000 OA
ATOM      8  N   UNL     1       8.277   9.134  17.930  0.00  0.00    +0.000 N 
ATOM      9  H   UNL     1       7.631   9.449  17.213  0.00  0.00    +0.000 HD
BRANCH   8  10
ATOM     10  C   UNL     1       9.088  10.110  18.561  0.00  0.00    +0.000 A 
ATOM     11  C   UNL     1       9.052  10.350  19.951  0.00  0.00    +0.000 A 
ATOM     12  C   UNL     1       9.804  11.374  20.538  0.00  0.00    +0.000 A 
ATOM     13  C   UNL     1      10.584  12.146  19.713  0.00  0.00    +0.000 A 
ATOM     14  C   UNL     1      10.656  11.903  18.362  0.00  0.00    +0.000 A 
ATOM     15  C   UNL     1       9.943  10.880  17.759  0.00  0.00    +0.000 A 
ATOM     16  O   UNL     1      11.477  12.788  17.730  0.00  0.00    +0.000 OA
ATOM     17  C   UNL     1      11.834  13.660  18.825  0.00  0.00    +0.000 C 
ATOM     18  O   UNL     1      11.338  13.207  20.100  0.00  0.00    +0.000 OA
ENDBRANCH   8  10
ENDBRANCH   4   6
BRANCH   1  19
ATOM     19  C   UNL     1       5.274   4.060  16.025  0.00  0.00    +0.000 C 
BRANCH  19  22
ATOM     20  C   UNL     1       3.629   3.589  17.784  0.00  0.00    +0.000 C 
ATOM     21  O   UNL     1       2.843   4.421  17.342  0.00  0.00    +0.000 OA
ATOM     22  N   UNL     1       4.825   3.294  17.174  0.00  0.00    +0.000 N 
ATOM     23  H   UNL     1       5.514   2.748  17.674  0.00  0.00    +0.000 HD
BRANCH  20  24
ATOM     24  C   UNL     1       3.324   2.780  19.032  0.00  0.00    +0.000 C 
BRANCH  24  26
ATOM     25  C   UNL     1       0.818   2.674  19.410  0.00  0.00    +0.000 C 
ATOM     26  C   UNL     1       2.137   3.313  19.848  0.00  0.00    +0.000 C 
ATOM     27  C   UNL     1       2.367   3.056  21.339  0.00  0.00    +0.000 C 
ENDBRANCH  24  26
ENDBRANCH  20  24
ENDBRANCH  19  22
ENDBRANCH   1  19
TORSDOF 6
ENDMDL
MODEL 4
REMARK VINA RESULT:      -7.1      6.398      8.038
REMARK  Name = 
REMARK  8 active torsions:
REMARK  status: ('A' for Active; 'I' for Inactive)
REMARK    1  A    between atoms: C_1  and  C_2
REMARK    2  A    between atoms: C_2  and  C_3
REMARK    3  A    between atoms: C_2  and  C_4
REMARK    4  A    between atoms: C_4  and  C_5
REMARK    5  A    between atoms: N_7  and  C_8
REMARK    6  A    between atoms: C_8  and  C_9
REMARK    7  A    between atoms: C_12  and  C_13
REMARK    8  A    between atoms: N_15  and  C_16
REMARK                            x       y       z     vdW  Elec       q    Type
REMARK                         _______ _______ _______ _____ _____    ______ ____
ROOT
ATOM      1  C   UNL     1       6.761   5.112  17.818  0.00  0.00    +0.000 A 
ATOM      2  N   UNL     1       7.692   5.148  18.754  0.00  0.00    +0.000 NA
ATOM      3  N   UNL     1       8.219   6.422  18.924  0.00  0.00    +0.000 NA
ATOM      4  C   UNL     1       7.661   7.291  18.105  0.00  0.00    +0.000 A 
ATOM      5  S   UNL     1       6.468   6.627  17.067  0.00  0.00    +0.000 S 
ENDROOT
BRANCH   4   6
ATOM      6  C   UNL     1       8.003   8.705  18.031  0.00  0.00    +0.000 C 
ATOM      7  O   UNL     1       7.540   9.439  17.161  0.00  0.00    +0.000 OA
ATOM      8  N   UNL     1       8.921   9.128  18.992  0.00  0.00    +0.000 N 
ATOM      9  H   UNL     1       9.325   8.399  19.572  0.00  0.00    +0.000 HD
BRANCH   8  10
ATOM     10  C   UNL     1       9.453  10.436  19.114  0.00  0.00    +0.000 A 
ATOM     11  C   UNL     1      10.253  11.031  18.116  0.00  0.00    +0.000 A 
ATOM     12  C   UNL     1      10.832  12.293  18.296  0.00  0.00    +0.000 A 
ATOM     13  C   UNL     1      10.596  12.939  19.483  0.00  0.00    +0.000 A 
ATOM     14  C   UNL     1       9.790  12.389  20.451  0.00  0.00    +0.000 A 
ATOM     15  C   UNL     1       9.185  11.154  20.289  0.00  0.00    +0.000 A 
ATOM     16  O   UNL     1       9.698  13.188  21.551  0.00  0.00    +0.000 OA
ATOM     17  C   UNL     1      10.606  14.253  21.191  0.00  0.00    +0.000 C 
ATOM     18  O   UNL     1      11.113  14.142  19.847  0.00  0.00    +0.000 OA
ENDBRANCH   8  10
ENDBRANCH   4   6
BRANCH   1  19
ATOM     19  C   UNL     1       5.999   3.898  17.391  0.00  0.00    +0.000 C 
BRANCH  19  22
ATOM     20  C   UNL     1       4.197   3.418  18.985  0.00  0.00    +0.000 C 
ATOM     21  O   UNL     1       4.967   2.868  19.767  0.00  0.00    +0.000 OA
ATOM     22  N   UNL     1       4.616   4.009  17.817  0.00  0.00    +0.000 N 
ATOM     23  H   UNL     1       3.929   4.275  17.123  0.00  0.00    +0.000 HD
BRANCH  20  24
ATOM     24  C   UNL     1       2.709   3.524  19.266  0.00  0.00    +0.000 C 
BRANCH  24  26
ATOM     25  C   UNL     1       1.709   5.346  20.719  0.00  0.00    +0.000 C 
ATOM     26  C   UNL     1       2.373   3.969  20.697  0.00  0.00    +0.000 C 
ATOM     27  C   UNL     1       1.455   2.942  21.363  0.00  0.00    +0.000 C 
ENDBRANCH  24  26
ENDBRANCH  20  24
ENDBRANCH  19  22
ENDBRANCH   1  19
TORSDOF 6
ENDMDL
MODEL 5
REMARK VINA RESULT:      -6.9      6.135      7.968
REMARK  Name = 
REMARK  8 active torsions:
REMARK  status: ('A' for Active; 'I' for Inactive)
REMARK    1  A    between atoms: C_1  and  C_2
REMARK    2  A    between atoms: C_2  and  C_3
REMARK    3  A    between atoms: C_2  and  C_4
REMARK    4  A    between atoms: C_4  and  C_5
REMARK    5  A    between atoms: N_7  and  C_8
REMARK    6  A    between atoms: C_8  and  C_9
REMARK    7  A    between atoms: C_12  and  C_13
REMARK    8  A    between atoms: N_15  and  C_16
REMARK                            x       y       z     vdW  Elec       q    Type
REMARK                         _______ _______ _______ _____ _____    ______ ____
ROOT
ATOM      1  C   UNL     1       6.657   4.995  17.501  0.00  0.00    +0.000 A 
ATOM      2  N   UNL     1       7.528   4.971  18.493  0.00  0.00    +0.000 NA
ATOM      3  N   UNL     1       8.041   6.230  18.776  0.00  0.00    +0.000 NA
ATOM      4  C   UNL     1       7.533   7.151  17.981  0.00  0.00    +0.000 A 
ATOM      5  S   UNL     1       6.408   6.556  16.831  0.00  0.00    +0.000 S 
ENDROOT
BRANCH   4   6
ATOM      6  C   UNL     1       7.876   8.566  18.018  0.00  0.00    +0.000 C 
ATOM      7  O   UNL     1       7.363   9.377  17.251  0.00  0.00    +0.000 OA
ATOM      8  N   UNL     1       8.854   8.899  18.955  0.00  0.00    +0.000 N 
ATOM      9  H   UNL     1       9.290   8.119  19.438  0.00  0.00    +0.000 HD
BRANCH   8  10
ATOM     10  C   UNL     1       9.398  10.190  19.165  0.00  0.00    +0.000 A 
ATOM     11  C   UNL     1       9.473  10.790  20.439  0.00  0.00    +0.000 A 
ATOM     12  C   UNL     1       9.940  12.098  20.608  0.00  0.00    +0.000 A 
ATOM     13  C   UNL     1      10.327  12.787  19.486  0.00  0.00    +0.000 A 
ATOM     14  C   UNL     1      10.293  12.205  18.241  0.00  0.00    +0.000 A 
ATOM     15  C   UNL     1       9.859  10.904  18.048  0.00  0.00    +0.000 A 
ATOM     16  O   UNL     1      10.709  13.063  17.267  0.00  0.00    +0.000 OA
ATOM     17  C   UNL     1      10.919  14.268  18.036  0.00  0.00    +0.000 C 
ATOM     18  O   UNL     1      10.759  14.075  19.455  0.00  0.00    +0.000 OA
ENDBRANCH   8  10
ENDBRANCH   4   6
BRANCH   1  19
ATOM     19  C   UNL     1       5.926   3.813  16.952  0.00  0.00    +0.000 C 
BRANCH  19  22
ATOM     20  C   UNL     1       4.144   3.371  18.580  0.00  0.00    +0.000 C 
ATOM     21  O   UNL     1       4.943   2.970  19.421  0.00  0.00    +0.000 OA
ATOM     22  N   UNL     1       4.532   3.863  17.356  0.00  0.00    +0.000 N 
ATOM     23  H   UNL     1       3.837   3.999  16.635  0.00  0.00    +0.000 HD
BRANCH  20  24
ATOM     24  C   UNL     1       2.649   3.393  18.840  0.00  0.00    +0.000 C 
BRANCH  24  26
ATOM     25  C   UNL     1       1.146   4.612  20.481  0.00  0.00    +0.000 C 
ATOM     26  C   UNL     1       2.115   4.756  19.307  0.00  0.00    +0.000 C 
ATOM     27  C   UNL     1       3.278   5.667  19.705  0.00  0.00    +0.000 C 
ENDBRANCH  24  26
ENDBRANCH  20  24
ENDBRANCH  19  22
ENDBRANCH   1  19
TORSDOF 6
ENDMDL
MODEL 6
REMARK VINA RESULT:      -6.8      1.480      1.984
REMARK  Name = 
REMARK  8 active torsions:
REMARK  status: ('A' for Active; 'I' for Inactive)
REMARK    1  A    between atoms: C_1  and  C_2
REMARK    2  A    between atoms: C_2  and  C_3
REMARK    3  A    between atoms: C_2  and  C_4
REMARK    4  A    between atoms: C_4  and  C_5
REMARK    5  A    between atoms: N_7  and  C_8
REMARK    6  A    between atoms: C_8  and  C_9
REMARK    7  A    between atoms: C_12  and  C_13
REMARK    8  A    between atoms: N_15  and  C_16
REMARK                            x       y       z     vdW  Elec       q    Type
REMARK                         _______ _______ _______ _____ _____    ______ ____
ROOT
ATOM      1  C   UNL     1       5.030   5.240  17.823  0.00  0.00    +0.000 A 
ATOM      2  N   UNL     1       4.051   4.582  18.417  0.00  0.00    +0.000 NA
ATOM      3  N   UNL     1       2.964   5.398  18.701  0.00  0.00    +0.000 NA
ATOM      4  C   UNL     1       3.173   6.639  18.308  0.00  0.00    +0.000 A 
ATOM      5  S   UNL     1       4.702   6.906  17.578  0.00  0.00    +0.000 S 
ENDROOT
BRANCH   4   6
ATOM      6  C   UNL     1       2.229   7.736  18.472  0.00  0.00    +0.000 C 
ATOM      7  O   UNL     1       1.780   8.354  17.510  0.00  0.00    +0.000 OA
ATOM      8  N   UNL     1       1.923   8.042  19.799  0.00  0.00    +0.000 N 
ATOM      9  H   UNL     1       2.457   7.543  20.504  0.00  0.00    +0.000 HD
BRANCH   8  10
ATOM     10  C   UNL     1       1.072   9.087  20.235  0.00  0.00    +0.000 A 
ATOM     11  C   UNL     1       0.900  10.285  19.511  0.00  0.00    +0.000 A 
ATOM     12  C   UNL     1       0.115  11.334  20.003  0.00  0.00    +0.000 A 
ATOM     13  C   UNL     1      -0.488  11.161  21.224  0.00  0.00    +0.000 A 
ATOM     14  C   UNL     1      -0.359   9.986  21.926  0.00  0.00    +0.000 A 
ATOM     15  C   UNL     1       0.390   8.923  21.450  0.00  0.00    +0.000 A 
ATOM     16  O   UNL     1      -1.027  10.027  23.113  0.00  0.00    +0.000 OA
ATOM     17  C   UNL     1      -1.510  11.390  23.107  0.00  0.00    +0.000 C 
ATOM     18  O   UNL     1      -1.241  12.085  21.874  0.00  0.00    +0.000 OA
ENDBRANCH   8  10
ENDBRANCH   4   6
BRANCH   1  19
ATOM     19  C   UNL     1       6.336   4.656  17.387  0.00  0.00    +0.000 C 
BRANCH  19  22
ATOM     20  C   UNL     1       6.307   4.248  14.969  0.00  0.00    +0.000 C 
ATOM     21  O   UNL     1       6.742   5.369  14.723  0.00  0.00    +0.000 OA
ATOM     22  N   UNL     1       6.128   3.780  16.249  0.00  0.00    +0.000 N 
ATOM     23  H   UNL     1       5.593   2.934  16.396  0.00  0.00    +0.000 HD
BRANCH  20  24
ATOM     24  C   UNL     1       5.962   3.262  13.866  0.00  0.00    +0.000 C 
BRANCH  24  26
ATOM     25  C   UNL     1       7.036   3.782  11.628  0.00  0.00    +0.000 C 
ATOM     26  C   UNL     1       5.776   3.908  12.485  0.00  0.00    +0.000 C 
ATOM     27  C   UNL     1       4.591   3.265  11.761  0.00  0.00    +0.000 C 
ENDBRANCH  24  26
ENDBRANCH  20  24
ENDBRANCH  19  22
ENDBRANCH   1  19
TORSDOF 6
ENDMDL
MODEL 7
REMARK VINA RESULT:      -6.8      3.408     10.742
REMARK  Name = 
REMARK  8 active torsions:
REMARK  status: ('A' for Active; 'I' for Inactive)
REMARK    1  A    between atoms: C_1  and  C_2
REMARK    2  A    between atoms: C_2  and  C_3
REMARK    3  A    between atoms: C_2  and  C_4
REMARK    4  A    between atoms: C_4  and  C_5
REMARK    5  A    between atoms: N_7  and  C_8
REMARK    6  A    between atoms: C_8  and  C_9
REMARK    7  A    between atoms: C_12  and  C_13
REMARK    8  A    between atoms: N_15  and  C_16
REMARK                            x       y       z     vdW  Elec       q    Type
REMARK                         _______ _______ _______ _____ _____    ______ ____
ROOT
ATOM      1  C   UNL     1       0.305   9.912  21.550  0.00  0.00    +0.000 A 
ATOM      2  N   UNL     1       0.023  10.707  20.534  0.00  0.00    +0.000 NA
ATOM      3  N   UNL     1       0.592  10.268  19.346  0.00  0.00    +0.000 NA
ATOM      4  C   UNL     1       1.281   9.157  19.520  0.00  0.00    +0.000 A 
ATOM      5  S   UNL     1       1.296   8.574  21.133  0.00  0.00    +0.000 S 
ENDROOT
BRANCH   4   6
ATOM      6  C   UNL     1       2.004   8.452  18.470  0.00  0.00    +0.000 C 
ATOM      7  O   UNL     1       2.056   8.880  17.319  0.00  0.00    +0.000 OA
ATOM      8  N   UNL     1       2.580   7.248  18.874  0.00  0.00    +0.000 N 
ATOM      9  H   UNL     1       2.358   6.943  19.817  0.00  0.00    +0.000 HD
BRANCH   8  10
ATOM     10  C   UNL     1       3.297   6.351  18.044  0.00  0.00    +0.000 A 
ATOM     11  C   UNL     1       2.922   5.002  17.874  0.00  0.00    +0.000 A 
ATOM     12  C   UNL     1       3.693   4.116  17.112  0.00  0.00    +0.000 A 
ATOM     13  C   UNL     1       4.836   4.604  16.531  0.00  0.00    +0.000 A 
ATOM     14  C   UNL     1       5.197   5.924  16.657  0.00  0.00    +0.000 A 
ATOM     15  C   UNL     1       4.440   6.828  17.384  0.00  0.00    +0.000 A 
ATOM     16  O   UNL     1       6.367   6.195  16.013  0.00  0.00    +0.000 OA
ATOM     17  C   UNL     1       6.734   4.877  15.548  0.00  0.00    +0.000 C 
ATOM     18  O   UNL     1       5.725   3.881  15.801  0.00  0.00    +0.000 OA
ENDBRANCH   8  10
ENDBRANCH   4   6
BRANCH   1  19
ATOM     19  C   UNL     1      -0.152  10.102  22.961  0.00  0.00    +0.000 C 
BRANCH  19  22
ATOM     20  C   UNL     1      -1.737  11.961  23.185  0.00  0.00    +0.000 C 
ATOM     21  O   UNL     1      -0.834  12.788  23.266  0.00  0.00    +0.000 OA
ATOM     22  N   UNL     1      -1.507  10.622  22.974  0.00  0.00    +0.000 N 
ATOM     23  H   UNL     1      -2.264   9.963  23.106  0.00  0.00    +0.000 HD
BRANCH  20  24
ATOM     24  C   UNL     1      -3.200  12.359  23.274  0.00  0.00    +0.000 C 
BRANCH  24  26
ATOM     25  C   UNL     1      -3.723  12.770  20.827  0.00  0.00    +0.000 C 
ATOM     26  C   UNL     1      -3.632  13.390  22.222  0.00  0.00    +0.000 C 
ATOM     27  C   UNL     1      -4.983  13.997  22.607  0.00  0.00    +0.000 C 
ENDBRANCH  24  26
ENDBRANCH  20  24
ENDBRANCH  19  22
ENDBRANCH   1  19
TORSDOF 6
ENDMDL
MODEL 8
REMARK VINA RESULT:      -6.7      1.391      1.764
REMARK  Name = 
REMARK  8 active torsions:
REMARK  status: ('A' for Active; 'I' for Inactive)
REMARK    1  A    between atoms: C_1  and  C_2
REMARK    2  A    between atoms: C_2  and  C_3
REMARK    3  A    between atoms: C_2  and  C_4
REMARK    4  A    between atoms: C_4  and  C_5
REMARK    5  A    between atoms: N_7  and  C_8
REMARK    6  A    between atoms: C_8  and  C_9
REMARK    7  A    between atoms: C_12  and  C_13
REMARK    8  A    between atoms: N_15  and  C_16
REMARK                            x       y       z     vdW  Elec       q    Type
REMARK                         _______ _______ _______ _____ _____    ______ ____
ROOT
ATOM      1  C   UNL     1       5.071   4.409  18.026  0.00  0.00    +0.000 A 
ATOM      2  N   UNL     1       4.242   3.460  18.422  0.00  0.00    +0.000 NA
ATOM      3  N   UNL     1       3.162   3.966  19.132  0.00  0.00    +0.000 NA
ATOM      4  C   UNL     1       3.224   5.278  19.241  0.00  0.00    +0.000 A 
ATOM      5  S   UNL     1       4.599   5.989  18.502  0.00  0.00    +0.000 S 
ENDROOT
BRANCH   4   6
ATOM      6  C   UNL     1       2.247   6.104  19.936  0.00  0.00    +0.000 C 
ATOM      7  O   UNL     1       1.462   5.630  20.755  0.00  0.00    +0.000 OA
ATOM      8  N   UNL     1       2.253   7.448  19.560  0.00  0.00    +0.000 N 
ATOM      9  H   UNL     1       2.860   7.688  18.783  0.00  0.00    +0.000 HD
BRANCH   8  10
ATOM     10  C   UNL     1       1.379   8.450  20.047  0.00  0.00    +0.000 A 
ATOM     11  C   UNL     1       1.001   9.573  19.281  0.00  0.00    +0.000 A 
ATOM     12  C   UNL     1       0.201  10.590  19.814  0.00  0.00    +0.000 A 
ATOM     13  C   UNL     1      -0.209  10.461  21.118  0.00  0.00    +0.000 A 
ATOM     14  C   UNL     1       0.121   9.357  21.867  0.00  0.00    +0.000 A 
ATOM     15  C   UNL     1       0.891   8.325  21.357  0.00  0.00    +0.000 A 
ATOM     16  O   UNL     1      -0.377   9.434  23.133  0.00  0.00    +0.000 OA
ATOM     17  C   UNL     1      -0.976  10.749  23.111  0.00  0.00    +0.000 C 
ATOM     18  O   UNL     1      -0.945  11.369  21.811  0.00  0.00    +0.000 OA
ENDBRANCH   8  10
ENDBRANCH   4   6
BRANCH   1  19
ATOM     19  C   UNL     1       6.328   4.200  17.244  0.00  0.00    +0.000 C 
BRANCH  19  22
ATOM     20  C   UNL     1       6.538   4.363  14.805  0.00  0.00    +0.000 C 
ATOM     21  O   UNL     1       7.377   5.255  14.886  0.00  0.00    +0.000 OA
ATOM     22  N   UNL     1       6.005   3.736  15.906  0.00  0.00    +0.000 N 
ATOM     23  H   UNL     1       5.188   3.150  15.795  0.00  0.00    +0.000 HD
BRANCH  20  24
ATOM     24  C   UNL     1       6.044   3.845  13.466  0.00  0.00    +0.000 C 
BRANCH  24  26
ATOM     25  C   UNL     1       6.852   2.498  11.474  0.00  0.00    +0.000 C 
ATOM     26  C   UNL     1       7.152   3.664  12.418  0.00  0.00    +0.000 C 
ATOM     27  C   UNL     1       7.326   4.951  11.609  0.00  0.00    +0.000 C 
ENDBRANCH  24  26
ENDBRANCH  20  24
ENDBRANCH  19  22
ENDBRANCH   1  19
TORSDOF 6
ENDMDL
MODEL 9
REMARK VINA RESULT:      -6.7      3.352      9.362
REMARK  Name = 
REMARK  8 active torsions:
REMARK  status: ('A' for Active; 'I' for Inactive)
REMARK    1  A    between atoms: C_1  and  C_2
REMARK    2  A    between atoms: C_2  and  C_3
REMARK    3  A    between atoms: C_2  and  C_4
REMARK    4  A    between atoms: C_4  and  C_5
REMARK    5  A    between atoms: N_7  and  C_8
REMARK    6  A    between atoms: C_8  and  C_9
REMARK    7  A    between atoms: C_12  and  C_13
REMARK    8  A    between atoms: N_15  and  C_16
REMARK                            x       y       z     vdW  Elec       q    Type
REMARK                         _______ _______ _______ _____ _____    ______ ____
ROOT
ATOM      1  C   UNL     1       0.327  10.557  20.870  0.00  0.00    +0.000 A 
ATOM      2  N   UNL     1       0.783  10.030  21.991  0.00  0.00    +0.000 NA
ATOM      3  N   UNL     1       1.441   8.826  21.779  0.00  0.00    +0.000 NA
ATOM      4  C   UNL     1       1.452   8.497  20.502  0.00  0.00    +0.000 A 
ATOM      5  S   UNL     1       0.657   9.616  19.473  0.00  0.00    +0.000 S 
ENDROOT
BRANCH   4   6
ATOM      6  C   UNL     1       2.056   7.289  19.957  0.00  0.00    +0.000 C 
ATOM      7  O   UNL     1       2.096   6.240  20.597  0.00  0.00    +0.000 OA
ATOM      8  N   UNL     1       2.613   7.443  18.688  0.00  0.00    +0.000 N 
ATOM      9  H   UNL     1       2.627   8.389  18.321  0.00  0.00    +0.000 HD
BRANCH   8  10
ATOM     10  C   UNL     1       3.296   6.442  17.954  0.00  0.00    +0.000 A 
ATOM     11  C   UNL     1       2.858   5.102  17.898  0.00  0.00    +0.000 A 
ATOM     12  C   UNL     1       3.595   4.116  17.232  0.00  0.00    +0.000 A 
ATOM     13  C   UNL     1       4.769   4.495  16.631  0.00  0.00    +0.000 A 
ATOM     14  C   UNL     1       5.192   5.802  16.646  0.00  0.00    +0.000 A 
ATOM     15  C   UNL     1       4.470   6.803  17.275  0.00  0.00    +0.000 A 
ATOM     16  O   UNL     1       6.382   5.959  16.001  0.00  0.00    +0.000 OA
ATOM     17  C   UNL     1       6.692   4.589  15.662  0.00  0.00    +0.000 C 
ATOM     18  O   UNL     1       5.632   3.668  15.985  0.00  0.00    +0.000 OA
ENDBRANCH   8  10
ENDBRANCH   4   6
BRANCH   1  19
ATOM     19  C   UNL     1      -0.426  11.843  20.752  0.00  0.00    +0.000 C 
BRANCH  19  22
ATOM     20  C   UNL     1      -2.421  12.028  19.336  0.00  0.00    +0.000 C 
ATOM     21  O   UNL     1      -3.161  12.153  20.307  0.00  0.00    +0.000 OA
ATOM     22  N   UNL     1      -1.054  11.929  19.446  0.00  0.00    +0.000 N 
ATOM     23  H   UNL     1      -0.512  11.638  18.643  0.00  0.00    +0.000 HD
BRANCH  20  24
ATOM     24  C   UNL     1      -2.957  12.011  17.916  0.00  0.00    +0.000 C 
BRANCH  24  26
ATOM     25  C   UNL     1      -3.330   9.518  17.632  0.00  0.00    +0.000 C 
ATOM     26  C   UNL     1      -2.583  10.751  17.121  0.00  0.00    +0.000 C 
ATOM     27  C   UNL     1      -2.885  10.959  15.635  0.00  0.00    +0.000 C 
ENDBRANCH  24  26
ENDBRANCH  20  24
ENDBRANCH  19  22
ENDBRANCH   1  19
TORSDOF 6
ENDMDL
