MODEL 1
REMARK VINA RESULT:      -9.4      0.000      0.000
REMARK  Name = 
REMARK  4 active torsions:
REMARK  status: ('A' for Active; 'I' for Inactive)
REMARK    1  A    between atoms: C_1  and  N_2
REMARK    2  A    between atoms: C_6  and  N_7
REMARK    3  A    between atoms: N_7  and  C_8
REMARK    4  A    between atoms: N_26  and  C_27
REMARK                            x       y       z     vdW  Elec       q    Type
REMARK                         _______ _______ _______ _____ _____    ______ ____
ROOT
ATOM      1  C   UNL     1       2.232   5.814  19.957  0.00  0.00    +0.000 A 
ATOM      2  C   UNL     1       1.482   4.984  20.819  0.00  0.00    +0.000 A 
ATOM      3  C   UNL     1       1.489   3.597  20.701  0.00  0.00    +0.000 A 
ATOM      4  C   UNL     1       2.225   3.005  19.685  0.00  0.00    +0.000 A 
ATOM      5  C   UNL     1       2.986   3.802  18.816  0.00  0.00    +0.000 A 
ATOM      6  C   UNL     1       3.027   5.199  18.967  0.00  0.00    +0.000 A 
ATOM      7  C   UNL     1       4.032   5.943  18.160  0.00  0.00    +0.000 C 
ATOM      8  O   UNL     1       4.450   7.048  18.484  0.00  0.00    +0.000 OA
ATOM      9  C   UNL     1       4.620   5.309  16.967  0.00  0.00    +0.000 A 
ATOM     10  C   UNL     1       5.366   6.080  16.065  0.00  0.00    +0.000 A 
ATOM     11  C   UNL     1       5.960   5.477  14.956  0.00  0.00    +0.000 A 
ATOM     12  C   UNL     1       5.814   4.107  14.747  0.00  0.00    +0.000 A 
ATOM     13  C   UNL     1       5.076   3.337  15.647  0.00  0.00    +0.000 A 
ATOM     14  C   UNL     1       4.480   3.943  16.761  0.00  0.00    +0.000 A 
ATOM     15  C   UNL     1       3.729   3.129  17.732  0.00  0.00    +0.000 C 
ATOM     16  O   UNL     1       3.702   1.909  17.618  0.00  0.00    +0.000 OA
ENDROOT
BRANCH   1  17
ATOM     17  N   UNL     1       2.001   7.193  20.109  0.00  0.00    +0.000 N 
ATOM     18  H   UNL     1       2.538   7.802  19.479  0.00  0.00    +0.000 HD
BRANCH  17  24
ATOM     19  C   UNL     1      -1.231  11.615  22.903  0.00  0.00    +0.000 C 
ATOM     20  N   UNL     1      -0.471  10.988  21.834  0.00  0.00    +0.000 N 
ATOM     21  C   UNL     1      -0.150   9.646  21.958  0.00  0.00    +0.000 C 
ATOM     22  O   UNL     1      -0.509   8.949  22.905  0.00  0.00    +0.000 OA
ATOM     23  C   UNL     1       0.688   9.103  20.875  0.00  0.00    +0.000 C 
ATOM     24  C   UNL     1       1.204   7.867  21.005  0.00  0.00    +0.000 C 
ATOM     25  C   UNL     1       1.010   9.913  19.683  0.00  0.00    +0.000 C 
ATOM     26  O   UNL     1       1.632   9.435  18.733  0.00  0.00    +0.000 OA
ATOM     27  N   UNL     1       0.609  11.231  19.742  0.00  0.00    +0.000 N 
ATOM     28  C   UNL     1       0.995  12.107  18.646  0.00  0.00    +0.000 C 
ATOM     29  C   UNL     1      -0.084  11.818  20.789  0.00  0.00    +0.000 C 
ATOM     30  O   UNL     1      -0.337  13.024  20.796  0.00  0.00    +0.000 OA
ENDBRANCH  17  24
ENDBRANCH   1  17
TORSDOF 2
ENDMDL
MODEL 2
REMARK VINA RESULT:      -9.2      0.909      2.041
REMARK  Name = 
REMARK  4 active torsions:
REMARK  status: ('A' for Active; 'I' for Inactive)
REMARK    1  A    between atoms: C_1  and  N_2
REMARK    2  A    between atoms: C_6  and  N_7
REMARK    3  A    between atoms: N_7  and  C_8
REMARK    4  A    between atoms: N_26  and  C_27
REMARK                            x       y       z     vdW  Elec       q    Type
REMARK                         _______ _______ _______ _____ _____    ______ ____
ROOT
ATOM      1  C   UNL     1       2.366   5.765  19.966  0.00  0.00    +0.000 A 
ATOM      2  C   UNL     1       1.460   4.986  20.718  0.00  0.00    +0.000 A 
ATOM      3  C   UNL     1       1.305   3.619  20.504  0.00  0.00    +0.000 A 
ATOM      4  C   UNL     1       2.034   3.002  19.498  0.00  0.00    +0.000 A 
ATOM      5  C   UNL     1       2.947   3.748  18.737  0.00  0.00    +0.000 A 
ATOM      6  C   UNL     1       3.148   5.116  18.988  0.00  0.00    +0.000 A 
ATOM      7  C   UNL     1       4.293   5.775  18.300  0.00  0.00    +0.000 C 
ATOM      8  O   UNL     1       4.818   6.796  18.727  0.00  0.00    +0.000 OA
ATOM      9  C   UNL     1       4.883   5.146  17.105  0.00  0.00    +0.000 A 
ATOM     10  C   UNL     1       5.780   5.871  16.309  0.00  0.00    +0.000 A 
ATOM     11  C   UNL     1       6.374   5.266  15.201  0.00  0.00    +0.000 A 
ATOM     12  C   UNL     1       6.077   3.941  14.887  0.00  0.00    +0.000 A 
ATOM     13  C   UNL     1       5.187   3.218  15.683  0.00  0.00    +0.000 A 
ATOM     14  C   UNL     1       4.591   3.824  16.796  0.00  0.00    +0.000 A 
ATOM     15  C   UNL     1       3.678   3.055  17.658  0.00  0.00    +0.000 C 
ATOM     16  O   UNL     1       3.510   1.856  17.457  0.00  0.00    +0.000 OA
ENDROOT
BRANCH   1  17
ATOM     17  N   UNL     1       2.295   7.150  20.199  0.00  0.00    +0.000 N 
ATOM     18  H   UNL     1       2.701   7.469  21.087  0.00  0.00    +0.000 HD
BRANCH  17  24
ATOM     19  C   UNL     1      -1.055  12.019  18.502  0.00  0.00    +0.000 C 
ATOM     20  N   UNL     1      -0.433  11.080  19.420  0.00  0.00    +0.000 N 
ATOM     21  C   UNL     1       0.467  10.159  18.908  0.00  0.00    +0.000 C 
ATOM     22  O   UNL     1       0.797  10.123  17.724  0.00  0.00    +0.000 OA
ATOM     23  C   UNL     1       0.993   9.191  19.885  0.00  0.00    +0.000 C 
ATOM     24  C   UNL     1       1.723   8.149  19.445  0.00  0.00    +0.000 C 
ATOM     25  C   UNL     1       0.686   9.320  21.325  0.00  0.00    +0.000 C 
ATOM     26  O   UNL     1       1.197   8.569  22.157  0.00  0.00    +0.000 OA
ATOM     27  N   UNL     1      -0.235  10.294  21.645  0.00  0.00    +0.000 N 
ATOM     28  C   UNL     1      -0.661  10.396  23.032  0.00  0.00    +0.000 C 
ATOM     29  C   UNL     1      -0.844  11.156  20.746  0.00  0.00    +0.000 C 
ATOM     30  O   UNL     1      -1.715  11.950  21.106  0.00  0.00    +0.000 OA
ENDBRANCH  17  24
ENDBRANCH   1  17
TORSDOF 2
ENDMDL
MODEL 3
REMARK VINA RESULT:      -8.9      1.001      1.052
REMARK  Name = 
REMARK  4 active torsions:
REMARK  status: ('A' for Active; 'I' for Inactive)
REMARK    1  A    between atoms: C_1  and  N_2
REMARK    2  A    between atoms: C_6  and  N_7
REMARK    3  A    between atoms: N_7  and  C_8
REMARK    4  A    between atoms: N_26  and  C_27
REMARK                            x       y       z     vdW  Elec       q    Type
REMARK                         _______ _______ _______ _____ _____    ______ ____
ROOT
ATOM      1  C   UNL     1       2.250   6.573  19.684  0.00  0.00    +0.000 A 
ATOM      2  C   UNL     1       1.612   5.897  20.747  0.00  0.00    +0.000 A 
ATOM      3  C   UNL     1       1.769   4.530  20.954  0.00  0.00    +0.000 A 
ATOM      4  C   UNL     1       2.546   3.794  20.071  0.00  0.00    +0.000 A 
ATOM      5  C   UNL     1       3.198   4.437  19.009  0.00  0.00    +0.000 A 
ATOM      6  C   UNL     1       3.088   5.827  18.829  0.00  0.00    +0.000 A 
ATOM      7  C   UNL     1       3.990   6.459  17.827  0.00  0.00    +0.000 C 
ATOM      8  O   UNL     1       4.291   7.646  17.868  0.00  0.00    +0.000 OA
ATOM      9  C   UNL     1       4.622   5.625  16.789  0.00  0.00    +0.000 A 
ATOM     10  C   UNL     1       5.261   6.235  15.701  0.00  0.00    +0.000 A 
ATOM     11  C   UNL     1       5.896   5.451  14.737  0.00  0.00    +0.000 A 
ATOM     12  C   UNL     1       5.898   4.063  14.858  0.00  0.00    +0.000 A 
ATOM     13  C   UNL     1       5.266   3.456  15.944  0.00  0.00    +0.000 A 
ATOM     14  C   UNL     1       4.628   4.242  16.912  0.00  0.00    +0.000 A 
ATOM     15  C   UNL     1       3.989   3.608  18.078  0.00  0.00    +0.000 C 
ATOM     16  O   UNL     1       4.095   2.398  18.251  0.00  0.00    +0.000 OA
ENDROOT
BRANCH   1  17
ATOM     17  N   UNL     1       1.872   7.918  19.521  0.00  0.00    +0.000 N 
ATOM     18  H   UNL     1       2.194   8.365  18.654  0.00  0.00    +0.000 HD
BRANCH  17  24
ATOM     19  C   UNL     1      -0.522  12.951  22.119  0.00  0.00    +0.000 C 
ATOM     20  N   UNL     1       0.157  12.167  21.100  0.00  0.00    +0.000 N 
ATOM     21  C   UNL     1       0.175  10.789  21.237  0.00  0.00    +0.000 C 
ATOM     22  O   UNL     1      -0.388  10.193  22.152  0.00  0.00    +0.000 OA
ATOM     23  C   UNL     1       0.949  10.071  20.209  0.00  0.00    +0.000 C 
ATOM     24  C   UNL     1       1.178   8.754  20.366  0.00  0.00    +0.000 C 
ATOM     25  C   UNL     1       1.516  10.784  19.047  0.00  0.00    +0.000 C 
ATOM     26  O   UNL     1       2.085  10.176  18.139  0.00  0.00    +0.000 OA
ATOM     27  N   UNL     1       1.403  12.158  19.087  0.00  0.00    +0.000 N 
ATOM     28  C   UNL     1       2.040  12.922  18.026  0.00  0.00    +0.000 C 
ATOM     29  C   UNL     1       0.783  12.887  20.089  0.00  0.00    +0.000 C 
ATOM     30  O   UNL     1       0.793  14.120  20.086  0.00  0.00    +0.000 OA
ENDBRANCH  17  24
ENDBRANCH   1  17
TORSDOF 2
ENDMDL
MODEL 4
REMARK VINA RESULT:      -8.8      1.833      2.469
REMARK  Name = 
REMARK  4 active torsions:
REMARK  status: ('A' for Active; 'I' for Inactive)
REMARK    1  A    between atoms: C_1  and  N_2
REMARK    2  A    between atoms: C_6  and  N_7
REMARK    3  A    between atoms: N_7  and  C_8
REMARK    4  A    between atoms: N_26  and  C_27
REMARK                            x       y       z     vdW  Elec       q    Type
REMARK                         _______ _______ _______ _____ _____    ______ ____
ROOT
ATOM      1  C   UNL     1       2.221   7.349  19.323  0.00  0.00    +0.000 A 
ATOM      2  C   UNL     1       1.557   6.905  20.487  0.00  0.00    +0.000 A 
ATOM      3  C   UNL     1       1.700   5.607  20.971  0.00  0.00    +0.000 A 
ATOM      4  C   UNL     1       2.490   4.705  20.273  0.00  0.00    +0.000 A 
ATOM      5  C   UNL     1       3.168   5.118  19.116  0.00  0.00    +0.000 A 
ATOM      6  C   UNL     1       3.072   6.443  18.656  0.00  0.00    +0.000 A 
ATOM      7  C   UNL     1       3.999   6.856  17.566  0.00  0.00    +0.000 C 
ATOM      8  O   UNL     1       4.306   8.026  17.372  0.00  0.00    +0.000 OA
ATOM      9  C   UNL     1       4.645   5.827  16.733  0.00  0.00    +0.000 A 
ATOM     10  C   UNL     1       5.311   6.202  15.558  0.00  0.00    +0.000 A 
ATOM     11  C   UNL     1       5.961   5.237  14.787  0.00  0.00    +0.000 A 
ATOM     12  C   UNL     1       5.950   3.902  15.187  0.00  0.00    +0.000 A 
ATOM     13  C   UNL     1       5.292   3.530  16.360  0.00  0.00    +0.000 A 
ATOM     14  C   UNL     1       4.640   4.498  17.134  0.00  0.00    +0.000 A 
ATOM     15  C   UNL     1       3.973   4.115  18.391  0.00  0.00    +0.000 C 
ATOM     16  O   UNL     1       4.066   2.966  18.808  0.00  0.00    +0.000 OA
ENDROOT
BRANCH   1  17
ATOM     17  N   UNL     1       1.856   8.634  18.883  0.00  0.00    +0.000 N 
ATOM     18  H   UNL     1       2.555   9.370  19.041  0.00  0.00    +0.000 HD
BRANCH  17  24
ATOM     19  C   UNL     1      -3.461  11.584  17.965  0.00  0.00    +0.000 C 
ATOM     20  N   UNL     1      -2.200  11.273  18.619  0.00  0.00    +0.000 N 
ATOM     21  C   UNL     1      -1.336  10.390  17.993  0.00  0.00    +0.000 C 
ATOM     22  O   UNL     1      -1.562   9.887  16.894  0.00  0.00    +0.000 OA
ATOM     23  C   UNL     1      -0.118  10.065  18.754  0.00  0.00    +0.000 C 
ATOM     24  C   UNL     1       0.684   9.078  18.314  0.00  0.00    +0.000 C 
ATOM     25  C   UNL     1       0.203  10.768  20.014  0.00  0.00    +0.000 C 
ATOM     26  O   UNL     1       1.264  10.566  20.607  0.00  0.00    +0.000 OA
ATOM     27  N   UNL     1      -0.783  11.609  20.485  0.00  0.00    +0.000 N 
ATOM     28  C   UNL     1      -0.572  12.244  21.777  0.00  0.00    +0.000 C 
ATOM     29  C   UNL     1      -1.994  11.862  19.861  0.00  0.00    +0.000 C 
ATOM     30  O   UNL     1      -2.853  12.570  20.390  0.00  0.00    +0.000 OA
ENDBRANCH  17  24
ENDBRANCH   1  17
TORSDOF 2
ENDMDL
MODEL 5
REMARK VINA RESULT:      -8.5      1.966      8.135
REMARK  Name = 
REMARK  4 active torsions:
REMARK  status: ('A' for Active; 'I' for Inactive)
REMARK    1  A    between atoms: C_1  and  N_2
REMARK    2  A    between atoms: C_6  and  N_7
REMARK    3  A    between atoms: N_7  and  C_8
REMARK    4  A    between atoms: N_26  and  C_27
REMARK                            x       y       z     vdW  Elec       q    Type
REMARK                         _______ _______ _______ _____ _____    ______ ____
ROOT
ATOM      1  C   UNL     1       0.926   9.054  20.537  0.00  0.00    +0.000 A 
ATOM      2  C   UNL     1       0.205   8.468  21.601  0.00  0.00    +0.000 A 
ATOM      3  C   UNL     1      -0.512   9.232  22.517  0.00  0.00    +0.000 A 
ATOM      4  C   UNL     1      -0.496  10.615  22.410  0.00  0.00    +0.000 A 
ATOM      5  C   UNL     1       0.205  11.227  21.360  0.00  0.00    +0.000 A 
ATOM      6  C   UNL     1       0.884  10.457  20.400  0.00  0.00    +0.000 A 
ATOM      7  C   UNL     1       1.402  11.167  19.197  0.00  0.00    +0.000 C 
ATOM      8  O   UNL     1       1.624  10.593  18.138  0.00  0.00    +0.000 OA
ATOM      9  C   UNL     1       1.582  12.629  19.238  0.00  0.00    +0.000 A 
ATOM     10  C   UNL     1       2.298  13.270  18.218  0.00  0.00    +0.000 A 
ATOM     11  C   UNL     1       2.436  14.659  18.229  0.00  0.00    +0.000 A 
ATOM     12  C   UNL     1       1.859  15.408  19.254  0.00  0.00    +0.000 A 
ATOM     13  C   UNL     1       1.142  14.770  20.267  0.00  0.00    +0.000 A 
ATOM     14  C   UNL     1       1.003  13.376  20.256  0.00  0.00    +0.000 A 
ATOM     15  C   UNL     1       0.219  12.702  21.304  0.00  0.00    +0.000 C 
ATOM     16  O   UNL     1      -0.391  13.366  22.135  0.00  0.00    +0.000 OA
ENDROOT
BRANCH   1  17
ATOM     17  N   UNL     1       1.718   8.162  19.792  0.00  0.00    +0.000 N 
ATOM     18  H   UNL     1       2.095   8.536  18.913  0.00  0.00    +0.000 HD
BRANCH  17  24
ATOM     19  C   UNL     1       4.028   2.494  19.205  0.00  0.00    +0.000 C 
ATOM     20  N   UNL     1       3.855   3.904  18.900  0.00  0.00    +0.000 N 
ATOM     21  C   UNL     1       3.099   4.675  19.767  0.00  0.00    +0.000 C 
ATOM     22  O   UNL     1       2.600   4.237  20.803  0.00  0.00    +0.000 OA
ATOM     23  C   UNL     1       2.904   6.074  19.350  0.00  0.00    +0.000 C 
ATOM     24  C   UNL     1       2.032   6.843  20.028  0.00  0.00    +0.000 C 
ATOM     25  C   UNL     1       3.608   6.622  18.172  0.00  0.00    +0.000 C 
ATOM     26  O   UNL     1       3.520   7.814  17.872  0.00  0.00    +0.000 OA
ATOM     27  N   UNL     1       4.312   5.701  17.427  0.00  0.00    +0.000 N 
ATOM     28  C   UNL     1       4.934   6.158  16.194  0.00  0.00    +0.000 C 
ATOM     29  C   UNL     1       4.432   4.350  17.717  0.00  0.00    +0.000 C 
ATOM     30  O   UNL     1       5.019   3.580  16.955  0.00  0.00    +0.000 OA
ENDBRANCH  17  24
ENDBRANCH   1  17
TORSDOF 2
ENDMDL
MODEL 6
REMARK VINA RESULT:      -8.5      2.065      8.492
REMARK  Name = 
REMARK  4 active torsions:
REMARK  status: ('A' for Active; 'I' for Inactive)
REMARK    1  A    between atoms: C_1  and  N_2
REMARK    2  A    between atoms: C_6  and  N_7
REMARK    3  A    between atoms: N_7  and  C_8
REMARK    4  A    between atoms: N_26  and  C_27
REMARK                            x       y       z     vdW  Elec       q    Type
REMARK                         _______ _______ _______ _____ _____    ______ ____
ROOT
ATOM      1  C   UNL     1       1.789   8.316  19.858  0.00  0.00    +0.000 A 
ATOM      2  C   UNL     1       2.315   8.286  18.548  0.00  0.00    +0.000 A 
ATOM      3  C   UNL     1       2.010   9.264  17.606  0.00  0.00    +0.000 A 
ATOM      4  C   UNL     1       1.135  10.285  17.945  0.00  0.00    +0.000 A 
ATOM      5  C   UNL     1       0.600  10.347  19.241  0.00  0.00    +0.000 A 
ATOM      6  C   UNL     1       0.950   9.393  20.212  0.00  0.00    +0.000 A 
ATOM      7  C   UNL     1       0.527   9.661  21.615  0.00  0.00    +0.000 C 
ATOM      8  O   UNL     1       1.095   9.165  22.580  0.00  0.00    +0.000 OA
ATOM      9  C   UNL     1      -0.561  10.621  21.875  0.00  0.00    +0.000 A 
ATOM     10  C   UNL     1      -1.134  10.692  23.152  0.00  0.00    +0.000 A 
ATOM     11  C   UNL     1      -2.135  11.628  23.416  0.00  0.00    +0.000 A 
ATOM     12  C   UNL     1      -2.563  12.493  22.410  0.00  0.00    +0.000 A 
ATOM     13  C   UNL     1      -1.988  12.425  21.140  0.00  0.00    +0.000 A 
ATOM     14  C   UNL     1      -0.983  11.486  20.875  0.00  0.00    +0.000 A 
ATOM     15  C   UNL     1      -0.350  11.435  19.546  0.00  0.00    +0.000 C 
ATOM     16  O   UNL     1      -0.636  12.273  18.698  0.00  0.00    +0.000 OA
ENDROOT
BRANCH   1  17
ATOM     17  N   UNL     1       2.069   7.181  20.639  0.00  0.00    +0.000 N 
ATOM     18  H   UNL     1       2.747   7.323  21.397  0.00  0.00    +0.000 HD
BRANCH  17  24
ATOM     19  C   UNL     1       1.624   1.250  19.077  0.00  0.00    +0.000 C 
ATOM     20  N   UNL     1       2.258   2.551  19.219  0.00  0.00    +0.000 N 
ATOM     21  C   UNL     1       1.602   3.523  19.957  0.00  0.00    +0.000 C 
ATOM     22  O   UNL     1       0.533   3.329  20.532  0.00  0.00    +0.000 OA
ATOM     23  C   UNL     1       2.269   4.836  19.988  0.00  0.00    +0.000 C 
ATOM     24  C   UNL     1       1.616   5.887  20.520  0.00  0.00    +0.000 C 
ATOM     25  C   UNL     1       3.610   5.023  19.400  0.00  0.00    +0.000 C 
ATOM     26  O   UNL     1       4.210   6.094  19.503  0.00  0.00    +0.000 OA
ATOM     27  N   UNL     1       4.101   3.942  18.699  0.00  0.00    +0.000 N 
ATOM     28  C   UNL     1       5.369   4.103  18.003  0.00  0.00    +0.000 C 
ATOM     29  C   UNL     1       3.462   2.722  18.546  0.00  0.00    +0.000 C 
ATOM     30  O   UNL     1       3.937   1.832  17.838  0.00  0.00    +0.000 OA
ENDBRANCH  17  24
ENDBRANCH   1  17
TORSDOF 2
ENDMDL
MODEL 7
REMARK VINA RESULT:      -8.1      1.899      2.112
REMARK  Name = 
REMARK  4 active torsions:
REMARK  status: ('A' for Active; 'I' for Inactive)
REMARK    1  A    between atoms: C_1  and  N_2
REMARK    2  A    between atoms: C_6  and  N_7
REMARK    3  A    between atoms: N_7  and  C_8
REMARK    4  A    between atoms: N_26  and  C_27
REMARK                            x       y       z     vdW  Elec       q    Type
REMARK                         _______ _______ _______ _____ _____    ______ ____
ROOT
ATOM      1  C   UNL     1       2.238   7.232  19.423  0.00  0.00    +0.000 A 
ATOM      2  C   UNL     1       1.576   6.725  20.562  0.00  0.00    +0.000 A 
ATOM      3  C   UNL     1       1.704   5.397  20.962  0.00  0.00    +0.000 A 
ATOM      4  C   UNL     1       2.476   4.531  20.203  0.00  0.00    +0.000 A 
ATOM      5  C   UNL     1       3.152   5.006  19.069  0.00  0.00    +0.000 A 
ATOM      6  C   UNL     1       3.072   6.358  18.694  0.00  0.00    +0.000 A 
ATOM      7  C   UNL     1       3.997   6.827  17.625  0.00  0.00    +0.000 C 
ATOM      8  O   UNL     1       4.319   8.002  17.502  0.00  0.00    +0.000 OA
ATOM      9  C   UNL     1       4.623   5.843  16.724  0.00  0.00    +0.000 A 
ATOM     10  C   UNL     1       5.286   6.282  15.570  0.00  0.00    +0.000 A 
ATOM     11  C   UNL     1       5.917   5.359  14.735  0.00  0.00    +0.000 A 
ATOM     12  C   UNL     1       5.890   4.001  15.051  0.00  0.00    +0.000 A 
ATOM     13  C   UNL     1       5.235   3.565  16.203  0.00  0.00    +0.000 A 
ATOM     14  C   UNL     1       4.601   4.492  17.042  0.00  0.00    +0.000 A 
ATOM     15  C   UNL     1       3.938   4.040  18.277  0.00  0.00    +0.000 C 
ATOM     16  O   UNL     1       4.018   2.865  18.620  0.00  0.00    +0.000 OA
ENDROOT
BRANCH   1  17
ATOM     17  N   UNL     1       1.888   8.547  19.067  0.00  0.00    +0.000 N 
ATOM     18  H   UNL     1       2.282   8.884  18.180  0.00  0.00    +0.000 HD
BRANCH  17  24
ATOM     19  C   UNL     1      -2.417  12.709  20.464  0.00  0.00    +0.000 C 
ATOM     20  N   UNL     1      -1.772  11.663  19.689  0.00  0.00    +0.000 N 
ATOM     21  C   UNL     1      -0.681  11.013  20.243  0.00  0.00    +0.000 C 
ATOM     22  O   UNL     1      -0.257  11.246  21.373  0.00  0.00    +0.000 OA
ATOM     23  C   UNL     1      -0.034  10.023  19.365  0.00  0.00    +0.000 C 
ATOM     24  C   UNL     1       1.138   9.481  19.745  0.00  0.00    +0.000 C 
ATOM     25  C   UNL     1      -0.623   9.661  18.060  0.00  0.00    +0.000 C 
ATOM     26  O   UNL     1      -0.137   8.770  17.363  0.00  0.00    +0.000 OA
ATOM     27  N   UNL     1      -1.706  10.422  17.673  0.00  0.00    +0.000 N 
ATOM     28  C   UNL     1      -2.262  10.188  16.349  0.00  0.00    +0.000 C 
ATOM     29  C   UNL     1      -2.284  11.441  18.416  0.00  0.00    +0.000 C 
ATOM     30  O   UNL     1      -3.204  12.123  17.962  0.00  0.00    +0.000 OA
ENDBRANCH  17  24
ENDBRANCH   1  17
TORSDOF 2
ENDMDL
MODEL 8
REMARK VINA RESULT:      -7.8      2.356      8.886
REMARK  Name = 
REMARK  4 active torsions:
REMARK  status: ('A' for Active; 'I' for Inactive)
REMARK    1  A    between atoms: C_1  and  N_2
REMARK    2  A    between atoms: C_6  and  N_7
REMARK    3  A    between atoms: N_7  and  C_8
REMARK    4  A    between atoms: N_26  and  C_27
REMARK                            x       y       z     vdW  Elec       q    Type
REMARK                         _______ _______ _______ _____ _____    ______ ____
ROOT
ATOM      1  C   UNL     1       0.025  10.065  19.049  0.00  0.00    +0.000 A 
ATOM      2  C   UNL     1      -0.371   9.618  17.769  0.00  0.00    +0.000 A 
ATOM      3  C   UNL     1      -1.565  10.025  17.180  0.00  0.00    +0.000 A 
ATOM      4  C   UNL     1      -2.415  10.868  17.881  0.00  0.00    +0.000 A 
ATOM      5  C   UNL     1      -2.047  11.335  19.151  0.00  0.00    +0.000 A 
ATOM      6  C   UNL     1      -0.817  10.972  19.726  0.00  0.00    +0.000 A 
ATOM      7  C   UNL     1      -0.403  11.690  20.963  0.00  0.00    +0.000 C 
ATOM      8  O   UNL     1       0.768  11.777  21.313  0.00  0.00    +0.000 OA
ATOM      9  C   UNL     1      -1.416  12.399  21.766  0.00  0.00    +0.000 A 
ATOM     10  C   UNL     1      -1.089  12.857  23.049  0.00  0.00    +0.000 A 
ATOM     11  C   UNL     1      -2.031  13.566  23.797  0.00  0.00    +0.000 A 
ATOM     12  C   UNL     1      -3.295  13.819  23.266  0.00  0.00    +0.000 A 
ATOM     13  C   UNL     1      -3.618  13.367  21.986  0.00  0.00    +0.000 A 
ATOM     14  C   UNL     1      -2.673  12.656  21.235  0.00  0.00    +0.000 A 
ATOM     15  C   UNL     1      -2.997  12.207  19.870  0.00  0.00    +0.000 C 
ATOM     16  O   UNL     1      -4.061  12.534  19.355  0.00  0.00    +0.000 OA
ENDROOT
BRANCH   1  17
ATOM     17  N   UNL     1       1.178   9.447  19.566  0.00  0.00    +0.000 N 
ATOM     18  H   UNL     1       2.017  10.037  19.599  0.00  0.00    +0.000 HD
BRANCH  17  24
ATOM     19  C   UNL     1       3.108   3.618  19.887  0.00  0.00    +0.000 C 
ATOM     20  N   UNL     1       3.061   4.984  19.395  0.00  0.00    +0.000 N 
ATOM     21  C   UNL     1       2.301   5.908  20.093  0.00  0.00    +0.000 C 
ATOM     22  O   UNL     1       1.697   5.641  21.131  0.00  0.00    +0.000 OA
ATOM     23  C   UNL     1       2.239   7.250  19.488  0.00  0.00    +0.000 C 
ATOM     24  C   UNL     1       1.378   8.153  19.991  0.00  0.00    +0.000 C 
ATOM     25  C   UNL     1       3.065   7.593  18.313  0.00  0.00    +0.000 C 
ATOM     26  O   UNL     1       3.086   8.738  17.859  0.00  0.00    +0.000 OA
ATOM     27  N   UNL     1       3.754   6.540  17.750  0.00  0.00    +0.000 N 
ATOM     28  C   UNL     1       4.497   6.793  16.525  0.00  0.00    +0.000 C 
ATOM     29  C   UNL     1       3.755   5.235  18.216  0.00  0.00    +0.000 C 
ATOM     30  O   UNL     1       4.338   4.336  17.608  0.00  0.00    +0.000 OA
ENDBRANCH  17  24
ENDBRANCH   1  17
TORSDOF 2
ENDMDL
MODEL 9
REMARK VINA RESULT:      -7.7      1.925      2.891
REMARK  Name = 
REMARK  4 active torsions:
REMARK  status: ('A' for Active; 'I' for Inactive)
REMARK    1  A    between atoms: C_1  and  N_2
REMARK    2  A    between atoms: C_6  and  N_7
REMARK    3  A    between atoms: N_7  and  C_8
REMARK    4  A    between atoms: N_26  and  C_27
REMARK                            x       y       z     vdW  Elec       q    Type
REMARK                         _______ _______ _______ _____ _____    ______ ____
ROOT
ATOM      1  C   UNL     1       2.113   7.712  18.873  0.00  0.00    +0.000 A 
ATOM      2  C   UNL     1       1.510   7.487  20.130  0.00  0.00    +0.000 A 
ATOM      3  C   UNL     1       1.780   6.349  20.886  0.00  0.00    +0.000 A 
ATOM      4  C   UNL     1       2.639   5.385  20.379  0.00  0.00    +0.000 A 
ATOM      5  C   UNL     1       3.259   5.583  19.136  0.00  0.00    +0.000 A 
ATOM      6  C   UNL     1       3.034   6.756  18.396  0.00  0.00    +0.000 A 
ATOM      7  C   UNL     1       3.902   6.992  17.209  0.00  0.00    +0.000 C 
ATOM      8  O   UNL     1       4.097   8.110  16.747  0.00  0.00    +0.000 OA
ATOM      9  C   UNL     1       4.628   5.861  16.604  0.00  0.00    +0.000 A 
ATOM     10  C   UNL     1       5.239   6.017  15.352  0.00  0.00    +0.000 A 
ATOM     11  C   UNL     1       5.963   4.963  14.793  0.00  0.00    +0.000 A 
ATOM     12  C   UNL     1       6.082   3.757  15.482  0.00  0.00    +0.000 A 
ATOM     13  C   UNL     1       5.478   3.604  16.731  0.00  0.00    +0.000 A 
ATOM     14  C   UNL     1       4.751   4.661  17.292  0.00  0.00    +0.000 A 
ATOM     15  C   UNL     1       4.141   4.516  18.625  0.00  0.00    +0.000 C 
ATOM     16  O   UNL     1       4.347   3.502  19.285  0.00  0.00    +0.000 OA
ENDROOT
BRANCH   1  17
ATOM     17  N   UNL     1       1.625   8.829  18.170  0.00  0.00    +0.000 N 
ATOM     18  H   UNL     1       0.857   8.637  17.517  0.00  0.00    +0.000 HD
BRANCH  17  24
ATOM     19  C   UNL     1       1.705  14.953  18.713  0.00  0.00    +0.000 C 
ATOM     20  N   UNL     1       1.172  13.607  18.842  0.00  0.00    +0.000 N 
ATOM     21  C   UNL     1       2.006  12.540  18.550  0.00  0.00    +0.000 C 
ATOM     22  O   UNL     1       3.185  12.672  18.229  0.00  0.00    +0.000 OA
ATOM     23  C   UNL     1       1.370  11.213  18.627  0.00  0.00    +0.000 C 
ATOM     24  C   UNL     1       2.047  10.139  18.181  0.00  0.00    +0.000 C 
ATOM     25  C   UNL     1      -0.008  11.058  19.133  0.00  0.00    +0.000 C 
ATOM     26  O   UNL     1      -0.512   9.944  19.285  0.00  0.00    +0.000 OA
ATOM     27  N   UNL     1      -0.685  12.236  19.367  0.00  0.00    +0.000 N 
ATOM     28  C   UNL     1      -2.083  12.149  19.761  0.00  0.00    +0.000 C 
ATOM     29  C   UNL     1      -0.167  13.511  19.203  0.00  0.00    +0.000 C 
ATOM     30  O   UNL     1      -0.866  14.514  19.361  0.00  0.00    +0.000 OA
ENDBRANCH  17  24
ENDBRANCH   1  17
TORSDOF 2
ENDMDL
