MODEL 1
REMARK VINA RESULT:      -8.0      0.000      0.000
REMARK  Name = 
REMARK  3 active torsions:
REMARK  status: ('A' for Active; 'I' for Inactive)
REMARK    1  A    between atoms: C_1  and  O_2
REMARK    2  A    between atoms: O_2  and  C_3
REMARK    3  A    between atoms: C_8  and  C_9
REMARK                            x       y       z     vdW  Elec       q    Type
REMARK                         _______ _______ _______ _____ _____    ______ ____
ROOT
ATOM      1  C   UNL     1       0.100  10.553  20.434  0.00  0.00    +0.000 A 
ATOM      2  C   UNL     1       0.352   9.831  21.601  0.00  0.00    +0.000 A 
ATOM      3  C   UNL     1       1.120   8.662  21.575  0.00  0.00    +0.000 A 
ATOM      4  C   UNL     1       1.617   8.244  20.339  0.00  0.00    +0.000 A 
ATOM      5  N   UNL     1       2.346   7.127  20.016  0.00  0.00    +0.000 N 
ATOM      6  C   UNL     1       2.595   7.062  18.663  0.00  0.00    +0.000 A 
ATOM      7  C   UNL     1       2.029   8.207  18.119  0.00  0.00    +0.000 A 
ATOM      8  C   UNL     1       1.386   8.937  19.157  0.00  0.00    +0.000 A 
ATOM      9  C   UNL     1       0.605  10.108  19.204  0.00  0.00    +0.000 A 
ATOM     10  H   UNL     1       2.562   6.386  20.673  0.00  0.00    +0.000 HD
ENDROOT
BRANCH   6  11
ATOM     11  C   UNL     1       3.284   5.939  18.021  0.00  0.00    +0.000 A 
ATOM     12  C   UNL     1       4.388   6.191  17.184  0.00  0.00    +0.000 A 
ATOM     13  C   UNL     1       5.046   5.157  16.492  0.00  0.00    +0.000 A 
ATOM     14  C   UNL     1       4.606   3.836  16.595  0.00  0.00    +0.000 A 
ATOM     15  C   UNL     1       3.525   3.576  17.417  0.00  0.00    +0.000 A 
ATOM     16  C   UNL     1       2.894   4.606  18.133  0.00  0.00    +0.000 A 
ATOM     17  C   UNL     1       1.831   3.959  18.933  0.00  0.00    +0.000 C 
ATOM     18  O   UNL     1       1.122   4.467  19.780  0.00  0.00    +0.000 OA
ATOM     19  N   UNL     1       1.816   2.627  18.595  0.00  0.00    +0.000 N 
ATOM     20  C   UNL     1       2.857   2.267  17.672  0.00  0.00    +0.000 C 
ATOM     21  H   UNL     1       1.180   1.982  19.046  0.00  0.00    +0.000 HD
ENDBRANCH   6  11
BRANCH   1  23
ATOM     22  C   UNL     1      -1.021  12.109  19.053  0.00  0.00    +0.000 C 
ATOM     23  O   UNL     1      -0.672  11.684  20.365  0.00  0.00    +0.000 OA
ENDBRANCH   1  23
TORSDOF 2
ENDMDL
MODEL 2
REMARK VINA RESULT:      -7.6      1.051      1.700
REMARK  Name = 
REMARK  3 active torsions:
REMARK  status: ('A' for Active; 'I' for Inactive)
REMARK    1  A    between atoms: C_1  and  O_2
REMARK    2  A    between atoms: O_2  and  C_3
REMARK    3  A    between atoms: C_8  and  C_9
REMARK                            x       y       z     vdW  Elec       q    Type
REMARK                         _______ _______ _______ _____ _____    ______ ____
ROOT
ATOM      1  C   UNL     1       0.356  10.173  21.850  0.00  0.00    +0.000 A 
ATOM      2  C   UNL     1       0.337  10.847  20.628  0.00  0.00    +0.000 A 
ATOM      3  C   UNL     1       0.827  10.245  19.464  0.00  0.00    +0.000 A 
ATOM      4  C   UNL     1       1.338   8.951  19.573  0.00  0.00    +0.000 A 
ATOM      5  N   UNL     1       1.919   8.150  18.621  0.00  0.00    +0.000 N 
ATOM      6  C   UNL     1       2.338   6.953  19.157  0.00  0.00    +0.000 A 
ATOM      7  C   UNL     1       1.971   6.988  20.495  0.00  0.00    +0.000 A 
ATOM      8  C   UNL     1       1.373   8.249  20.772  0.00  0.00    +0.000 A 
ATOM      9  C   UNL     1       0.882   8.876  21.934  0.00  0.00    +0.000 A 
ATOM     10  H   UNL     1       2.123   8.457  17.677  0.00  0.00    +0.000 HD
ENDROOT
BRANCH   6  11
ATOM     11  C   UNL     1       3.063   5.935  18.391  0.00  0.00    +0.000 A 
ATOM     12  C   UNL     1       4.185   6.311  17.628  0.00  0.00    +0.000 A 
ATOM     13  C   UNL     1       4.878   5.388  16.824  0.00  0.00    +0.000 A 
ATOM     14  C   UNL     1       4.457   4.060  16.736  0.00  0.00    +0.000 A 
ATOM     15  C   UNL     1       3.359   3.678  17.483  0.00  0.00    +0.000 A 
ATOM     16  C   UNL     1       2.692   4.594  18.312  0.00  0.00    +0.000 A 
ATOM     17  C   UNL     1       1.618   3.833  18.986  0.00  0.00    +0.000 C 
ATOM     18  O   UNL     1       0.877   4.214  19.872  0.00  0.00    +0.000 OA
ATOM     19  N   UNL     1       1.634   2.557  18.473  0.00  0.00    +0.000 N 
ATOM     20  C   UNL     1       2.706   2.338  17.541  0.00  0.00    +0.000 C 
ATOM     21  H   UNL     1       0.997   1.850  18.814  0.00  0.00    +0.000 HD
ENDBRANCH   6  11
BRANCH   1  23
ATOM     22  C   UNL     1      -1.258  11.477  22.981  0.00  0.00    +0.000 C 
ATOM     23  O   UNL     1      -0.067  10.702  23.042  0.00  0.00    +0.000 OA
ENDBRANCH   1  23
TORSDOF 2
ENDMDL
MODEL 3
REMARK VINA RESULT:      -7.5      3.208      7.276
REMARK  Name = 
REMARK  3 active torsions:
REMARK  status: ('A' for Active; 'I' for Inactive)
REMARK    1  A    between atoms: C_1  and  O_2
REMARK    2  A    between atoms: O_2  and  C_3
REMARK    3  A    between atoms: C_8  and  C_9
REMARK                            x       y       z     vdW  Elec       q    Type
REMARK                         _______ _______ _______ _____ _____    ______ ____
ROOT
ATOM      1  C   UNL     1       6.600   4.249  13.863  0.00  0.00    +0.000 A 
ATOM      2  C   UNL     1       7.438   5.079  14.609  0.00  0.00    +0.000 A 
ATOM      3  C   UNL     1       7.198   5.315  15.967  0.00  0.00    +0.000 A 
ATOM      4  C   UNL     1       6.088   4.695  16.543  0.00  0.00    +0.000 A 
ATOM      5  N   UNL     1       5.594   4.785  17.821  0.00  0.00    +0.000 N 
ATOM      6  C   UNL     1       4.441   4.047  17.968  0.00  0.00    +0.000 A 
ATOM      7  C   UNL     1       4.223   3.437  16.740  0.00  0.00    +0.000 A 
ATOM      8  C   UNL     1       5.232   3.863  15.832  0.00  0.00    +0.000 A 
ATOM      9  C   UNL     1       5.487   3.644  14.464  0.00  0.00    +0.000 A 
ATOM     10  H   UNL     1       5.962   5.415  18.523  0.00  0.00    +0.000 HD
ENDROOT
BRANCH   6  11
ATOM     11  C   UNL     1       3.650   4.020  19.202  0.00  0.00    +0.000 A 
ATOM     12  C   UNL     1       3.527   2.814  19.919  0.00  0.00    +0.000 A 
ATOM     13  C   UNL     1       2.728   2.716  21.073  0.00  0.00    +0.000 A 
ATOM     14  C   UNL     1       2.005   3.817  21.537  0.00  0.00    +0.000 A 
ATOM     15  C   UNL     1       2.121   5.007  20.843  0.00  0.00    +0.000 A 
ATOM     16  C   UNL     1       2.947   5.109  19.712  0.00  0.00    +0.000 A 
ATOM     17  C   UNL     1       2.865   6.518  19.269  0.00  0.00    +0.000 C 
ATOM     18  O   UNL     1       3.513   7.064  18.397  0.00  0.00    +0.000 OA
ATOM     19  N   UNL     1       1.949   7.150  20.077  0.00  0.00    +0.000 N 
ATOM     20  C   UNL     1       1.438   6.304  21.119  0.00  0.00    +0.000 C 
ATOM     21  H   UNL     1       1.753   8.136  19.970  0.00  0.00    +0.000 HD
ENDBRANCH   6  11
BRANCH   1  23
ATOM     22  C   UNL     1       5.797   3.088  11.968  0.00  0.00    +0.000 C 
ATOM     23  O   UNL     1       6.740   3.997  12.523  0.00  0.00    +0.000 OA
ENDBRANCH   1  23
TORSDOF 2
ENDMDL
MODEL 4
REMARK VINA RESULT:      -7.2      3.570      7.135
REMARK  Name = 
REMARK  3 active torsions:
REMARK  status: ('A' for Active; 'I' for Inactive)
REMARK    1  A    between atoms: C_1  and  O_2
REMARK    2  A    between atoms: O_2  and  C_3
REMARK    3  A    between atoms: C_8  and  C_9
REMARK                            x       y       z     vdW  Elec       q    Type
REMARK                         _______ _______ _______ _____ _____    ______ ____
ROOT
ATOM      1  C   UNL     1       6.524   4.102  13.525  0.00  0.00    +0.000 A 
ATOM      2  C   UNL     1       7.438   4.935  14.174  0.00  0.00    +0.000 A 
ATOM      3  C   UNL     1       7.172   5.443  15.449  0.00  0.00    +0.000 A 
ATOM      4  C   UNL     1       5.959   5.091  16.044  0.00  0.00    +0.000 A 
ATOM      5  N   UNL     1       5.424   5.478  17.248  0.00  0.00    +0.000 N 
ATOM      6  C   UNL     1       4.171   4.938  17.439  0.00  0.00    +0.000 A 
ATOM      7  C   UNL     1       3.925   4.150  16.323  0.00  0.00    +0.000 A 
ATOM      8  C   UNL     1       5.026   4.265  15.429  0.00  0.00    +0.000 A 
ATOM      9  C   UNL     1       5.310   3.770  14.142  0.00  0.00    +0.000 A 
ATOM     10  H   UNL     1       5.847   6.170  17.855  0.00  0.00    +0.000 HD
ENDROOT
BRANCH   6  11
ATOM     11  C   UNL     1       3.329   5.242  18.599  0.00  0.00    +0.000 A 
ATOM     12  C   UNL     1       2.816   6.543  18.761  0.00  0.00    +0.000 A 
ATOM     13  C   UNL     1       2.057   6.906  19.889  0.00  0.00    +0.000 A 
ATOM     14  C   UNL     1       1.805   5.984  20.907  0.00  0.00    +0.000 A 
ATOM     15  C   UNL     1       2.301   4.703  20.757  0.00  0.00    +0.000 A 
ATOM     16  C   UNL     1       3.027   4.335  19.614  0.00  0.00    +0.000 A 
ATOM     17  C   UNL     1       3.346   2.900  19.772  0.00  0.00    +0.000 C 
ATOM     18  O   UNL     1       3.863   2.156  18.960  0.00  0.00    +0.000 OA
ATOM     19  N   UNL     1       2.889   2.512  21.010  0.00  0.00    +0.000 N 
ATOM     20  C   UNL     1       2.189   3.556  21.706  0.00  0.00    +0.000 C 
ATOM     21  H   UNL     1       2.976   1.553  21.321  0.00  0.00    +0.000 HD
ENDBRANCH   6  11
BRANCH   1  23
ATOM     22  C   UNL     1       5.621   2.784  11.784  0.00  0.00    +0.000 C 
ATOM     23  O   UNL     1       6.688   3.594  12.263  0.00  0.00    +0.000 OA
ENDBRANCH   1  23
TORSDOF 2
ENDMDL
MODEL 5
REMARK VINA RESULT:      -7.2      2.007      3.033
REMARK  Name = 
REMARK  3 active torsions:
REMARK  status: ('A' for Active; 'I' for Inactive)
REMARK    1  A    between atoms: C_1  and  O_2
REMARK    2  A    between atoms: O_2  and  C_3
REMARK    3  A    between atoms: C_8  and  C_9
REMARK                            x       y       z     vdW  Elec       q    Type
REMARK                         _______ _______ _______ _____ _____    ______ ____
ROOT
ATOM      1  C   UNL     1       0.815  10.088  21.101  0.00  0.00    +0.000 A 
ATOM      2  C   UNL     1       0.889  10.656  19.828  0.00  0.00    +0.000 A 
ATOM      3  C   UNL     1       1.312   9.905  18.726  0.00  0.00    +0.000 A 
ATOM      4  C   UNL     1       1.661   8.572  18.950  0.00  0.00    +0.000 A 
ATOM      5  N   UNL     1       2.148   7.632  18.076  0.00  0.00    +0.000 N 
ATOM      6  C   UNL     1       2.414   6.441  18.715  0.00  0.00    +0.000 A 
ATOM      7  C   UNL     1       2.042   6.631  20.039  0.00  0.00    +0.000 A 
ATOM      8  C   UNL     1       1.600   7.973  20.202  0.00  0.00    +0.000 A 
ATOM      9  C   UNL     1       1.178   8.748  21.299  0.00  0.00    +0.000 A 
ATOM     10  H   UNL     1       2.397   7.832  17.115  0.00  0.00    +0.000 HD
ENDROOT
BRANCH   6  11
ATOM     11  C   UNL     1       3.016   5.283  18.048  0.00  0.00    +0.000 A 
ATOM     12  C   UNL     1       2.321   4.059  18.024  0.00  0.00    +0.000 A 
ATOM     13  C   UNL     1       2.880   2.899  17.455  0.00  0.00    +0.000 A 
ATOM     14  C   UNL     1       4.165   2.919  16.912  0.00  0.00    +0.000 A 
ATOM     15  C   UNL     1       4.856   4.116  16.926  0.00  0.00    +0.000 A 
ATOM     16  C   UNL     1       4.281   5.279  17.463  0.00  0.00    +0.000 A 
ATOM     17  C   UNL     1       5.271   6.359  17.263  0.00  0.00    +0.000 C 
ATOM     18  O   UNL     1       5.132   7.548  17.476  0.00  0.00    +0.000 OA
ATOM     19  N   UNL     1       6.396   5.787  16.716  0.00  0.00    +0.000 N 
ATOM     20  C   UNL     1       6.239   4.387  16.435  0.00  0.00    +0.000 C 
ATOM     21  H   UNL     1       7.199   6.351  16.468  0.00  0.00    +0.000 HD
ENDBRANCH   6  11
BRANCH   1  23
ATOM     22  C   UNL     1      -0.433  10.062  23.107  0.00  0.00    +0.000 C 
ATOM     23  O   UNL     1       0.449  10.761  22.238  0.00  0.00    +0.000 OA
ENDBRANCH   1  23
TORSDOF 2
ENDMDL
MODEL 6
REMARK VINA RESULT:      -7.2      1.861      2.510
REMARK  Name = 
REMARK  3 active torsions:
REMARK  status: ('A' for Active; 'I' for Inactive)
REMARK    1  A    between atoms: C_1  and  O_2
REMARK    2  A    between atoms: O_2  and  C_3
REMARK    3  A    between atoms: C_8  and  C_9
REMARK                            x       y       z     vdW  Elec       q    Type
REMARK                         _______ _______ _______ _____ _____    ______ ____
ROOT
ATOM      1  C   UNL     1       0.649  10.674  20.108  0.00  0.00    +0.000 A 
ATOM      2  C   UNL     1       0.750   9.966  21.306  0.00  0.00    +0.000 A 
ATOM      3  C   UNL     1       1.301   8.680  21.341  0.00  0.00    +0.000 A 
ATOM      4  C   UNL     1       1.739   8.134  20.133  0.00  0.00    +0.000 A 
ATOM      5  N   UNL     1       2.267   6.895  19.868  0.00  0.00    +0.000 N 
ATOM      6  C   UNL     1       2.524   6.734  18.524  0.00  0.00    +0.000 A 
ATOM      7  C   UNL     1       2.177   7.937  17.926  0.00  0.00    +0.000 A 
ATOM      8  C   UNL     1       1.654   8.809  18.921  0.00  0.00    +0.000 A 
ATOM      9  C   UNL     1       1.089  10.099  18.907  0.00  0.00    +0.000 A 
ATOM     10  H   UNL     1       2.338   6.154  20.556  0.00  0.00    +0.000 HD
ENDROOT
BRANCH   6  11
ATOM     11  C   UNL     1       3.017   5.483  17.940  0.00  0.00    +0.000 A 
ATOM     12  C   UNL     1       2.181   4.350  17.924  0.00  0.00    +0.000 A 
ATOM     13  C   UNL     1       2.625   3.107  17.435  0.00  0.00    +0.000 A 
ATOM     14  C   UNL     1       3.931   2.950  16.967  0.00  0.00    +0.000 A 
ATOM     15  C   UNL     1       4.760   4.056  16.975  0.00  0.00    +0.000 A 
ATOM     16  C   UNL     1       4.301   5.302  17.430  0.00  0.00    +0.000 A 
ATOM     17  C   UNL     1       5.424   6.247  17.246  0.00  0.00    +0.000 C 
ATOM     18  O   UNL     1       5.418   7.452  17.403  0.00  0.00    +0.000 OA
ATOM     19  N   UNL     1       6.499   5.521  16.789  0.00  0.00    +0.000 N 
ATOM     20  C   UNL     1       6.189   4.138  16.555  0.00  0.00    +0.000 C 
ATOM     21  H   UNL     1       7.376   5.974  16.566  0.00  0.00    +0.000 HD
ENDBRANCH   6  11
BRANCH   1  23
ATOM     22  C   UNL     1      -0.828  12.070  18.903  0.00  0.00    +0.000 C 
ATOM     23  O   UNL     1       0.088  11.918  19.979  0.00  0.00    +0.000 OA
ENDBRANCH   1  23
TORSDOF 2
ENDMDL
MODEL 7
REMARK VINA RESULT:      -7.1      1.924      7.159
REMARK  Name = 
REMARK  3 active torsions:
REMARK  status: ('A' for Active; 'I' for Inactive)
REMARK    1  A    between atoms: C_1  and  O_2
REMARK    2  A    between atoms: O_2  and  C_3
REMARK    3  A    between atoms: C_8  and  C_9
REMARK                            x       y       z     vdW  Elec       q    Type
REMARK                         _______ _______ _______ _____ _____    ______ ____
ROOT
ATOM      1  C   UNL     1       3.776   3.954  18.176  0.00  0.00    +0.000 A 
ATOM      2  C   UNL     1       4.269   4.958  17.340  0.00  0.00    +0.000 A 
ATOM      3  C   UNL     1       3.945   6.301  17.555  0.00  0.00    +0.000 A 
ATOM      4  C   UNL     1       3.106   6.597  18.632  0.00  0.00    +0.000 A 
ATOM      5  N   UNL     1       2.593   7.803  19.042  0.00  0.00    +0.000 N 
ATOM      6  C   UNL     1       1.760   7.653  20.128  0.00  0.00    +0.000 A 
ATOM      7  C   UNL     1       1.781   6.299  20.436  0.00  0.00    +0.000 A 
ATOM      8  C   UNL     1       2.596   5.626  19.484  0.00  0.00    +0.000 A 
ATOM      9  C   UNL     1       2.929   4.278  19.246  0.00  0.00    +0.000 A 
ATOM     10  H   UNL     1       2.714   8.669  18.530  0.00  0.00    +0.000 HD
ENDROOT
BRANCH   6  11
ATOM     11  C   UNL     1       1.010   8.758  20.730  0.00  0.00    +0.000 A 
ATOM     12  C   UNL     1       0.878   8.824  22.130  0.00  0.00    +0.000 A 
ATOM     13  C   UNL     1       0.114   9.826  22.757  0.00  0.00    +0.000 A 
ATOM     14  C   UNL     1      -0.564  10.784  22.002  0.00  0.00    +0.000 A 
ATOM     15  C   UNL     1      -0.439  10.733  20.626  0.00  0.00    +0.000 A 
ATOM     16  C   UNL     1       0.353   9.752  20.007  0.00  0.00    +0.000 A 
ATOM     17  C   UNL     1       0.294  10.032  18.556  0.00  0.00    +0.000 C 
ATOM     18  O   UNL     1       0.928   9.497  17.667  0.00  0.00    +0.000 OA
ATOM     19  N   UNL     1      -0.578  11.079  18.375  0.00  0.00    +0.000 N 
ATOM     20  C   UNL     1      -1.078  11.618  19.610  0.00  0.00    +0.000 C 
ATOM     21  H   UNL     1      -0.751  11.460  17.454  0.00  0.00    +0.000 HD
ENDBRANCH   6  11
BRANCH   1  23
ATOM     22  C   UNL     1       2.941   1.753  18.379  0.00  0.00    +0.000 C 
ATOM     23  O   UNL     1       4.012   2.614  18.014  0.00  0.00    +0.000 OA
ENDBRANCH   1  23
TORSDOF 2
ENDMDL
MODEL 8
REMARK VINA RESULT:      -7.1      2.108      2.907
REMARK  Name = 
REMARK  3 active torsions:
REMARK  status: ('A' for Active; 'I' for Inactive)
REMARK    1  A    between atoms: C_1  and  O_2
REMARK    2  A    between atoms: O_2  and  C_3
REMARK    3  A    between atoms: C_8  and  C_9
REMARK                            x       y       z     vdW  Elec       q    Type
REMARK                         _______ _______ _______ _____ _____    ______ ____
ROOT
ATOM      1  C   UNL     1       1.251  11.084  19.022  0.00  0.00    +0.000 A 
ATOM      2  C   UNL     1       0.915  11.040  20.376  0.00  0.00    +0.000 A 
ATOM      3  C   UNL     1       0.998   9.847  21.102  0.00  0.00    +0.000 A 
ATOM      4  C   UNL     1       1.423   8.705  20.420  0.00  0.00    +0.000 A 
ATOM      5  N   UNL     1       1.549   7.411  20.863  0.00  0.00    +0.000 N 
ATOM      6  C   UNL     1       1.955   6.570  19.850  0.00  0.00    +0.000 A 
ATOM      7  C   UNL     1       2.127   7.377  18.734  0.00  0.00    +0.000 A 
ATOM      8  C   UNL     1       1.765   8.711  19.074  0.00  0.00    +0.000 A 
ATOM      9  C   UNL     1       1.667   9.920  18.359  0.00  0.00    +0.000 A 
ATOM     10  H   UNL     1       1.258   7.100  21.782  0.00  0.00    +0.000 HD
ENDROOT
BRANCH   6  11
ATOM     11  C   UNL     1       2.096   5.121  20.012  0.00  0.00    +0.000 A 
ATOM     12  C   UNL     1       1.017   4.372  20.519  0.00  0.00    +0.000 A 
ATOM     13  C   UNL     1       1.120   2.988  20.756  0.00  0.00    +0.000 A 
ATOM     14  C   UNL     1       2.316   2.310  20.516  0.00  0.00    +0.000 A 
ATOM     15  C   UNL     1       3.382   3.034  20.016  0.00  0.00    +0.000 A 
ATOM     16  C   UNL     1       3.264   4.407  19.747  0.00  0.00    +0.000 A 
ATOM     17  C   UNL     1       4.564   4.830  19.183  0.00  0.00    +0.000 C 
ATOM     18  O   UNL     1       4.854   5.910  18.707  0.00  0.00    +0.000 OA
ATOM     19  N   UNL     1       5.403   3.741  19.226  0.00  0.00    +0.000 N 
ATOM     20  C   UNL     1       4.758   2.550  19.704  0.00  0.00    +0.000 C 
ATOM     21  H   UNL     1       6.345   3.795  18.860  0.00  0.00    +0.000 HD
ENDBRANCH   6  11
BRANCH   1  23
ATOM     22  C   UNL     1       0.321  13.235  18.722  0.00  0.00    +0.000 C 
ATOM     23  O   UNL     1       1.161  12.198  18.230  0.00  0.00    +0.000 OA
ENDBRANCH   1  23
TORSDOF 2
ENDMDL
MODEL 9
REMARK VINA RESULT:      -6.9      2.355      7.035
REMARK  Name = 
REMARK  3 active torsions:
REMARK  status: ('A' for Active; 'I' for Inactive)
REMARK    1  A    between atoms: C_1  and  O_2
REMARK    2  A    between atoms: O_2  and  C_3
REMARK    3  A    between atoms: C_8  and  C_9
REMARK                            x       y       z     vdW  Elec       q    Type
REMARK                         _______ _______ _______ _____ _____    ______ ____
ROOT
ATOM      1  C   UNL     1       5.450   4.156  16.881  0.00  0.00    +0.000 A 
ATOM      2  C   UNL     1       6.222   4.362  18.026  0.00  0.00    +0.000 A 
ATOM      3  C   UNL     1       5.746   5.136  19.089  0.00  0.00    +0.000 A 
ATOM      4  C   UNL     1       4.475   5.698  18.959  0.00  0.00    +0.000 A 
ATOM      5  N   UNL     1       3.788   6.528  19.810  0.00  0.00    +0.000 N 
ATOM      6  C   UNL     1       2.573   6.900  19.279  0.00  0.00    +0.000 A 
ATOM      7  C   UNL     1       2.477   6.245  18.058  0.00  0.00    +0.000 A 
ATOM      8  C   UNL     1       3.678   5.516  17.835  0.00  0.00    +0.000 A 
ATOM      9  C   UNL     1       4.179   4.739  16.773  0.00  0.00    +0.000 A 
ATOM     10  H   UNL     1       4.183   6.915  20.659  0.00  0.00    +0.000 HD
ENDROOT
BRANCH   6  11
ATOM     11  C   UNL     1       1.661   7.844  19.931  0.00  0.00    +0.000 A 
ATOM     12  C   UNL     1       1.132   7.532  21.198  0.00  0.00    +0.000 A 
ATOM     13  C   UNL     1       0.202   8.371  21.840  0.00  0.00    +0.000 A 
ATOM     14  C   UNL     1      -0.248   9.541  21.226  0.00  0.00    +0.000 A 
ATOM     15  C   UNL     1       0.268   9.859  19.984  0.00  0.00    +0.000 A 
ATOM     16  C   UNL     1       1.221   9.038  19.362  0.00  0.00    +0.000 A 
ATOM     17  C   UNL     1       1.577   9.708  18.092  0.00  0.00    +0.000 C 
ATOM     18  O   UNL     1       2.449   9.397  17.304  0.00  0.00    +0.000 OA
ATOM     19  N   UNL     1       0.774  10.818  17.975  0.00  0.00    +0.000 N 
ATOM     20  C   UNL     1      -0.069  11.028  19.119  0.00  0.00    +0.000 C 
ATOM     21  H   UNL     1       0.866  11.446  17.188  0.00  0.00    +0.000 HD
ENDBRANCH   6  11
BRANCH   1  23
ATOM     22  C   UNL     1       6.531   4.197  14.781  0.00  0.00    +0.000 C 
ATOM     23  O   UNL     1       5.854   3.446  15.782  0.00  0.00    +0.000 OA
ENDBRANCH   1  23
TORSDOF 2
ENDMDL
