MODEL 1
REMARK VINA RESULT:      -8.6      0.000      0.000
REMARK  Name = 
REMARK  6 active torsions:
REMARK  status: ('A' for Active; 'I' for Inactive)
REMARK    1  A    between atoms: C_1  and  C_2
REMARK    2  A    between atoms: N_11  and  C_12
REMARK    3  A    between atoms: C_12  and  C_13
REMARK    4  A    between atoms: C_16  and  C_17
REMARK    5  A    between atoms: N_19  and  C_20
REMARK    6  A    between atoms: C_26  and  C_27
REMARK                            x       y       z     vdW  Elec       q    Type
REMARK                         _______ _______ _______ _____ _____    ______ ____
ROOT
ATOM      1  C   UNL     1       1.998   7.673  18.756  0.00  0.00    +0.000 A 
ATOM      2  C   UNL     1       1.682   9.019  18.531  0.00  0.00    +0.000 A 
ATOM      3  C   UNL     1       1.227   9.822  19.576  0.00  0.00    +0.000 A 
ATOM      4  C   UNL     1       1.092   9.309  20.876  0.00  0.00    +0.000 A 
ATOM      5  C   UNL     1       1.438   7.980  21.124  0.00  0.00    +0.000 A 
ATOM      6  C   UNL     1       1.896   7.171  20.068  0.00  0.00    +0.000 A 
ENDROOT
BRANCH   4   7
ATOM      7  C   UNL     1       0.458  10.198  21.885  0.00  0.00    +0.000 C 
ATOM      8  O   UNL     1       0.644   9.897  23.061  0.00  0.00    +0.000 OA
ATOM      9  N   UNL     1      -0.333  11.241  21.422  0.00  0.00    +0.000 N 
ATOM     10  H   UNL     1      -0.560  11.252  20.438  0.00  0.00    +0.000 HD
BRANCH   9  11
ATOM     11  C   UNL     1      -1.022  12.167  22.258  0.00  0.00    +0.000 A 
ATOM     12  C   UNL     1      -2.178  11.796  22.962  0.00  0.00    +0.000 A 
ATOM     13  C   UNL     1      -2.875  12.712  23.748  0.00  0.00    +0.000 A 
ATOM     14 CL   UNL     1      -4.314  12.227  24.558  0.00  0.00    +0.000 Cl
ATOM     15  C   UNL     1      -2.418  14.014  23.878  0.00  0.00    +0.000 A 
ATOM     16  C   UNL     1      -1.254  14.398  23.213  0.00  0.00    +0.000 A 
ATOM     17  C   UNL     1      -0.551  13.492  22.391  0.00  0.00    +0.000 A 
ATOM     18  C   UNL     1       0.678  14.005  21.689  0.00  0.00    +0.000 C 
ENDBRANCH   9  11
ENDBRANCH   4   7
BRANCH   1  19
ATOM     19  C   UNL     1       2.373   6.773  17.597  0.00  0.00    +0.000 C 
BRANCH  19  30
ATOM     20  C   UNL     1       7.810   5.889  19.011  0.00  0.00    +0.000 C 
ATOM     21  C   UNL     1       6.398   5.447  18.906  0.00  0.00    +0.000 A 
ATOM     22  C   UNL     1       5.267   6.218  18.525  0.00  0.00    +0.000 A 
ATOM     23  C   UNL     1       4.227   5.322  18.490  0.00  0.00    +0.000 A 
ATOM     24  N   UNL     1       4.754   4.133  18.893  0.00  0.00    +0.000 N 
ATOM     25  N   UNL     1       6.068   4.169  19.141  0.00  0.00    +0.000 NA
ATOM     26  C   UNL     1       4.027   2.892  18.914  0.00  0.00    +0.000 C 
ATOM     27  C   UNL     1       2.538   3.037  18.643  0.00  0.00    +0.000 C 
ATOM     28  C   UNL     1       2.094   4.314  17.968  0.00  0.00    +0.000 C 
ATOM     29  O   UNL     1       1.017   4.407  17.393  0.00  0.00    +0.000 OA
ATOM     30  N   UNL     1       2.918   5.490  18.072  0.00  0.00    +0.000 N 
ENDBRANCH  19  30
ENDBRANCH   1  19
TORSDOF 4
ENDMDL
MODEL 2
REMARK VINA RESULT:      -8.4      4.095      9.507
REMARK  Name = 
REMARK  6 active torsions:
REMARK  status: ('A' for Active; 'I' for Inactive)
REMARK    1  A    between atoms: C_1  and  C_2
REMARK    2  A    between atoms: N_11  and  C_12
REMARK    3  A    between atoms: C_12  and  C_13
REMARK    4  A    between atoms: C_16  and  C_17
REMARK    5  A    between atoms: N_19  and  C_20
REMARK    6  A    between atoms: C_26  and  C_27
REMARK                            x       y       z     vdW  Elec       q    Type
REMARK                         _______ _______ _______ _____ _____    ______ ____
ROOT
ATOM      1  C   UNL     1       0.117  11.440  19.408  0.00  0.00    +0.000 A 
ATOM      2  C   UNL     1      -0.097  10.493  20.417  0.00  0.00    +0.000 A 
ATOM      3  C   UNL     1       0.561   9.264  20.384  0.00  0.00    +0.000 A 
ATOM      4  C   UNL     1       1.462   8.954  19.354  0.00  0.00    +0.000 A 
ATOM      5  C   UNL     1       1.715   9.902  18.361  0.00  0.00    +0.000 A 
ATOM      6  C   UNL     1       1.048  11.141  18.395  0.00  0.00    +0.000 A 
ENDROOT
BRANCH   4   7
ATOM      7  C   UNL     1       1.996   7.568  19.323  0.00  0.00    +0.000 C 
ATOM      8  O   UNL     1       2.163   7.029  20.414  0.00  0.00    +0.000 OA
ATOM      9  N   UNL     1       2.319   7.027  18.085  0.00  0.00    +0.000 N 
ATOM     10  H   UNL     1       2.319   7.649  17.291  0.00  0.00    +0.000 HD
BRANCH   9  11
ATOM     11  C   UNL     1       2.857   5.722  17.888  0.00  0.00    +0.000 A 
ATOM     12  C   UNL     1       2.137   4.572  18.247  0.00  0.00    +0.000 A 
ATOM     13  C   UNL     1       2.680   3.297  18.093  0.00  0.00    +0.000 A 
ATOM     14 CL   UNL     1       1.780   1.916  18.588  0.00  0.00    +0.000 Cl
ATOM     15  C   UNL     1       3.943   3.135  17.544  0.00  0.00    +0.000 A 
ATOM     16  C   UNL     1       4.665   4.261  17.150  0.00  0.00    +0.000 A 
ATOM     17  C   UNL     1       4.143   5.561  17.325  0.00  0.00    +0.000 A 
ATOM     18  C   UNL     1       5.008   6.717  16.899  0.00  0.00    +0.000 C 
ENDBRANCH   9  11
ENDBRANCH   4   7
BRANCH   1  19
ATOM     19  C   UNL     1      -0.691  12.721  19.380  0.00  0.00    +0.000 C 
BRANCH  19  30
ATOM     20  C   UNL     1      -3.297  10.395  14.891  0.00  0.00    +0.000 C 
ATOM     21  C   UNL     1      -3.297  10.902  16.286  0.00  0.00    +0.000 A 
ATOM     22  C   UNL     1      -2.186  11.335  17.059  0.00  0.00    +0.000 A 
ATOM     23  C   UNL     1      -2.732  11.796  18.231  0.00  0.00    +0.000 A 
ATOM     24  N   UNL     1      -4.070  11.567  18.127  0.00  0.00    +0.000 N 
ATOM     25  N   UNL     1      -4.449  11.038  16.958  0.00  0.00    +0.000 NA
ATOM     26  C   UNL     1      -5.040  11.985  19.104  0.00  0.00    +0.000 C 
ATOM     27  C   UNL     1      -4.437  12.533  20.387  0.00  0.00    +0.000 C 
ATOM     28  C   UNL     1      -2.996  12.983  20.319  0.00  0.00    +0.000 C 
ATOM     29  O   UNL     1      -2.511  13.742  21.148  0.00  0.00    +0.000 OA
ATOM     30  N   UNL     1      -2.134  12.440  19.301  0.00  0.00    +0.000 N 
ENDBRANCH  19  30
ENDBRANCH   1  19
TORSDOF 4
ENDMDL
MODEL 3
REMARK VINA RESULT:      -8.4      2.656      3.350
REMARK  Name = 
REMARK  6 active torsions:
REMARK  status: ('A' for Active; 'I' for Inactive)
REMARK    1  A    between atoms: C_1  and  C_2
REMARK    2  A    between atoms: N_11  and  C_12
REMARK    3  A    between atoms: C_12  and  C_13
REMARK    4  A    between atoms: C_16  and  C_17
REMARK    5  A    between atoms: N_19  and  C_20
REMARK    6  A    between atoms: C_26  and  C_27
REMARK                            x       y       z     vdW  Elec       q    Type
REMARK                         _______ _______ _______ _____ _____    ______ ____
ROOT
ATOM      1  C   UNL     1       2.808   6.429  18.365  0.00  0.00    +0.000 A 
ATOM      2  C   UNL     1       2.815   7.519  17.486  0.00  0.00    +0.000 A 
ATOM      3  C   UNL     1       2.251   8.737  17.867  0.00  0.00    +0.000 A 
ATOM      4  C   UNL     1       1.682   8.903  19.139  0.00  0.00    +0.000 A 
ATOM      5  C   UNL     1       1.701   7.837  20.039  0.00  0.00    +0.000 A 
ATOM      6  C   UNL     1       2.268   6.609  19.653  0.00  0.00    +0.000 A 
ENDROOT
BRANCH   4   7
ATOM      7  C   UNL     1       0.974  10.185  19.395  0.00  0.00    +0.000 C 
ATOM      8  O   UNL     1       1.500  11.194  18.932  0.00  0.00    +0.000 OA
ATOM      9  N   UNL     1      -0.170  10.145  20.181  0.00  0.00    +0.000 N 
ATOM     10  H   UNL     1      -0.377   9.281  20.660  0.00  0.00    +0.000 HD
BRANCH   9  11
ATOM     11  C   UNL     1      -0.949  11.285  20.533  0.00  0.00    +0.000 A 
ATOM     12  C   UNL     1      -0.726  11.982  21.732  0.00  0.00    +0.000 A 
ATOM     13  C   UNL     1      -1.515  13.072  22.096  0.00  0.00    +0.000 A 
ATOM     14 CL   UNL     1      -1.235  13.870  23.595  0.00  0.00    +0.000 Cl
ATOM     15  C   UNL     1      -2.525  13.516  21.258  0.00  0.00    +0.000 A 
ATOM     16  C   UNL     1      -2.746  12.860  20.048  0.00  0.00    +0.000 A 
ATOM     17  C   UNL     1      -1.976  11.738  19.675  0.00  0.00    +0.000 A 
ATOM     18  C   UNL     1      -2.308  11.076  18.364  0.00  0.00    +0.000 C 
ENDBRANCH   9  11
ENDBRANCH   4   7
BRANCH   1  19
ATOM     19  C   UNL     1       3.309   5.075  17.904  0.00  0.00    +0.000 C 
BRANCH  19  30
ATOM     20  C   UNL     1       6.312   3.926  13.212  0.00  0.00    +0.000 C 
ATOM     21  C   UNL     1       6.214   4.340  14.634  0.00  0.00    +0.000 A 
ATOM     22  C   UNL     1       5.040   4.606  15.388  0.00  0.00    +0.000 A 
ATOM     23  C   UNL     1       5.489   4.848  16.663  0.00  0.00    +0.000 A 
ATOM     24  N   UNL     1       6.847   4.779  16.593  0.00  0.00    +0.000 N 
ATOM     25  N   UNL     1       7.320   4.462  15.382  0.00  0.00    +0.000 NA
ATOM     26  C   UNL     1       7.721   4.880  17.730  0.00  0.00    +0.000 C 
ATOM     27  C   UNL     1       7.023   5.282  19.019  0.00  0.00    +0.000 C 
ATOM     28  C   UNL     1       5.525   5.089  19.067  0.00  0.00    +0.000 C 
ATOM     29  O   UNL     1       4.908   5.038  20.123  0.00  0.00    +0.000 OA
ATOM     30  N   UNL     1       4.780   5.048  17.835  0.00  0.00    +0.000 N 
ENDBRANCH  19  30
ENDBRANCH   1  19
TORSDOF 4
ENDMDL
MODEL 4
REMARK VINA RESULT:      -8.4      2.308      3.116
REMARK  Name = 
REMARK  6 active torsions:
REMARK  status: ('A' for Active; 'I' for Inactive)
REMARK    1  A    between atoms: C_1  and  C_2
REMARK    2  A    between atoms: N_11  and  C_12
REMARK    3  A    between atoms: C_12  and  C_13
REMARK    4  A    between atoms: C_16  and  C_17
REMARK    5  A    between atoms: N_19  and  C_20
REMARK    6  A    between atoms: C_26  and  C_27
REMARK                            x       y       z     vdW  Elec       q    Type
REMARK                         _______ _______ _______ _____ _____    ______ ____
ROOT
ATOM      1  C   UNL     1       2.670   5.681  18.689  0.00  0.00    +0.000 A 
ATOM      2  C   UNL     1       2.038   5.485  19.923  0.00  0.00    +0.000 A 
ATOM      3  C   UNL     1       1.524   6.570  20.633  0.00  0.00    +0.000 A 
ATOM      4  C   UNL     1       1.611   7.875  20.123  0.00  0.00    +0.000 A 
ATOM      5  C   UNL     1       2.204   8.081  18.876  0.00  0.00    +0.000 A 
ATOM      6  C   UNL     1       2.724   6.986  18.163  0.00  0.00    +0.000 A 
ENDROOT
BRANCH   4   7
ATOM      7  C   UNL     1       1.171   8.976  21.018  0.00  0.00    +0.000 C 
ATOM      8  O   UNL     1       1.348   8.799  22.220  0.00  0.00    +0.000 OA
ATOM      9  N   UNL     1       0.544  10.071  20.436  0.00  0.00    +0.000 N 
ATOM     10  H   UNL     1       0.285   9.996  19.463  0.00  0.00    +0.000 HD
BRANCH   9  11
ATOM     11  C   UNL     1       0.049  11.197  21.155  0.00  0.00    +0.000 A 
ATOM     12  C   UNL     1      -1.058  11.088  22.012  0.00  0.00    +0.000 A 
ATOM     13  C   UNL     1      -1.568  12.197  22.684  0.00  0.00    +0.000 A 
ATOM     14 CL   UNL     1      -2.955  12.027  23.690  0.00  0.00    +0.000 Cl
ATOM     15  C   UNL     1      -0.967  13.438  22.545  0.00  0.00    +0.000 A 
ATOM     16  C   UNL     1       0.154  13.565  21.725  0.00  0.00    +0.000 A 
ATOM     17  C   UNL     1       0.667  12.459  21.014  0.00  0.00    +0.000 A 
ATOM     18  C   UNL     1       1.861  12.699  20.129  0.00  0.00    +0.000 C 
ENDBRANCH   9  11
ENDBRANCH   4   7
BRANCH   1  19
ATOM     19  C   UNL     1       3.336   4.519  17.980  0.00  0.00    +0.000 C 
BRANCH  19  30
ATOM     20  C   UNL     1       6.284   3.898  13.156  0.00  0.00    +0.000 C 
ATOM     21  C   UNL     1       6.180   4.284  14.585  0.00  0.00    +0.000 A 
ATOM     22  C   UNL     1       5.011   4.350  15.390  0.00  0.00    +0.000 A 
ATOM     23  C   UNL     1       5.468   4.658  16.648  0.00  0.00    +0.000 A 
ATOM     24  N   UNL     1       6.815   4.815  16.521  0.00  0.00    +0.000 N 
ATOM     25  N   UNL     1       7.282   4.584  15.288  0.00  0.00    +0.000 NA
ATOM     26  C   UNL     1       7.708   5.055  17.622  0.00  0.00    +0.000 C 
ATOM     27  C   UNL     1       7.009   5.331  18.943  0.00  0.00    +0.000 C 
ATOM     28  C   UNL     1       5.566   4.893  19.051  0.00  0.00    +0.000 C 
ATOM     29  O   UNL     1       5.011   4.738  20.130  0.00  0.00    +0.000 OA
ATOM     30  N   UNL     1       4.787   4.734  17.850  0.00  0.00    +0.000 N 
ENDBRANCH  19  30
ENDBRANCH   1  19
TORSDOF 4
ENDMDL
MODEL 5
REMARK VINA RESULT:      -8.3      4.047      9.736
REMARK  Name = 
REMARK  6 active torsions:
REMARK  status: ('A' for Active; 'I' for Inactive)
REMARK    1  A    between atoms: C_1  and  C_2
REMARK    2  A    between atoms: N_11  and  C_12
REMARK    3  A    between atoms: C_12  and  C_13
REMARK    4  A    between atoms: C_16  and  C_17
REMARK    5  A    between atoms: N_19  and  C_20
REMARK    6  A    between atoms: C_26  and  C_27
REMARK                            x       y       z     vdW  Elec       q    Type
REMARK                         _______ _______ _______ _____ _____    ______ ____
ROOT
ATOM      1  C   UNL     1       1.031   9.073  20.470  0.00  0.00    +0.000 A 
ATOM      2  C   UNL     1       1.574   9.269  19.195  0.00  0.00    +0.000 A 
ATOM      3  C   UNL     1       2.272   8.242  18.559  0.00  0.00    +0.000 A 
ATOM      4  C   UNL     1       2.431   6.989  19.171  0.00  0.00    +0.000 A 
ATOM      5  C   UNL     1       1.863   6.766  20.426  0.00  0.00    +0.000 A 
ATOM      6  C   UNL     1       1.161   7.804  21.067  0.00  0.00    +0.000 A 
ENDROOT
BRANCH   4   7
ATOM      7  C   UNL     1       3.315   6.013  18.482  0.00  0.00    +0.000 C 
ATOM      8  O   UNL     1       3.068   4.827  18.680  0.00  0.00    +0.000 OA
ATOM      9  N   UNL     1       4.374   6.515  17.735  0.00  0.00    +0.000 N 
ATOM     10  H   UNL     1       4.578   7.500  17.821  0.00  0.00    +0.000 HD
BRANCH   9  11
ATOM     11  C   UNL     1       5.320   5.714  17.033  0.00  0.00    +0.000 A 
ATOM     12  C   UNL     1       5.084   5.289  15.716  0.00  0.00    +0.000 A 
ATOM     13  C   UNL     1       5.990   4.471  15.043  0.00  0.00    +0.000 A 
ATOM     14 CL   UNL     1       5.640   3.936  13.445  0.00  0.00    +0.000 Cl
ATOM     15  C   UNL     1       7.172   4.083  15.655  0.00  0.00    +0.000 A 
ATOM     16  C   UNL     1       7.443   4.519  16.952  0.00  0.00    +0.000 A 
ATOM     17  C   UNL     1       6.525   5.324  17.659  0.00  0.00    +0.000 A 
ATOM     18  C   UNL     1       6.891   5.719  19.064  0.00  0.00    +0.000 C 
ENDBRANCH   9  11
ENDBRANCH   4   7
BRANCH   1  19
ATOM     19  C   UNL     1       0.382  10.226  21.208  0.00  0.00    +0.000 C 
BRANCH  19  30
ATOM     20  C   UNL     1      -3.132   9.904  16.747  0.00  0.00    +0.000 C 
ATOM     21  C   UNL     1      -2.251  10.667  17.666  0.00  0.00    +0.000 A 
ATOM     22  C   UNL     1      -1.611  10.205  18.848  0.00  0.00    +0.000 A 
ATOM     23  C   UNL     1      -0.841  11.262  19.265  0.00  0.00    +0.000 A 
ATOM     24  N   UNL     1      -1.097  12.272  18.389  0.00  0.00    +0.000 N 
ATOM     25  N   UNL     1      -1.938  11.943  17.401  0.00  0.00    +0.000 NA
ATOM     26  C   UNL     1      -0.426  13.544  18.403  0.00  0.00    +0.000 C 
ATOM     27  C   UNL     1       0.466  13.766  19.613  0.00  0.00    +0.000 C 
ATOM     28  C   UNL     1       0.886  12.533  20.380  0.00  0.00    +0.000 C 
ATOM     29  O   UNL     1       1.851  12.531  21.133  0.00  0.00    +0.000 OA
ATOM     30  N   UNL     1       0.082  11.341  20.294  0.00  0.00    +0.000 N 
ENDBRANCH  19  30
ENDBRANCH   1  19
TORSDOF 4
ENDMDL
MODEL 6
REMARK VINA RESULT:      -8.3      2.445      3.228
REMARK  Name = 
REMARK  6 active torsions:
REMARK  status: ('A' for Active; 'I' for Inactive)
REMARK    1  A    between atoms: C_1  and  C_2
REMARK    2  A    between atoms: N_11  and  C_12
REMARK    3  A    between atoms: C_12  and  C_13
REMARK    4  A    between atoms: C_16  and  C_17
REMARK    5  A    between atoms: N_19  and  C_20
REMARK    6  A    between atoms: C_26  and  C_27
REMARK                            x       y       z     vdW  Elec       q    Type
REMARK                         _______ _______ _______ _____ _____    ______ ____
ROOT
ATOM      1  C   UNL     1       3.236   6.051  18.941  0.00  0.00    +0.000 A 
ATOM      2  C   UNL     1       2.589   6.436  20.122  0.00  0.00    +0.000 A 
ATOM      3  C   UNL     1       1.856   7.621  20.171  0.00  0.00    +0.000 A 
ATOM      4  C   UNL     1       1.734   8.444  19.041  0.00  0.00    +0.000 A 
ATOM      5  C   UNL     1       2.341   8.055  17.845  0.00  0.00    +0.000 A 
ATOM      6  C   UNL     1       3.082   6.860  17.798  0.00  0.00    +0.000 A 
ENDROOT
BRANCH   4   7
ATOM      7  C   UNL     1       1.061   9.755  19.234  0.00  0.00    +0.000 C 
ATOM      8  O   UNL     1       1.612  10.725  18.721  0.00  0.00    +0.000 OA
ATOM      9  N   UNL     1      -0.083   9.785  20.021  0.00  0.00    +0.000 N 
ATOM     10  H   UNL     1      -0.311   8.951  20.542  0.00  0.00    +0.000 HD
BRANCH   9  11
ATOM     11  C   UNL     1      -0.831  10.961  20.317  0.00  0.00    +0.000 A 
ATOM     12  C   UNL     1      -0.610  11.690  21.497  0.00  0.00    +0.000 A 
ATOM     13  C   UNL     1      -1.370  12.817  21.806  0.00  0.00    +0.000 A 
ATOM     14 CL   UNL     1      -1.097  13.655  23.285  0.00  0.00    +0.000 Cl
ATOM     15  C   UNL     1      -2.346  13.266  20.931  0.00  0.00    +0.000 A 
ATOM     16  C   UNL     1      -2.562  12.577  19.738  0.00  0.00    +0.000 A 
ATOM     17  C   UNL     1      -1.822  11.418  19.421  0.00  0.00    +0.000 A 
ATOM     18  C   UNL     1      -2.147  10.723  18.125  0.00  0.00    +0.000 C 
ENDBRANCH   9  11
ENDBRANCH   4   7
BRANCH   1  19
ATOM     19  C   UNL     1       4.131   4.829  18.925  0.00  0.00    +0.000 C 
BRANCH  19  30
ATOM     20  C   UNL     1       8.308   8.565  17.952  0.00  0.00    +0.000 C 
ATOM     21  C   UNL     1       7.540   7.344  17.608  0.00  0.00    +0.000 A 
ATOM     22  C   UNL     1       6.514   6.714  18.363  0.00  0.00    +0.000 A 
ATOM     23  C   UNL     1       6.067   5.691  17.564  0.00  0.00    +0.000 A 
ATOM     24  N   UNL     1       6.855   5.722  16.454  0.00  0.00    +0.000 N 
ATOM     25  N   UNL     1       7.749   6.718  16.441  0.00  0.00    +0.000 NA
ATOM     26  C   UNL     1       6.669   4.875  15.307  0.00  0.00    +0.000 C 
ATOM     27  C   UNL     1       5.637   3.776  15.504  0.00  0.00    +0.000 C 
ATOM     28  C   UNL     1       4.653   3.967  16.634  0.00  0.00    +0.000 C 
ATOM     29  O   UNL     1       3.590   3.360  16.683  0.00  0.00    +0.000 OA
ATOM     30  N   UNL     1       5.003   4.823  17.738  0.00  0.00    +0.000 N 
ENDBRANCH  19  30
ENDBRANCH   1  19
TORSDOF 4
ENDMDL
MODEL 7
REMARK VINA RESULT:      -8.3      2.660      3.424
REMARK  Name = 
REMARK  6 active torsions:
REMARK  status: ('A' for Active; 'I' for Inactive)
REMARK    1  A    between atoms: C_1  and  C_2
REMARK    2  A    between atoms: N_11  and  C_12
REMARK    3  A    between atoms: C_12  and  C_13
REMARK    4  A    between atoms: C_16  and  C_17
REMARK    5  A    between atoms: N_19  and  C_20
REMARK    6  A    between atoms: C_26  and  C_27
REMARK                            x       y       z     vdW  Elec       q    Type
REMARK                         _______ _______ _______ _____ _____    ______ ____
ROOT
ATOM      1  C   UNL     1       2.715   6.392  18.456  0.00  0.00    +0.000 A 
ATOM      2  C   UNL     1       2.687   7.547  17.664  0.00  0.00    +0.000 A 
ATOM      3  C   UNL     1       2.077   8.710  18.134  0.00  0.00    +0.000 A 
ATOM      4  C   UNL     1       1.495   8.757  19.410  0.00  0.00    +0.000 A 
ATOM      5  C   UNL     1       1.548   7.625  20.225  0.00  0.00    +0.000 A 
ATOM      6  C   UNL     1       2.162   6.452  19.749  0.00  0.00    +0.000 A 
ENDROOT
BRANCH   4   7
ATOM      7  C   UNL     1       0.740   9.989  19.759  0.00  0.00    +0.000 C 
ATOM      8  O   UNL     1      -0.081  10.372  18.931  0.00  0.00    +0.000 OA
ATOM      9  N   UNL     1       1.067  10.632  20.946  0.00  0.00    +0.000 N 
ATOM     10  H   UNL     1       1.896  10.322  21.432  0.00  0.00    +0.000 HD
BRANCH   9  11
ATOM     11  C   UNL     1       0.452  11.830  21.413  0.00  0.00    +0.000 A 
ATOM     12  C   UNL     1       0.813  13.086  20.899  0.00  0.00    +0.000 A 
ATOM     13  C   UNL     1       0.241  14.261  21.385  0.00  0.00    +0.000 A 
ATOM     14 CL   UNL     1       0.746  15.782  20.758  0.00  0.00    +0.000 Cl
ATOM     15  C   UNL     1      -0.730  14.211  22.372  0.00  0.00    +0.000 A 
ATOM     16  C   UNL     1      -1.128  12.973  22.875  0.00  0.00    +0.000 A 
ATOM     17  C   UNL     1      -0.541  11.775  22.416  0.00  0.00    +0.000 A 
ATOM     18  C   UNL     1      -1.012  10.489  23.041  0.00  0.00    +0.000 C 
ENDBRANCH   9  11
ENDBRANCH   4   7
BRANCH   1  19
ATOM     19  C   UNL     1       3.268   5.098  17.896  0.00  0.00    +0.000 C 
BRANCH  19  30
ATOM     20  C   UNL     1       6.465   4.008  13.320  0.00  0.00    +0.000 C 
ATOM     21  C   UNL     1       6.306   4.426  14.735  0.00  0.00    +0.000 A 
ATOM     22  C   UNL     1       5.099   4.663  15.445  0.00  0.00    +0.000 A 
ATOM     23  C   UNL     1       5.495   4.924  16.734  0.00  0.00    +0.000 A 
ATOM     24  N   UNL     1       6.856   4.893  16.712  0.00  0.00    +0.000 N 
ATOM     25  N   UNL     1       7.381   4.582  15.520  0.00  0.00    +0.000 NA
ATOM     26  C   UNL     1       7.686   5.024  17.879  0.00  0.00    +0.000 C 
ATOM     27  C   UNL     1       6.932   5.413  19.140  0.00  0.00    +0.000 C 
ATOM     28  C   UNL     1       5.440   5.179  19.136  0.00  0.00    +0.000 C 
ATOM     29  O   UNL     1       4.787   5.117  20.170  0.00  0.00    +0.000 OA
ATOM     30  N   UNL     1       4.740   5.110  17.879  0.00  0.00    +0.000 N 
ENDBRANCH  19  30
ENDBRANCH   1  19
TORSDOF 4
ENDMDL
MODEL 8
REMARK VINA RESULT:      -8.2      3.520      4.527
REMARK  Name = 
REMARK  6 active torsions:
REMARK  status: ('A' for Active; 'I' for Inactive)
REMARK    1  A    between atoms: C_1  and  C_2
REMARK    2  A    between atoms: N_11  and  C_12
REMARK    3  A    between atoms: C_12  and  C_13
REMARK    4  A    between atoms: C_16  and  C_17
REMARK    5  A    between atoms: N_19  and  C_20
REMARK    6  A    between atoms: C_26  and  C_27
REMARK                            x       y       z     vdW  Elec       q    Type
REMARK                         _______ _______ _______ _____ _____    ______ ____
ROOT
ATOM      1  C   UNL     1       2.727   7.556  19.147  0.00  0.00    +0.000 A 
ATOM      2  C   UNL     1       2.581   8.208  17.917  0.00  0.00    +0.000 A 
ATOM      3  C   UNL     1       1.581   9.164  17.739  0.00  0.00    +0.000 A 
ATOM      4  C   UNL     1       0.713   9.507  18.787  0.00  0.00    +0.000 A 
ATOM      5  C   UNL     1       0.871   8.893  20.031  0.00  0.00    +0.000 A 
ATOM      6  C   UNL     1       1.879   7.927  20.208  0.00  0.00    +0.000 A 
ENDROOT
BRANCH   4   7
ATOM      7  C   UNL     1      -0.411  10.421  18.457  0.00  0.00    +0.000 C 
ATOM      8  O   UNL     1      -0.157  11.622  18.488  0.00  0.00    +0.000 OA
ATOM      9  N   UNL     1      -1.654   9.854  18.208  0.00  0.00    +0.000 N 
ATOM     10  H   UNL     1      -1.767   8.872  18.411  0.00  0.00    +0.000 HD
BRANCH   9  11
ATOM     11  C   UNL     1      -2.832  10.592  17.897  0.00  0.00    +0.000 A 
ATOM     12  C   UNL     1      -3.505  11.342  18.875  0.00  0.00    +0.000 A 
ATOM     13  C   UNL     1      -4.680  12.031  18.580  0.00  0.00    +0.000 A 
ATOM     14 CL   UNL     1      -5.497  12.901  19.820  0.00  0.00    +0.000 Cl
ATOM     15  C   UNL     1      -5.197  12.017  17.294  0.00  0.00    +0.000 A 
ATOM     16  C   UNL     1      -4.530  11.305  16.298  0.00  0.00    +0.000 A 
ATOM     17  C   UNL     1      -3.354  10.579  16.584  0.00  0.00    +0.000 A 
ATOM     18  C   UNL     1      -2.721   9.815  15.452  0.00  0.00    +0.000 C 
ENDBRANCH   9  11
ENDBRANCH   4   7
BRANCH   1  19
ATOM     19  C   UNL     1       3.732   6.433  19.300  0.00  0.00    +0.000 C 
BRANCH  19  30
ATOM     20  C   UNL     1       1.103   2.428  22.365  0.00  0.00    +0.000 C 
ATOM     21  C   UNL     1       1.567   2.992  21.074  0.00  0.00    +0.000 A 
ATOM     22  C   UNL     1       2.167   4.258  20.838  0.00  0.00    +0.000 A 
ATOM     23  C   UNL     1       2.496   4.248  19.505  0.00  0.00    +0.000 A 
ATOM     24  N   UNL     1       2.040   3.059  19.024  0.00  0.00    +0.000 N 
ATOM     25  N   UNL     1       1.483   2.268  19.949  0.00  0.00    +0.000 NA
ATOM     26  C   UNL     1       2.258   2.594  17.681  0.00  0.00    +0.000 C 
ATOM     27  C   UNL     1       2.870   3.631  16.753  0.00  0.00    +0.000 C 
ATOM     28  C   UNL     1       3.566   4.800  17.410  0.00  0.00    +0.000 C 
ATOM     29  O   UNL     1       4.376   5.496  16.812  0.00  0.00    +0.000 OA
ATOM     30  N   UNL     1       3.206   5.170  18.755  0.00  0.00    +0.000 N 
ENDBRANCH  19  30
ENDBRANCH   1  19
TORSDOF 4
ENDMDL
MODEL 9
REMARK VINA RESULT:      -8.2      2.346      2.966
REMARK  Name = 
REMARK  6 active torsions:
REMARK  status: ('A' for Active; 'I' for Inactive)
REMARK    1  A    between atoms: C_1  and  C_2
REMARK    2  A    between atoms: N_11  and  C_12
REMARK    3  A    between atoms: C_12  and  C_13
REMARK    4  A    between atoms: C_16  and  C_17
REMARK    5  A    between atoms: N_19  and  C_20
REMARK    6  A    between atoms: C_26  and  C_27
REMARK                            x       y       z     vdW  Elec       q    Type
REMARK                         _______ _______ _______ _____ _____    ______ ____
ROOT
ATOM      1  C   UNL     1       2.768   6.342  18.362  0.00  0.00    +0.000 A 
ATOM      2  C   UNL     1       2.617   7.473  17.550  0.00  0.00    +0.000 A 
ATOM      3  C   UNL     1       1.976   8.612  18.038  0.00  0.00    +0.000 A 
ATOM      4  C   UNL     1       1.486   8.659  19.352  0.00  0.00    +0.000 A 
ATOM      5  C   UNL     1       1.663   7.553  20.186  0.00  0.00    +0.000 A 
ATOM      6  C   UNL     1       2.308   6.405  19.692  0.00  0.00    +0.000 A 
ENDROOT
BRANCH   4   7
ATOM      7  C   UNL     1       0.688   9.855  19.729  0.00  0.00    +0.000 C 
ATOM      8  O   UNL     1       0.028  10.368  18.830  0.00  0.00    +0.000 OA
ATOM      9  N   UNL     1       0.804  10.325  21.031  0.00  0.00    +0.000 N 
ATOM     10  H   UNL     1       1.532   9.928  21.606  0.00  0.00    +0.000 HD
BRANCH   9  11
ATOM     11  C   UNL     1       0.123  11.467  21.542  0.00  0.00    +0.000 A 
ATOM     12  C   UNL     1      -1.037  11.339  22.322  0.00  0.00    +0.000 A 
ATOM     13  C   UNL     1      -1.727  12.458  22.787  0.00  0.00    +0.000 A 
ATOM     14 CL   UNL     1      -3.170  12.255  23.703  0.00  0.00    +0.000 Cl
ATOM     15  C   UNL     1      -1.258  13.733  22.515  0.00  0.00    +0.000 A 
ATOM     16  C   UNL     1      -0.090  13.886  21.769  0.00  0.00    +0.000 A 
ATOM     17  C   UNL     1       0.606  12.766  21.265  0.00  0.00    +0.000 A 
ATOM     18  C   UNL     1       1.840  13.030  20.444  0.00  0.00    +0.000 C 
ENDBRANCH   9  11
ENDBRANCH   4   7
BRANCH   1  19
ATOM     19  C   UNL     1       3.354   5.067  17.792  0.00  0.00    +0.000 C 
BRANCH  19  30
ATOM     20  C   UNL     1       6.603   4.271  13.192  0.00  0.00    +0.000 C 
ATOM     21  C   UNL     1       6.426   4.616  14.624  0.00  0.00    +0.000 A 
ATOM     22  C   UNL     1       5.209   4.792  15.337  0.00  0.00    +0.000 A 
ATOM     23  C   UNL     1       5.592   4.998  16.639  0.00  0.00    +0.000 A 
ATOM     24  N   UNL     1       6.953   4.997  16.626  0.00  0.00    +0.000 N 
ATOM     25  N   UNL     1       7.492   4.756  15.425  0.00  0.00    +0.000 NA
ATOM     26  C   UNL     1       7.773   5.088  17.804  0.00  0.00    +0.000 C 
ATOM     27  C   UNL     1       7.003   5.398  19.077  0.00  0.00    +0.000 C 
ATOM     28  C   UNL     1       5.515   5.133  19.050  0.00  0.00    +0.000 C 
ATOM     29  O   UNL     1       4.857   5.006  20.075  0.00  0.00    +0.000 OA
ATOM     30  N   UNL     1       4.826   5.112  17.786  0.00  0.00    +0.000 N 
ENDBRANCH  19  30
ENDBRANCH   1  19
TORSDOF 4
ENDMDL
