MODEL 1
REMARK VINA RESULT:      -6.8      0.000      0.000
REMARK  Name = 
REMARK  7 active torsions:
REMARK  status: ('A' for Active; 'I' for Inactive)
REMARK    1  A    between atoms: C_1  and  C_2
REMARK    2  A    between atoms: C_2  and  N_3
REMARK    3  A    between atoms: C_4  and  N_5
REMARK    4  A    between atoms: C_6  and  C_8
REMARK    5  A    between atoms: C_8  and  C_9
REMARK    6  A    between atoms: C_8  and  C_10
REMARK    7  A    between atoms: C_11  and  C_12
REMARK                            x       y       z     vdW  Elec       q    Type
REMARK                         _______ _______ _______ _____ _____    ______ ____
ROOT
ATOM      1  N   UNL     1       4.988   6.249  17.166  0.00  0.00    +0.000 N 
ATOM      2  C   UNL     1       4.112   5.777  18.165  0.00  0.00    +0.000 A 
ATOM      3  C   UNL     1       3.754   4.466  18.262  0.00  0.00    +0.000 A 
ATOM      4  C   UNL     1       4.289   3.500  17.269  0.00  0.00    +0.000 A 
ATOM      5  O   UNL     1       4.056   2.292  17.356  0.00  0.00    +0.000 OA
ATOM      6  C   UNL     1       5.118   4.019  16.168  0.00  0.00    +0.000 A 
ATOM      7  C   UNL     1       5.536   3.123  15.166  0.00  0.00    +0.000 A 
ATOM      8  C   UNL     1       6.320   3.572  14.111  0.00  0.00    +0.000 A 
ATOM      9  C   UNL     1       6.700   4.906  14.074  0.00  0.00    +0.000 A 
ATOM     10  C   UNL     1       6.289   5.791  15.083  0.00  0.00    +0.000 A 
ATOM     11  C   UNL     1       5.471   5.381  16.152  0.00  0.00    +0.000 A 
ENDROOT
BRANCH   3  12
ATOM     12  C   UNL     1       2.784   3.994  19.266  0.00  0.00    +0.000 A 
ATOM     13  C   UNL     1       3.238   3.600  20.533  0.00  0.00    +0.000 A 
ATOM     14  C   UNL     1       2.356   3.014  21.440  0.00  0.00    +0.000 A 
ATOM     15  C   UNL     1       1.021   2.822  21.087  0.00  0.00    +0.000 A 
ATOM     16  C   UNL     1       0.557   3.249  19.843  0.00  0.00    +0.000 A 
ATOM     17  C   UNL     1       1.433   3.843  18.936  0.00  0.00    +0.000 A 
ENDBRANCH   3  12
BRANCH   2  18
ATOM     18  N   UNL     1       3.602   6.660  19.129  0.00  0.00    +0.000 N 
ATOM     19  C   UNL     1       2.460   7.409  18.863  0.00  0.00    +0.000 C 
ATOM     20  O   UNL     1       1.906   7.459  17.766  0.00  0.00    +0.000 OA
ATOM     21  H   UNL     1       3.576   6.275  20.067  0.00  0.00    +0.000 HD
BRANCH  19  22
ATOM     22  C   UNL     1       1.932   8.239  20.040  0.00  0.00    +0.000 C 
ATOM     23  C   UNL     1       1.013   9.388  19.638  0.00  0.00    +0.000 C 
ATOM     24  C   UNL     1       1.254   7.347  21.076  0.00  0.00    +0.000 C 
ENDBRANCH  19  22
ENDBRANCH   2  18
BRANCH   1  26
ATOM     25  C   UNL     1       6.977   7.659  17.582  0.00  0.00    +0.000 C 
ATOM     26  C   UNL     1       5.499   7.635  17.203  0.00  0.00    +0.000 C 
ENDBRANCH   1  26
TORSDOF 4
ENDMDL
MODEL 2
REMARK VINA RESULT:      -6.5      8.362     11.666
REMARK  Name = 
REMARK  7 active torsions:
REMARK  status: ('A' for Active; 'I' for Inactive)
REMARK    1  A    between atoms: C_1  and  C_2
REMARK    2  A    between atoms: C_2  and  N_3
REMARK    3  A    between atoms: C_4  and  N_5
REMARK    4  A    between atoms: C_6  and  C_8
REMARK    5  A    between atoms: C_8  and  C_9
REMARK    6  A    between atoms: C_8  and  C_10
REMARK    7  A    between atoms: C_11  and  C_12
REMARK                            x       y       z     vdW  Elec       q    Type
REMARK                         _______ _______ _______ _____ _____    ______ ____
ROOT
ATOM      1  N   UNL     1      -4.782  12.199  18.832  0.00  0.00    +0.000 N 
ATOM      2  C   UNL     1      -4.646  12.836  20.084  0.00  0.00    +0.000 A 
ATOM      3  C   UNL     1      -3.465  12.864  20.763  0.00  0.00    +0.000 A 
ATOM      4  C   UNL     1      -2.283  12.184  20.177  0.00  0.00    +0.000 A 
ATOM      5  O   UNL     1      -1.174  12.243  20.716  0.00  0.00    +0.000 OA
ATOM      6  C   UNL     1      -2.461  11.433  18.923  0.00  0.00    +0.000 A 
ATOM      7  C   UNL     1      -1.369  10.699  18.423  0.00  0.00    +0.000 A 
ATOM      8  C   UNL     1      -1.495   9.978  17.242  0.00  0.00    +0.000 A 
ATOM      9  C   UNL     1      -2.701  10.013  16.556  0.00  0.00    +0.000 A 
ATOM     10  C   UNL     1      -3.782  10.756  17.055  0.00  0.00    +0.000 A 
ATOM     11  C   UNL     1      -3.702  11.476  18.263  0.00  0.00    +0.000 A 
ENDROOT
BRANCH   3  12
ATOM     12  C   UNL     1      -3.350  13.471  22.101  0.00  0.00    +0.000 A 
ATOM     13  C   UNL     1      -3.584  12.684  23.238  0.00  0.00    +0.000 A 
ATOM     14  C   UNL     1      -3.625  13.274  24.501  0.00  0.00    +0.000 A 
ATOM     15  C   UNL     1      -3.431  14.649  24.632  0.00  0.00    +0.000 A 
ATOM     16  C   UNL     1      -3.159  15.428  23.507  0.00  0.00    +0.000 A 
ATOM     17  C   UNL     1      -3.109  14.841  22.244  0.00  0.00    +0.000 A 
ENDBRANCH   3  12
BRANCH   2  18
ATOM     18  N   UNL     1      -5.739  13.502  20.657  0.00  0.00    +0.000 N 
ATOM     19  C   UNL     1      -6.608  12.826  21.508  0.00  0.00    +0.000 C 
ATOM     20  O   UNL     1      -6.571  11.614  21.712  0.00  0.00    +0.000 OA
ATOM     21  H   UNL     1      -5.516  14.423  21.020  0.00  0.00    +0.000 HD
BRANCH  19  22
ATOM     22  C   UNL     1      -7.687  13.695  22.169  0.00  0.00    +0.000 C 
ATOM     23  C   UNL     1      -7.816  13.498  23.676  0.00  0.00    +0.000 C 
ATOM     24  C   UNL     1      -7.480  15.169  21.834  0.00  0.00    +0.000 C 
ENDBRANCH  19  22
ENDBRANCH   2  18
BRANCH   1  26
ATOM     25  C   UNL     1      -6.955  11.162  18.265  0.00  0.00    +0.000 C 
ATOM     26  C   UNL     1      -6.021  12.348  18.041  0.00  0.00    +0.000 C 
ENDBRANCH   1  26
TORSDOF 4
ENDMDL
MODEL 3
REMARK VINA RESULT:      -6.4      2.217      6.259
REMARK  Name = 
REMARK  7 active torsions:
REMARK  status: ('A' for Active; 'I' for Inactive)
REMARK    1  A    between atoms: C_1  and  C_2
REMARK    2  A    between atoms: C_2  and  N_3
REMARK    3  A    between atoms: C_4  and  N_5
REMARK    4  A    between atoms: C_6  and  C_8
REMARK    5  A    between atoms: C_8  and  C_9
REMARK    6  A    between atoms: C_8  and  C_10
REMARK    7  A    between atoms: C_11  and  C_12
REMARK                            x       y       z     vdW  Elec       q    Type
REMARK                         _______ _______ _______ _____ _____    ______ ____
ROOT
ATOM      1  N   UNL     1       1.317   7.997  20.619  0.00  0.00    +0.000 N 
ATOM      2  C   UNL     1       2.146   7.026  20.019  0.00  0.00    +0.000 A 
ATOM      3  C   UNL     1       2.628   7.161  18.752  0.00  0.00    +0.000 A 
ATOM      4  C   UNL     1       2.254   8.363  17.965  0.00  0.00    +0.000 A 
ATOM      5  O   UNL     1       2.722   8.568  16.842  0.00  0.00    +0.000 OA
ATOM      6  C   UNL     1       1.304   9.318  18.560  0.00  0.00    +0.000 A 
ATOM      7  C   UNL     1       0.865  10.400  17.775  0.00  0.00    +0.000 A 
ATOM      8  C   UNL     1      -0.029  11.325  18.299  0.00  0.00    +0.000 A 
ATOM      9  C   UNL     1      -0.461  11.177  19.610  0.00  0.00    +0.000 A 
ATOM     10  C   UNL     1      -0.009  10.102  20.390  0.00  0.00    +0.000 A 
ATOM     11  C   UNL     1       0.874   9.129  19.885  0.00  0.00    +0.000 A 
ENDROOT
BRANCH   3  12
ATOM     12  C   UNL     1       3.435   6.108  18.109  0.00  0.00    +0.000 A 
ATOM     13  C   UNL     1       2.795   4.998  17.541  0.00  0.00    +0.000 A 
ATOM     14  C   UNL     1       3.547   3.926  17.062  0.00  0.00    +0.000 A 
ATOM     15  C   UNL     1       4.938   3.961  17.148  0.00  0.00    +0.000 A 
ATOM     16  C   UNL     1       5.580   5.081  17.676  0.00  0.00    +0.000 A 
ATOM     17  C   UNL     1       4.832   6.158  18.148  0.00  0.00    +0.000 A 
ENDBRANCH   3  12
BRANCH   2  18
ATOM     18  N   UNL     1       2.532   5.887  20.741  0.00  0.00    +0.000 N 
ATOM     19  C   UNL     1       1.742   4.742  20.725  0.00  0.00    +0.000 C 
ATOM     20  O   UNL     1       0.627   4.679  20.211  0.00  0.00    +0.000 OA
ATOM     21  H   UNL     1       3.515   5.655  20.648  0.00  0.00    +0.000 HD
BRANCH  19  22
ATOM     22  C   UNL     1       2.335   3.526  21.449  0.00  0.00    +0.000 C 
ATOM     23  C   UNL     1       1.305   2.490  21.887  0.00  0.00    +0.000 C 
ATOM     24  C   UNL     1       3.431   2.873  20.610  0.00  0.00    +0.000 C 
ENDBRANCH  19  22
ENDBRANCH   2  18
BRANCH   1  26
ATOM     25  C   UNL     1       1.440   9.151  22.803  0.00  0.00    +0.000 C 
ATOM     26  C   UNL     1       0.967   7.910  22.052  0.00  0.00    +0.000 C 
ENDBRANCH   1  26
TORSDOF 4
ENDMDL
MODEL 4
REMARK VINA RESULT:      -6.3      8.801     11.588
REMARK  Name = 
REMARK  7 active torsions:
REMARK  status: ('A' for Active; 'I' for Inactive)
REMARK    1  A    between atoms: C_1  and  C_2
REMARK    2  A    between atoms: C_2  and  N_3
REMARK    3  A    between atoms: C_4  and  N_5
REMARK    4  A    between atoms: C_6  and  C_8
REMARK    5  A    between atoms: C_8  and  C_9
REMARK    6  A    between atoms: C_8  and  C_10
REMARK    7  A    between atoms: C_11  and  C_12
REMARK                            x       y       z     vdW  Elec       q    Type
REMARK                         _______ _______ _______ _____ _____    ______ ____
ROOT
ATOM      1  N   UNL     1      -5.204  12.117  18.392  0.00  0.00    +0.000 N 
ATOM      2  C   UNL     1      -4.885  12.691  19.641  0.00  0.00    +0.000 A 
ATOM      3  C   UNL     1      -3.619  12.685  20.146  0.00  0.00    +0.000 A 
ATOM      4  C   UNL     1      -2.538  12.032  19.364  0.00  0.00    +0.000 A 
ATOM      5  O   UNL     1      -1.364  12.062  19.742  0.00  0.00    +0.000 OA
ATOM      6  C   UNL     1      -2.899  11.344  18.114  0.00  0.00    +0.000 A 
ATOM      7  C   UNL     1      -1.896  10.633  17.428  0.00  0.00    +0.000 A 
ATOM      8  C   UNL     1      -2.195   9.971  16.244  0.00  0.00    +0.000 A 
ATOM      9  C   UNL     1      -3.486  10.041  15.740  0.00  0.00    +0.000 A 
ATOM     10  C   UNL     1      -4.478  10.761  16.423  0.00  0.00    +0.000 A 
ATOM     11  C   UNL     1      -4.221  11.421  17.640  0.00  0.00    +0.000 A 
ENDROOT
BRANCH   3  12
ATOM     12  C   UNL     1      -3.310  13.225  21.481  0.00  0.00    +0.000 A 
ATOM     13  C   UNL     1      -2.917  14.565  21.610  0.00  0.00    +0.000 A 
ATOM     14  C   UNL     1      -2.479  15.050  22.841  0.00  0.00    +0.000 A 
ATOM     15  C   UNL     1      -2.434  14.201  23.946  0.00  0.00    +0.000 A 
ATOM     16  C   UNL     1      -2.862  12.878  23.831  0.00  0.00    +0.000 A 
ATOM     17  C   UNL     1      -3.308  12.391  22.604  0.00  0.00    +0.000 A 
ENDBRANCH   3  12
BRANCH   2  18
ATOM     18  N   UNL     1      -5.879  13.330  20.396  0.00  0.00    +0.000 N 
ATOM     19  C   UNL     1      -6.695  12.596  21.251  0.00  0.00    +0.000 C 
ATOM     20  O   UNL     1      -6.702  11.368  21.314  0.00  0.00    +0.000 OA
ATOM     21  H   UNL     1      -5.573  14.192  20.834  0.00  0.00    +0.000 HD
BRANCH  19  22
ATOM     22  C   UNL     1      -7.656  13.425  22.114  0.00  0.00    +0.000 C 
ATOM     23  C   UNL     1      -7.221  13.579  23.568  0.00  0.00    +0.000 C 
ATOM     24  C   UNL     1      -7.917  14.790  21.483  0.00  0.00    +0.000 C 
ENDBRANCH  19  22
ENDBRANCH   2  18
BRANCH   1  26
ATOM     25  C   UNL     1      -6.636  13.659  17.095  0.00  0.00    +0.000 C 
ATOM     26  C   UNL     1      -6.541  12.306  17.794  0.00  0.00    +0.000 C 
ENDBRANCH   1  26
TORSDOF 4
ENDMDL
MODEL 5
REMARK VINA RESULT:      -6.2      7.853     11.734
REMARK  Name = 
REMARK  7 active torsions:
REMARK  status: ('A' for Active; 'I' for Inactive)
REMARK    1  A    between atoms: C_1  and  C_2
REMARK    2  A    between atoms: C_2  and  N_3
REMARK    3  A    between atoms: C_4  and  N_5
REMARK    4  A    between atoms: C_6  and  C_8
REMARK    5  A    between atoms: C_8  and  C_9
REMARK    6  A    between atoms: C_8  and  C_10
REMARK    7  A    between atoms: C_11  and  C_12
REMARK                            x       y       z     vdW  Elec       q    Type
REMARK                         _______ _______ _______ _____ _____    ______ ____
ROOT
ATOM      1  N   UNL     1      -4.084  13.083  20.915  0.00  0.00    +0.000 N 
ATOM      2  C   UNL     1      -3.627  12.517  19.706  0.00  0.00    +0.000 A 
ATOM      3  C   UNL     1      -4.406  11.703  18.940  0.00  0.00    +0.000 A 
ATOM      4  C   UNL     1      -5.780  11.381  19.403  0.00  0.00    +0.000 A 
ATOM      5  O   UNL     1      -6.550  10.709  18.711  0.00  0.00    +0.000 OA
ATOM      6  C   UNL     1      -6.211  11.890  20.715  0.00  0.00    +0.000 A 
ATOM      7  C   UNL     1      -7.472  11.497  21.203  0.00  0.00    +0.000 A 
ATOM      8  C   UNL     1      -7.917  11.956  22.437  0.00  0.00    +0.000 A 
ATOM      9  C   UNL     1      -7.111  12.821  23.164  0.00  0.00    +0.000 A 
ATOM     10  C   UNL     1      -5.860  13.217  22.666  0.00  0.00    +0.000 A 
ATOM     11  C   UNL     1      -5.363  12.751  21.435  0.00  0.00    +0.000 A 
ENDROOT
BRANCH   3  12
ATOM     12  C   UNL     1      -3.895  11.061  17.716  0.00  0.00    +0.000 A 
ATOM     13  C   UNL     1      -2.935  10.044  17.819  0.00  0.00    +0.000 A 
ATOM     14  C   UNL     1      -2.334   9.531  16.670  0.00  0.00    +0.000 A 
ATOM     15  C   UNL     1      -2.692  10.029  15.418  0.00  0.00    +0.000 A 
ATOM     16  C   UNL     1      -3.675  11.012  15.309  0.00  0.00    +0.000 A 
ATOM     17  C   UNL     1      -4.284  11.522  16.454  0.00  0.00    +0.000 A 
ENDBRANCH   3  12
BRANCH   2  18
ATOM     18  N   UNL     1      -2.340  12.814  19.233  0.00  0.00    +0.000 N 
ATOM     19  C   UNL     1      -1.227  12.177  19.773  0.00  0.00    +0.000 C 
ATOM     20  O   UNL     1      -1.263  11.436  20.753  0.00  0.00    +0.000 OA
ATOM     21  H   UNL     1      -2.276  12.867  18.222  0.00  0.00    +0.000 HD
BRANCH  19  22
ATOM     22  C   UNL     1       0.108  12.493  19.084  0.00  0.00    +0.000 C 
ATOM     23  C   UNL     1       0.976  13.502  19.829  0.00  0.00    +0.000 C 
ATOM     24  C   UNL     1       0.891  11.215  18.800  0.00  0.00    +0.000 C 
ENDBRANCH  19  22
ENDBRANCH   2  18
BRANCH   1  26
ATOM     25  C   UNL     1      -3.576  15.498  21.071  0.00  0.00    +0.000 C 
ATOM     26  C   UNL     1      -3.284  14.105  21.620  0.00  0.00    +0.000 C 
ENDBRANCH   1  26
TORSDOF 4
ENDMDL
MODEL 6
REMARK VINA RESULT:      -6.1      8.561     11.769
REMARK  Name = 
REMARK  7 active torsions:
REMARK  status: ('A' for Active; 'I' for Inactive)
REMARK    1  A    between atoms: C_1  and  C_2
REMARK    2  A    between atoms: C_2  and  N_3
REMARK    3  A    between atoms: C_4  and  N_5
REMARK    4  A    between atoms: C_6  and  C_8
REMARK    5  A    between atoms: C_8  and  C_9
REMARK    6  A    between atoms: C_8  and  C_10
REMARK    7  A    between atoms: C_11  and  C_12
REMARK                            x       y       z     vdW  Elec       q    Type
REMARK                         _______ _______ _______ _____ _____    ______ ____
ROOT
ATOM      1  N   UNL     1      -4.695  12.348  19.350  0.00  0.00    +0.000 N 
ATOM      2  C   UNL     1      -4.261  13.199  20.388  0.00  0.00    +0.000 A 
ATOM      3  C   UNL     1      -2.942  13.389  20.673  0.00  0.00    +0.000 A 
ATOM      4  C   UNL     1      -1.923  12.659  19.877  0.00  0.00    +0.000 A 
ATOM      5  O   UNL     1      -0.716  12.851  20.046  0.00  0.00    +0.000 OA
ATOM      6  C   UNL     1      -2.387  11.693  18.867  0.00  0.00    +0.000 A 
ATOM      7  C   UNL     1      -1.425  10.922  18.188  0.00  0.00    +0.000 A 
ATOM      8  C   UNL     1      -1.822  10.000  17.226  0.00  0.00    +0.000 A 
ATOM      9  C   UNL     1      -3.172   9.871  16.933  0.00  0.00    +0.000 A 
ATOM     10  C   UNL     1      -4.124  10.651  17.607  0.00  0.00    +0.000 A 
ATOM     11  C   UNL     1      -3.764  11.574  18.607  0.00  0.00    +0.000 A 
ENDROOT
BRANCH   3  12
ATOM     12  C   UNL     1      -2.501  14.225  21.803  0.00  0.00    +0.000 A 
ATOM     13  C   UNL     1      -2.225  13.624  23.040  0.00  0.00    +0.000 A 
ATOM     14  C   UNL     1      -1.951  14.414  24.155  0.00  0.00    +0.000 A 
ATOM     15  C   UNL     1      -1.951  15.804  24.040  0.00  0.00    +0.000 A 
ATOM     16  C   UNL     1      -2.186  16.404  22.803  0.00  0.00    +0.000 A 
ATOM     17  C   UNL     1      -2.452  15.617  21.683  0.00  0.00    +0.000 A 
ENDBRANCH   3  12
BRANCH   2  18
ATOM     18  N   UNL     1      -5.197  13.916  21.148  0.00  0.00    +0.000 N 
ATOM     19  C   UNL     1      -5.714  13.376  22.321  0.00  0.00    +0.000 C 
ATOM     20  O   UNL     1      -5.505  12.225  22.702  0.00  0.00    +0.000 OA
ATOM     21  H   UNL     1      -4.965  14.896  21.268  0.00  0.00    +0.000 HD
BRANCH  19  22
ATOM     22  C   UNL     1      -6.629  14.309  23.125  0.00  0.00    +0.000 C 
ATOM     23  C   UNL     1      -7.515  13.597  24.142  0.00  0.00    +0.000 C 
ATOM     24  C   UNL     1      -5.824  15.419  23.795  0.00  0.00    +0.000 C 
ENDBRANCH  19  22
ENDBRANCH   2  18
BRANCH   1  26
ATOM     25  C   UNL     1      -6.843  11.157  19.634  0.00  0.00    +0.000 C 
ATOM     26  C   UNL     1      -6.116  12.310  18.949  0.00  0.00    +0.000 C 
ENDBRANCH   1  26
TORSDOF 4
ENDMDL
MODEL 7
REMARK VINA RESULT:      -6.1      6.189      9.939
REMARK  Name = 
REMARK  7 active torsions:
REMARK  status: ('A' for Active; 'I' for Inactive)
REMARK    1  A    between atoms: C_1  and  C_2
REMARK    2  A    between atoms: C_2  and  N_3
REMARK    3  A    between atoms: C_4  and  N_5
REMARK    4  A    between atoms: C_6  and  C_8
REMARK    5  A    between atoms: C_8  and  C_9
REMARK    6  A    between atoms: C_8  and  C_10
REMARK    7  A    between atoms: C_11  and  C_12
REMARK                            x       y       z     vdW  Elec       q    Type
REMARK                         _______ _______ _______ _____ _____    ______ ____
ROOT
ATOM      1  N   UNL     1      -1.249  11.785  19.372  0.00  0.00    +0.000 N 
ATOM      2  C   UNL     1      -1.826  12.426  20.489  0.00  0.00    +0.000 A 
ATOM      3  C   UNL     1      -1.467  12.128  21.768  0.00  0.00    +0.000 A 
ATOM      4  C   UNL     1      -0.445  11.075  22.001  0.00  0.00    +0.000 A 
ATOM      5  O   UNL     1      -0.032  10.819  23.135  0.00  0.00    +0.000 OA
ATOM      6  C   UNL     1       0.074  10.338  20.837  0.00  0.00    +0.000 A 
ATOM      7  C   UNL     1       0.960   9.268  21.064  0.00  0.00    +0.000 A 
ATOM      8  C   UNL     1       1.474   8.548  19.993  0.00  0.00    +0.000 A 
ATOM      9  C   UNL     1       1.118   8.914  18.702  0.00  0.00    +0.000 A 
ATOM     10  C   UNL     1       0.243   9.989  18.483  0.00  0.00    +0.000 A 
ATOM     11  C   UNL     1      -0.320  10.724  19.543  0.00  0.00    +0.000 A 
ENDROOT
BRANCH   3  12
ATOM     12  C   UNL     1      -2.125  12.753  22.929  0.00  0.00    +0.000 A 
ATOM     13  C   UNL     1      -3.275  12.162  23.472  0.00  0.00    +0.000 A 
ATOM     14  C   UNL     1      -3.993  12.818  24.471  0.00  0.00    +0.000 A 
ATOM     15  C   UNL     1      -3.564  14.062  24.932  0.00  0.00    +0.000 A 
ATOM     16  C   UNL     1      -2.399  14.635  24.423  0.00  0.00    +0.000 A 
ATOM     17  C   UNL     1      -1.674  13.979  23.429  0.00  0.00    +0.000 A 
ENDBRANCH   3  12
BRANCH   2  18
ATOM     18  N   UNL     1      -2.781  13.437  20.303  0.00  0.00    +0.000 N 
ATOM     19  C   UNL     1      -4.135  13.123  20.247  0.00  0.00    +0.000 C 
ATOM     20  O   UNL     1      -4.579  11.977  20.222  0.00  0.00    +0.000 OA
ATOM     21  H   UNL     1      -2.620  14.263  20.869  0.00  0.00    +0.000 HD
BRANCH  19  22
ATOM     22  C   UNL     1      -5.084  14.327  20.169  0.00  0.00    +0.000 C 
ATOM     23  C   UNL     1      -6.539  14.002  20.489  0.00  0.00    +0.000 C 
ATOM     24  C   UNL     1      -4.584  15.474  21.043  0.00  0.00    +0.000 C 
ENDBRANCH  19  22
ENDBRANCH   2  18
BRANCH   1  26
ATOM     25  C   UNL     1      -2.601  11.409  17.336  0.00  0.00    +0.000 C 
ATOM     26  C   UNL     1      -1.524  12.262  18.001  0.00  0.00    +0.000 C 
ENDBRANCH   1  26
TORSDOF 4
ENDMDL
MODEL 8
REMARK VINA RESULT:      -6.0      8.584     11.209
REMARK  Name = 
REMARK  7 active torsions:
REMARK  status: ('A' for Active; 'I' for Inactive)
REMARK    1  A    between atoms: C_1  and  C_2
REMARK    2  A    between atoms: C_2  and  N_3
REMARK    3  A    between atoms: C_4  and  N_5
REMARK    4  A    between atoms: C_6  and  C_8
REMARK    5  A    between atoms: C_8  and  C_9
REMARK    6  A    between atoms: C_8  and  C_10
REMARK    7  A    between atoms: C_11  and  C_12
REMARK                            x       y       z     vdW  Elec       q    Type
REMARK                         _______ _______ _______ _____ _____    ______ ____
ROOT
ATOM      1  N   UNL     1      -4.755  12.294  18.341  0.00  0.00    +0.000 N 
ATOM      2  C   UNL     1      -4.289  12.805  19.571  0.00  0.00    +0.000 A 
ATOM      3  C   UNL     1      -3.016  12.602  20.011  0.00  0.00    +0.000 A 
ATOM      4  C   UNL     1      -2.087  11.798  19.176  0.00  0.00    +0.000 A 
ATOM      5  O   UNL     1      -0.904  11.647  19.493  0.00  0.00    +0.000 OA
ATOM      6  C   UNL     1      -2.612  11.181  17.946  0.00  0.00    +0.000 A 
ATOM      7  C   UNL     1      -1.765  10.330  17.211  0.00  0.00    +0.000 A 
ATOM      8  C   UNL     1      -2.221   9.729  16.045  0.00  0.00    +0.000 A 
ATOM      9  C   UNL     1      -3.510   9.998  15.607  0.00  0.00    +0.000 A 
ATOM     10  C   UNL     1      -4.345  10.856  16.340  0.00  0.00    +0.000 A 
ATOM     11  C   UNL     1      -3.929  11.461  17.541  0.00  0.00    +0.000 A 
ENDROOT
BRANCH   3  12
ATOM     12  C   UNL     1      -2.560  13.080  21.328  0.00  0.00    +0.000 A 
ATOM     13  C   UNL     1      -2.666  12.236  22.443  0.00  0.00    +0.000 A 
ATOM     14  C   UNL     1      -2.379  12.723  23.718  0.00  0.00    +0.000 A 
ATOM     15  C   UNL     1      -1.984  14.050  23.882  0.00  0.00    +0.000 A 
ATOM     16  C   UNL     1      -1.840  14.881  22.772  0.00  0.00    +0.000 A 
ATOM     17  C   UNL     1      -2.117  14.396  21.495  0.00  0.00    +0.000 A 
ENDBRANCH   3  12
BRANCH   2  18
ATOM     18  N   UNL     1      -5.135  13.583  20.376  0.00  0.00    +0.000 N 
ATOM     19  C   UNL     1      -5.897  12.989  21.377  0.00  0.00    +0.000 C 
ATOM     20  O   UNL     1      -5.989  11.774  21.546  0.00  0.00    +0.000 OA
ATOM     21  H   UNL     1      -4.714  14.446  20.700  0.00  0.00    +0.000 HD
BRANCH  19  22
ATOM     22  C   UNL     1      -6.682  13.961  22.268  0.00  0.00    +0.000 C 
ATOM     23  C   UNL     1      -7.916  13.354  22.927  0.00  0.00    +0.000 C 
ATOM     24  C   UNL     1      -5.772  14.598  23.314  0.00  0.00    +0.000 C 
ENDBRANCH  19  22
ENDBRANCH   2  18
BRANCH   1  26
ATOM     25  C   UNL     1      -7.149  11.685  18.227  0.00  0.00    +0.000 C 
ATOM     26  C   UNL     1      -6.077  12.688  17.812  0.00  0.00    +0.000 C 
ENDBRANCH   1  26
TORSDOF 4
ENDMDL
MODEL 9
REMARK VINA RESULT:      -5.9      6.310     10.050
REMARK  Name = 
REMARK  7 active torsions:
REMARK  status: ('A' for Active; 'I' for Inactive)
REMARK    1  A    between atoms: C_1  and  C_2
REMARK    2  A    between atoms: C_2  and  N_3
REMARK    3  A    between atoms: C_4  and  N_5
REMARK    4  A    between atoms: C_6  and  C_8
REMARK    5  A    between atoms: C_8  and  C_9
REMARK    6  A    between atoms: C_8  and  C_10
REMARK    7  A    between atoms: C_11  and  C_12
REMARK                            x       y       z     vdW  Elec       q    Type
REMARK                         _______ _______ _______ _____ _____    ______ ____
ROOT
ATOM      1  N   UNL     1      -1.261  11.813  19.489  0.00  0.00    +0.000 N 
ATOM      2  C   UNL     1      -1.919  12.475  20.547  0.00  0.00    +0.000 A 
ATOM      3  C   UNL     1      -1.655  12.203  21.855  0.00  0.00    +0.000 A 
ATOM      4  C   UNL     1      -0.651  11.159  22.183  0.00  0.00    +0.000 A 
ATOM      5  O   UNL     1      -0.322  10.927  23.350  0.00  0.00    +0.000 OA
ATOM      6  C   UNL     1      -0.048  10.400  21.075  0.00  0.00    +0.000 A 
ATOM      7  C   UNL     1       0.821   9.337  21.388  0.00  0.00    +0.000 A 
ATOM      8  C   UNL     1       1.413   8.597  20.373  0.00  0.00    +0.000 A 
ATOM      9  C   UNL     1       1.153   8.936  19.052  0.00  0.00    +0.000 A 
ATOM     10  C   UNL     1       0.294  10.004  18.748  0.00  0.00    +0.000 A 
ATOM     11  C   UNL     1      -0.346  10.758  19.749  0.00  0.00    +0.000 A 
ENDROOT
BRANCH   3  12
ATOM     12  C   UNL     1      -2.397  12.850  22.952  0.00  0.00    +0.000 A 
ATOM     13  C   UNL     1      -1.949  14.079  23.458  0.00  0.00    +0.000 A 
ATOM     14  C   UNL     1      -2.550  14.630  24.588  0.00  0.00    +0.000 A 
ATOM     15  C   UNL     1      -3.599  13.958  25.215  0.00  0.00    +0.000 A 
ATOM     16  C   UNL     1      -4.073  12.756  24.691  0.00  0.00    +0.000 A 
ATOM     17  C   UNL     1      -3.481  12.205  23.556  0.00  0.00    +0.000 A 
ENDBRANCH   3  12
BRANCH   2  18
ATOM     18  N   UNL     1      -2.860  13.479  20.272  0.00  0.00    +0.000 N 
ATOM     19  C   UNL     1      -4.214  13.170  20.183  0.00  0.00    +0.000 C 
ATOM     20  O   UNL     1      -4.664  12.026  20.204  0.00  0.00    +0.000 OA
ATOM     21  H   UNL     1      -2.714  14.334  20.797  0.00  0.00    +0.000 HD
BRANCH  19  22
ATOM     22  C   UNL     1      -5.151  14.372  20.005  0.00  0.00    +0.000 C 
ATOM     23  C   UNL     1      -6.509  14.028  19.404  0.00  0.00    +0.000 C 
ATOM     24  C   UNL     1      -5.320  15.131  21.318  0.00  0.00    +0.000 C 
ENDBRANCH  19  22
ENDBRANCH   2  18
BRANCH   1  26
ATOM     25  C   UNL     1      -2.520  11.447  17.392  0.00  0.00    +0.000 C 
ATOM     26  C   UNL     1      -1.436  12.262  18.092  0.00  0.00    +0.000 C 
ENDBRANCH   1  26
TORSDOF 4
ENDMDL
