MODEL 1
REMARK VINA RESULT:      -8.4      0.000      0.000
REMARK  Name = 
REMARK  6 active torsions:
REMARK  status: ('A' for Active; 'I' for Inactive)
REMARK    1  A    between atoms: C_1  and  O_2
REMARK    2  A    between atoms: O_2  and  C_3
REMARK    3  A    between atoms: C_9  and  C_10
REMARK    4  A    between atoms: C_10  and  C_11
REMARK    5  A    between atoms: N_17  and  S_18
REMARK    6  A    between atoms: S_18  and  C_21
REMARK                            x       y       z     vdW  Elec       q    Type
REMARK                         _______ _______ _______ _____ _____    ______ ____
ROOT
ATOM      1  C   UNL     1       2.348   6.728  19.780  0.00  0.00    +0.000 C 
ATOM      2  C   UNL     1       1.165   5.975  20.414  0.00  0.00    +0.000 C 
ATOM      3  N   UNL     1       1.458   4.583  20.721  0.00  0.00    +0.000 N 
ATOM      4  C   UNL     1       1.426   3.725  19.628  0.00  0.00    +0.000 C 
ATOM      5  O   UNL     1       0.385   3.267  19.174  0.00  0.00    +0.000 OA
ATOM      6  C   UNL     1       2.789   3.472  18.999  0.00  0.00    +0.000 C 
ATOM      7  N   UNL     1       3.614   4.700  19.131  0.00  0.00    +0.000 N 
ATOM      8  C   UNL     1       3.093   5.949  18.691  0.00  0.00    +0.000 C 
ATOM      9  O   UNL     1       3.372   6.378  17.585  0.00  0.00    +0.000 OA
ATOM     10  H   UNL     1       2.286   4.479  21.299  0.00  0.00    +0.000 HD
ENDROOT
BRANCH   7  11
ATOM     11  S   UNL     1       5.289   4.473  19.082  0.00  0.00    +0.000 S 
ATOM     12  O   UNL     1       5.919   5.619  19.689  0.00  0.00    +0.000 OA
ATOM     13  O   UNL     1       5.545   3.145  19.610  0.00  0.00    +0.000 OA
BRANCH  11  14
ATOM     14  C   UNL     1       5.704   4.446  17.352  0.00  0.00    +0.000 A 
ATOM     15  C   UNL     1       6.837   5.126  16.893  0.00  0.00    +0.000 A 
ATOM     16  C   UNL     1       7.171   5.077  15.536  0.00  0.00    +0.000 A 
ATOM     17  C   UNL     1       6.385   4.335  14.653  0.00  0.00    +0.000 A 
ATOM     18 CL   UNL     1       6.777   4.301  12.978  0.00  0.00    +0.000 Cl
ATOM     19  C   UNL     1       5.283   3.617  15.119  0.00  0.00    +0.000 A 
ATOM     20  C   UNL     1       4.945   3.664  16.473  0.00  0.00    +0.000 A 
ENDBRANCH  11  14
ENDBRANCH   7  11
BRANCH   1  21
ATOM     21  C   UNL     1       1.990   8.172  19.368  0.00  0.00    +0.000 C 
BRANCH  21  28
ATOM     22  C   UNL     1       0.164   9.923  19.848  0.00  0.00    +0.000 A 
ATOM     23  C   UNL     1      -0.667  10.580  20.771  0.00  0.00    +0.000 A 
ATOM     24  C   UNL     1      -0.525  10.359  22.141  0.00  0.00    +0.000 A 
ATOM     25  C   UNL     1       0.437   9.472  22.589  0.00  0.00    +0.000 A 
ATOM     26  F   UNL     1       0.581   9.259  23.904  0.00  0.00    +0.000 F 
ATOM     27  C   UNL     1       1.239   8.782  21.691  0.00  0.00    +0.000 A 
ATOM     28  C   UNL     1       1.121   8.992  20.305  0.00  0.00    +0.000 A 
BRANCH  22  30
ATOM     29  C   UNL     1      -1.258  10.250  17.977  0.00  0.00    +0.000 C 
ATOM     30  O   UNL     1       0.067  10.104  18.490  0.00  0.00    +0.000 OA
ENDBRANCH  22  30
ENDBRANCH  21  28
ENDBRANCH   1  21
TORSDOF 5
ENDMDL
MODEL 2
REMARK VINA RESULT:      -7.5      5.191      9.524
REMARK  Name = 
REMARK  6 active torsions:
REMARK  status: ('A' for Active; 'I' for Inactive)
REMARK    1  A    between atoms: C_1  and  O_2
REMARK    2  A    between atoms: O_2  and  C_3
REMARK    3  A    between atoms: C_9  and  C_10
REMARK    4  A    between atoms: C_10  and  C_11
REMARK    5  A    between atoms: N_17  and  S_18
REMARK    6  A    between atoms: S_18  and  C_21
REMARK                            x       y       z     vdW  Elec       q    Type
REMARK                         _______ _______ _______ _____ _____    ______ ____
ROOT
ATOM      1  C   UNL     1       1.082   9.287  19.637  0.00  0.00    +0.000 C 
ATOM      2  C   UNL     1       0.719   9.044  18.161  0.00  0.00    +0.000 C 
ATOM      3  N   UNL     1       0.011  10.156  17.546  0.00  0.00    +0.000 N 
ATOM      4  C   UNL     1      -1.339  10.239  17.870  0.00  0.00    +0.000 C 
ATOM      5  O   UNL     1      -2.197   9.560  17.319  0.00  0.00    +0.000 OA
ATOM      6  C   UNL     1      -1.642  11.186  19.023  0.00  0.00    +0.000 C 
ATOM      7  N   UNL     1      -0.507  11.157  19.979  0.00  0.00    +0.000 N 
ATOM      8  C   UNL     1      -0.038   9.909  20.477  0.00  0.00    +0.000 C 
ATOM      9  O   UNL     1      -0.421   9.494  21.558  0.00  0.00    +0.000 OA
ATOM     10  H   UNL     1       0.509  11.035  17.641  0.00  0.00    +0.000 HD
ENDROOT
BRANCH   7  11
ATOM     11  S   UNL     1      -0.331  12.524  20.959  0.00  0.00    +0.000 S 
ATOM     12  O   UNL     1       0.704  12.257  21.926  0.00  0.00    +0.000 OA
ATOM     13  O   UNL     1      -0.211  13.663  20.068  0.00  0.00    +0.000 OA
BRANCH  11  14
ATOM     14  C   UNL     1      -1.883  12.683  21.817  0.00  0.00    +0.000 A 
ATOM     15  C   UNL     1      -2.959  13.332  21.202  0.00  0.00    +0.000 A 
ATOM     16  C   UNL     1      -4.182  13.429  21.873  0.00  0.00    +0.000 A 
ATOM     17  C   UNL     1      -4.329  12.860  23.139  0.00  0.00    +0.000 A 
ATOM     18 CL   UNL     1      -5.824  13.006  23.977  0.00  0.00    +0.000 Cl
ATOM     19  C   UNL     1      -3.270  12.170  23.731  0.00  0.00    +0.000 A 
ATOM     20  C   UNL     1      -2.046  12.071  23.065  0.00  0.00    +0.000 A 
ENDBRANCH  11  14
ENDBRANCH   7  11
BRANCH   1  21
ATOM     21  C   UNL     1       1.743   8.061  20.303  0.00  0.00    +0.000 C 
BRANCH  21  28
ATOM     22  C   UNL     1       2.188   5.636  19.560  0.00  0.00    +0.000 A 
ATOM     23  C   UNL     1       2.754   4.739  18.639  0.00  0.00    +0.000 A 
ATOM     24  C   UNL     1       3.565   5.201  17.601  0.00  0.00    +0.000 A 
ATOM     25  C   UNL     1       3.797   6.558  17.474  0.00  0.00    +0.000 A 
ATOM     26  F   UNL     1       4.577   7.007  16.482  0.00  0.00    +0.000 F 
ATOM     27  C   UNL     1       3.211   7.463  18.349  0.00  0.00    +0.000 A 
ATOM     28  C   UNL     1       2.397   7.023  19.408  0.00  0.00    +0.000 A 
BRANCH  22  30
ATOM     29  C   UNL     1       1.458   3.852  20.944  0.00  0.00    +0.000 C 
ATOM     30  O   UNL     1       1.384   5.235  20.599  0.00  0.00    +0.000 OA
ENDBRANCH  22  30
ENDBRANCH  21  28
ENDBRANCH   1  21
TORSDOF 5
ENDMDL
MODEL 3
REMARK VINA RESULT:      -7.5      1.163      1.535
REMARK  Name = 
REMARK  6 active torsions:
REMARK  status: ('A' for Active; 'I' for Inactive)
REMARK    1  A    between atoms: C_1  and  O_2
REMARK    2  A    between atoms: O_2  and  C_3
REMARK    3  A    between atoms: C_9  and  C_10
REMARK    4  A    between atoms: C_10  and  C_11
REMARK    5  A    between atoms: N_17  and  S_18
REMARK    6  A    between atoms: S_18  and  C_21
REMARK                            x       y       z     vdW  Elec       q    Type
REMARK                         _______ _______ _______ _____ _____    ______ ____
ROOT
ATOM      1  C   UNL     1       2.640   6.988  19.494  0.00  0.00    +0.000 C 
ATOM      2  C   UNL     1       1.886   6.096  20.496  0.00  0.00    +0.000 C 
ATOM      3  N   UNL     1       2.644   4.930  20.922  0.00  0.00    +0.000 N 
ATOM      4  C   UNL     1       2.672   3.885  20.006  0.00  0.00    +0.000 C 
ATOM      5  O   UNL     1       1.756   3.081  19.886  0.00  0.00    +0.000 OA
ATOM      6  C   UNL     1       3.903   3.879  19.110  0.00  0.00    +0.000 C 
ATOM      7  N   UNL     1       4.322   5.282  18.861  0.00  0.00    +0.000 N 
ATOM      8  C   UNL     1       3.370   6.226  18.383  0.00  0.00    +0.000 C 
ATOM      9  O   UNL     1       3.292   6.473  17.192  0.00  0.00    +0.000 OA
ATOM     10  H   UNL     1       3.557   5.173  21.293  0.00  0.00    +0.000 HD
ENDROOT
BRANCH   7  11
ATOM     11  S   UNL     1       5.945   5.506  18.444  0.00  0.00    +0.000 S 
ATOM     12  O   UNL     1       6.221   6.921  18.441  0.00  0.00    +0.000 OA
ATOM     13  O   UNL     1       6.720   4.622  19.296  0.00  0.00    +0.000 OA
BRANCH  11  14
ATOM     14  C   UNL     1       6.086   4.895  16.778  0.00  0.00    +0.000 A 
ATOM     15  C   UNL     1       5.284   3.830  16.353  0.00  0.00    +0.000 A 
ATOM     16  C   UNL     1       5.382   3.375  15.034  0.00  0.00    +0.000 A 
ATOM     17  C   UNL     1       6.261   3.997  14.147  0.00  0.00    +0.000 A 
ATOM     18 CL   UNL     1       6.405   3.416  12.534  0.00  0.00    +0.000 Cl
ATOM     19  C   UNL     1       7.025   5.090  14.558  0.00  0.00    +0.000 A 
ATOM     20  C   UNL     1       6.932   5.548  15.874  0.00  0.00    +0.000 A 
ENDBRANCH  11  14
ENDBRANCH   7  11
BRANCH   1  21
ATOM     21  C   UNL     1       1.786   8.164  18.975  0.00  0.00    +0.000 C 
BRANCH  21  28
ATOM     22  C   UNL     1       1.086  10.524  19.731  0.00  0.00    +0.000 A 
ATOM     23  C   UNL     1       0.471  11.355  20.682  0.00  0.00    +0.000 A 
ATOM     24  C   UNL     1       0.033  10.839  21.902  0.00  0.00    +0.000 A 
ATOM     25  C   UNL     1       0.195   9.492  22.167  0.00  0.00    +0.000 A 
ATOM     26  F   UNL     1      -0.219   8.991  23.338  0.00  0.00    +0.000 F 
ATOM     27  C   UNL     1       0.763   8.647  21.223  0.00  0.00    +0.000 A 
ATOM     28  C   UNL     1       1.220   9.143  19.988  0.00  0.00    +0.000 A 
BRANCH  22  30
ATOM     29  C   UNL     1       1.994  12.332  18.491  0.00  0.00    +0.000 C 
ATOM     30  O   UNL     1       1.536  10.980  18.516  0.00  0.00    +0.000 OA
ENDBRANCH  22  30
ENDBRANCH  21  28
ENDBRANCH   1  21
TORSDOF 5
ENDMDL
MODEL 4
REMARK VINA RESULT:      -7.5      4.179      8.558
REMARK  Name = 
REMARK  6 active torsions:
REMARK  status: ('A' for Active; 'I' for Inactive)
REMARK    1  A    between atoms: C_1  and  O_2
REMARK    2  A    between atoms: O_2  and  C_3
REMARK    3  A    between atoms: C_9  and  C_10
REMARK    4  A    between atoms: C_10  and  C_11
REMARK    5  A    between atoms: N_17  and  S_18
REMARK    6  A    between atoms: S_18  and  C_21
REMARK                            x       y       z     vdW  Elec       q    Type
REMARK                         _______ _______ _______ _____ _____    ______ ____
ROOT
ATOM      1  C   UNL     1       5.383   5.000  16.144  0.00  0.00    +0.000 C 
ATOM      2  C   UNL     1       6.723   4.462  16.677  0.00  0.00    +0.000 C 
ATOM      3  N   UNL     1       6.650   3.969  18.044  0.00  0.00    +0.000 N 
ATOM      4  C   UNL     1       6.651   4.957  19.022  0.00  0.00    +0.000 C 
ATOM      5  O   UNL     1       7.676   5.502  19.413  0.00  0.00    +0.000 OA
ATOM      6  C   UNL     1       5.263   5.358  19.500  0.00  0.00    +0.000 C 
ATOM      7  N   UNL     1       4.313   5.244  18.365  0.00  0.00    +0.000 N 
ATOM      8  C   UNL     1       4.611   5.883  17.130  0.00  0.00    +0.000 C 
ATOM      9  O   UNL     1       4.142   6.979  16.874  0.00  0.00    +0.000 OA
ATOM     10  H   UNL     1       5.922   3.272  18.168  0.00  0.00    +0.000 HD
ENDROOT
BRANCH   7  11
ATOM     11  S   UNL     1       2.687   5.032  18.781  0.00  0.00    +0.000 S 
ATOM     12  O   UNL     1       1.952   4.709  17.584  0.00  0.00    +0.000 OA
ATOM     13  O   UNL     1       2.662   4.121  19.911  0.00  0.00    +0.000 OA
BRANCH  11  14
ATOM     14  C   UNL     1       2.147   6.623  19.369  0.00  0.00    +0.000 A 
ATOM     15  C   UNL     1       2.093   7.711  18.492  0.00  0.00    +0.000 A 
ATOM     16  C   UNL     1       1.641   8.951  18.956  0.00  0.00    +0.000 A 
ATOM     17  C   UNL     1       1.230   9.090  20.281  0.00  0.00    +0.000 A 
ATOM     18 CL   UNL     1       0.705  10.622  20.860  0.00  0.00    +0.000 Cl
ATOM     19  C   UNL     1       1.238   7.992  21.143  0.00  0.00    +0.000 A 
ATOM     20  C   UNL     1       1.689   6.752  20.685  0.00  0.00    +0.000 A 
ENDBRANCH  11  14
ENDBRANCH   7  11
BRANCH   1  21
ATOM     21  C   UNL     1       5.500   5.611  14.731  0.00  0.00    +0.000 C 
BRANCH  21  28
ATOM     22  C   UNL     1       7.277   4.664  13.126  0.00  0.00    +0.000 A 
ATOM     23  C   UNL     1       7.636   3.740  12.130  0.00  0.00    +0.000 A 
ATOM     24  C   UNL     1       6.680   2.898  11.561  0.00  0.00    +0.000 A 
ATOM     25  C   UNL     1       5.370   2.968  11.997  0.00  0.00    +0.000 A 
ATOM     26  F   UNL     1       4.447   2.164  11.452  0.00  0.00    +0.000 F 
ATOM     27  C   UNL     1       5.004   3.844  13.010  0.00  0.00    +0.000 A 
ATOM     28  C   UNL     1       5.947   4.710  13.594  0.00  0.00    +0.000 A 
BRANCH  22  30
ATOM     29  C   UNL     1       9.128   6.122  12.842  0.00  0.00    +0.000 C 
ATOM     30  O   UNL     1       8.177   5.516  13.718  0.00  0.00    +0.000 OA
ENDBRANCH  22  30
ENDBRANCH  21  28
ENDBRANCH   1  21
TORSDOF 5
ENDMDL
MODEL 5
REMARK VINA RESULT:      -7.5      4.794      8.888
REMARK  Name = 
REMARK  6 active torsions:
REMARK  status: ('A' for Active; 'I' for Inactive)
REMARK    1  A    between atoms: C_1  and  O_2
REMARK    2  A    between atoms: O_2  and  C_3
REMARK    3  A    between atoms: C_9  and  C_10
REMARK    4  A    between atoms: C_10  and  C_11
REMARK    5  A    between atoms: N_17  and  S_18
REMARK    6  A    between atoms: S_18  and  C_21
REMARK                            x       y       z     vdW  Elec       q    Type
REMARK                         _______ _______ _______ _____ _____    ______ ____
ROOT
ATOM      1  C   UNL     1       0.756   8.874  20.375  0.00  0.00    +0.000 C 
ATOM      2  C   UNL     1       0.278   8.817  21.837  0.00  0.00    +0.000 C 
ATOM      3  N   UNL     1      -0.933   9.585  22.083  0.00  0.00    +0.000 N 
ATOM      4  C   UNL     1      -0.740  10.958  22.195  0.00  0.00    +0.000 C 
ATOM      5  O   UNL     1      -0.349  11.492  23.225  0.00  0.00    +0.000 OA
ATOM      6  C   UNL     1      -0.978  11.724  20.901  0.00  0.00    +0.000 C 
ATOM      7  N   UNL     1      -0.577  10.868  19.756  0.00  0.00    +0.000 N 
ATOM      8  C   UNL     1       0.713  10.269  19.742  0.00  0.00    +0.000 C 
ATOM      9  O   UNL     1       1.631  10.796  19.137  0.00  0.00    +0.000 OA
ATOM     10  H   UNL     1      -1.691   9.328  21.459  0.00  0.00    +0.000 HD
ENDROOT
BRANCH   7  11
ATOM     11  S   UNL     1      -1.303  11.233  18.272  0.00  0.00    +0.000 S 
ATOM     12  O   UNL     1      -0.820  12.519  17.836  0.00  0.00    +0.000 OA
ATOM     13  O   UNL     1      -1.125  10.069  17.424  0.00  0.00    +0.000 OA
BRANCH  11  14
ATOM     14  C   UNL     1      -3.042  11.369  18.627  0.00  0.00    +0.000 A 
ATOM     15  C   UNL     1      -3.499  12.342  19.523  0.00  0.00    +0.000 A 
ATOM     16  C   UNL     1      -4.870  12.460  19.775  0.00  0.00    +0.000 A 
ATOM     17  C   UNL     1      -5.773  11.622  19.119  0.00  0.00    +0.000 A 
ATOM     18 CL   UNL     1      -7.455  11.746  19.453  0.00  0.00    +0.000 Cl
ATOM     19  C   UNL     1      -5.320  10.684  18.189  0.00  0.00    +0.000 A 
ATOM     20  C   UNL     1      -3.952  10.562  17.934  0.00  0.00    +0.000 A 
ENDBRANCH  11  14
ENDBRANCH   7  11
BRANCH   1  21
ATOM     21  C   UNL     1       2.095   8.138  20.151  0.00  0.00    +0.000 C 
BRANCH  21  28
ATOM     22  C   UNL     1       2.633   6.244  18.491  0.00  0.00    +0.000 A 
ATOM     23  C   UNL     1       2.632   4.875  18.180  0.00  0.00    +0.000 A 
ATOM     24  C   UNL     1       2.017   3.951  19.026  0.00  0.00    +0.000 A 
ATOM     25  C   UNL     1       1.417   4.394  20.190  0.00  0.00    +0.000 A 
ATOM     26  F   UNL     1       0.821   3.513  21.005  0.00  0.00    +0.000 F 
ATOM     27  C   UNL     1       1.445   5.738  20.537  0.00  0.00    +0.000 A 
ATOM     28  C   UNL     1       2.050   6.690  19.697  0.00  0.00    +0.000 A 
BRANCH  22  30
ATOM     29  C   UNL     1       4.482   6.833  17.126  0.00  0.00    +0.000 C 
ATOM     30  O   UNL     1       3.222   7.194  17.694  0.00  0.00    +0.000 OA
ENDBRANCH  22  30
ENDBRANCH  21  28
ENDBRANCH   1  21
TORSDOF 5
ENDMDL
MODEL 6
REMARK VINA RESULT:      -7.4      1.645      2.280
REMARK  Name = 
REMARK  6 active torsions:
REMARK  status: ('A' for Active; 'I' for Inactive)
REMARK    1  A    between atoms: C_1  and  O_2
REMARK    2  A    between atoms: O_2  and  C_3
REMARK    3  A    between atoms: C_9  and  C_10
REMARK    4  A    between atoms: C_10  and  C_11
REMARK    5  A    between atoms: N_17  and  S_18
REMARK    6  A    between atoms: S_18  and  C_21
REMARK                            x       y       z     vdW  Elec       q    Type
REMARK                         _______ _______ _______ _____ _____    ______ ____
ROOT
ATOM      1  C   UNL     1       2.707   7.169  19.433  0.00  0.00    +0.000 C 
ATOM      2  C   UNL     1       1.478   6.653  20.203  0.00  0.00    +0.000 C 
ATOM      3  N   UNL     1       1.639   5.302  20.718  0.00  0.00    +0.000 N 
ATOM      4  C   UNL     1       1.477   4.295  19.774  0.00  0.00    +0.000 C 
ATOM      5  O   UNL     1       0.378   3.887  19.419  0.00  0.00    +0.000 OA
ATOM      6  C   UNL     1       2.781   3.804  19.162  0.00  0.00    +0.000 C 
ATOM      7  N   UNL     1       3.732   4.941  19.082  0.00  0.00    +0.000 N 
ATOM      8  C   UNL     1       3.326   6.157  18.463  0.00  0.00    +0.000 C 
ATOM      9  O   UNL     1       3.605   6.378  17.298  0.00  0.00    +0.000 OA
ATOM     10  H   UNL     1       2.473   5.199  21.287  0.00  0.00    +0.000 HD
ENDROOT
BRANCH   7  11
ATOM     11  S   UNL     1       5.372   4.531  19.032  0.00  0.00    +0.000 S 
ATOM     12  O   UNL     1       6.124   5.597  19.646  0.00  0.00    +0.000 OA
ATOM     13  O   UNL     1       5.480   3.180  19.552  0.00  0.00    +0.000 OA
BRANCH  11  14
ATOM     14  C   UNL     1       5.784   4.469  17.302  0.00  0.00    +0.000 A 
ATOM     15  C   UNL     1       6.891   5.176  16.820  0.00  0.00    +0.000 A 
ATOM     16  C   UNL     1       7.222   5.099  15.463  0.00  0.00    +0.000 A 
ATOM     17  C   UNL     1       6.461   4.305  14.604  0.00  0.00    +0.000 A 
ATOM     18 CL   UNL     1       6.850   4.237  12.930  0.00  0.00    +0.000 Cl
ATOM     19  C   UNL     1       5.387   3.562  15.095  0.00  0.00    +0.000 A 
ATOM     20  C   UNL     1       5.051   3.635  16.449  0.00  0.00    +0.000 A 
ENDBRANCH  11  14
ENDBRANCH   7  11
BRANCH   1  21
ATOM     21  C   UNL     1       2.484   8.563  18.808  0.00  0.00    +0.000 C 
BRANCH  21  28
ATOM     22  C   UNL     1       0.604   9.737  20.118  0.00  0.00    +0.000 A 
ATOM     23  C   UNL     1      -0.645  10.379  20.124  0.00  0.00    +0.000 A 
ATOM     24  C   UNL     1      -1.423  10.437  18.967  0.00  0.00    +0.000 A 
ATOM     25  C   UNL     1      -0.947   9.867  17.801  0.00  0.00    +0.000 A 
ATOM     26  F   UNL     1      -1.690   9.915  16.688  0.00  0.00    +0.000 F 
ATOM     27  C   UNL     1       0.304   9.266  17.765  0.00  0.00    +0.000 A 
ATOM     28  C   UNL     1       1.104   9.187  18.919  0.00  0.00    +0.000 A 
BRANCH  22  30
ATOM     29  C   UNL     1       0.733   9.474  22.473  0.00  0.00    +0.000 C 
ATOM     30  O   UNL     1       1.409   9.652  21.228  0.00  0.00    +0.000 OA
ENDBRANCH  22  30
ENDBRANCH  21  28
ENDBRANCH   1  21
TORSDOF 5
ENDMDL
MODEL 7
REMARK VINA RESULT:      -7.4      4.819      8.520
REMARK  Name = 
REMARK  6 active torsions:
REMARK  status: ('A' for Active; 'I' for Inactive)
REMARK    1  A    between atoms: C_1  and  O_2
REMARK    2  A    between atoms: O_2  and  C_3
REMARK    3  A    between atoms: C_9  and  C_10
REMARK    4  A    between atoms: C_10  and  C_11
REMARK    5  A    between atoms: N_17  and  S_18
REMARK    6  A    between atoms: S_18  and  C_21
REMARK                            x       y       z     vdW  Elec       q    Type
REMARK                         _______ _______ _______ _____ _____    ______ ____
ROOT
ATOM      1  C   UNL     1       1.095   9.207  19.632  0.00  0.00    +0.000 C 
ATOM      2  C   UNL     1       0.766   8.999  18.143  0.00  0.00    +0.000 C 
ATOM      3  N   UNL     1       0.075  10.128  17.537  0.00  0.00    +0.000 N 
ATOM      4  C   UNL     1      -1.281  10.208  17.830  0.00  0.00    +0.000 C 
ATOM      5  O   UNL     1      -2.128   9.545  17.244  0.00  0.00    +0.000 OA
ATOM      6  C   UNL     1      -1.609  11.129  18.997  0.00  0.00    +0.000 C 
ATOM      7  N   UNL     1      -0.497  11.074  19.979  0.00  0.00    +0.000 N 
ATOM      8  C   UNL     1      -0.043   9.814  20.460  0.00  0.00    +0.000 C 
ATOM      9  O   UNL     1      -0.453   9.375  21.521  0.00  0.00    +0.000 OA
ATOM     10  H   UNL     1       0.574  11.003  17.663  0.00  0.00    +0.000 HD
ENDROOT
BRANCH   7  11
ATOM     11  S   UNL     1      -0.341  12.418  20.994  0.00  0.00    +0.000 S 
ATOM     12  O   UNL     1      -1.658  12.939  21.260  0.00  0.00    +0.000 OA
ATOM     13  O   UNL     1       0.510  12.010  22.097  0.00  0.00    +0.000 OA
BRANCH  11  14
ATOM     14  C   UNL     1       0.564  13.618  20.041  0.00  0.00    +0.000 A 
ATOM     15  C   UNL     1      -0.089  14.747  19.537  0.00  0.00    +0.000 A 
ATOM     16  C   UNL     1       0.635  15.699  18.812  0.00  0.00    +0.000 A 
ATOM     17  C   UNL     1       2.006  15.527  18.613  0.00  0.00    +0.000 A 
ATOM     18 CL   UNL     1       2.891  16.680  17.694  0.00  0.00    +0.000 Cl
ATOM     19  C   UNL     1       2.666  14.424  19.157  0.00  0.00    +0.000 A 
ATOM     20  C   UNL     1       1.947  13.471  19.882  0.00  0.00    +0.000 A 
ENDBRANCH  11  14
ENDBRANCH   7  11
BRANCH   1  21
ATOM     21  C   UNL     1       1.735   7.964  20.285  0.00  0.00    +0.000 C 
BRANCH  21  28
ATOM     22  C   UNL     1       2.194   5.549  19.519  0.00  0.00    +0.000 A 
ATOM     23  C   UNL     1       2.767   4.665  18.590  0.00  0.00    +0.000 A 
ATOM     24  C   UNL     1       3.578   5.140  17.559  0.00  0.00    +0.000 A 
ATOM     25  C   UNL     1       3.805   6.500  17.447  0.00  0.00    +0.000 A 
ATOM     26  F   UNL     1       4.585   6.963  16.462  0.00  0.00    +0.000 F 
ATOM     27  C   UNL     1       3.212   7.393  18.329  0.00  0.00    +0.000 A 
ATOM     28  C   UNL     1       2.397   6.938  19.382  0.00  0.00    +0.000 A 
BRANCH  22  30
ATOM     29  C   UNL     1       1.121   3.732  20.605  0.00  0.00    +0.000 C 
ATOM     30  O   UNL     1       1.389   5.134  20.551  0.00  0.00    +0.000 OA
ENDBRANCH  22  30
ENDBRANCH  21  28
ENDBRANCH   1  21
TORSDOF 5
ENDMDL
MODEL 8
REMARK VINA RESULT:      -7.4      4.543      8.694
REMARK  Name = 
REMARK  6 active torsions:
REMARK  status: ('A' for Active; 'I' for Inactive)
REMARK    1  A    between atoms: C_1  and  O_2
REMARK    2  A    between atoms: O_2  and  C_3
REMARK    3  A    between atoms: C_9  and  C_10
REMARK    4  A    between atoms: C_10  and  C_11
REMARK    5  A    between atoms: N_17  and  S_18
REMARK    6  A    between atoms: S_18  and  C_21
REMARK                            x       y       z     vdW  Elec       q    Type
REMARK                         _______ _______ _______ _____ _____    ______ ____
ROOT
ATOM      1  C   UNL     1       1.798   8.155  18.878  0.00  0.00    +0.000 C 
ATOM      2  C   UNL     1       1.979   7.547  20.280  0.00  0.00    +0.000 C 
ATOM      3  N   UNL     1       0.948   7.947  21.225  0.00  0.00    +0.000 N 
ATOM      4  C   UNL     1       1.104   9.224  21.753  0.00  0.00    +0.000 C 
ATOM      5  O   UNL     1       1.865   9.470  22.681  0.00  0.00    +0.000 OA
ATOM      6  C   UNL     1       0.310  10.298  21.023  0.00  0.00    +0.000 C 
ATOM      7  N   UNL     1       0.234   9.943  19.583  0.00  0.00    +0.000 N 
ATOM      8  C   UNL     1       1.428   9.642  18.869  0.00  0.00    +0.000 C 
ATOM      9  O   UNL     1       1.981  10.501  18.204  0.00  0.00    +0.000 OA
ATOM     10  H   UNL     1       0.011   7.758  20.883  0.00  0.00    +0.000 HD
ENDROOT
BRANCH   7  11
ATOM     11  S   UNL     1      -1.062  10.609  18.726  0.00  0.00    +0.000 S 
ATOM     12  O   UNL     1      -0.817  10.422  17.318  0.00  0.00    +0.000 OA
ATOM     13  O   UNL     1      -2.274  10.079  19.324  0.00  0.00    +0.000 OA
BRANCH  11  14
ATOM     14  C   UNL     1      -1.011  12.351  19.086  0.00  0.00    +0.000 A 
ATOM     15  C   UNL     1      -1.815  12.880  20.102  0.00  0.00    +0.000 A 
ATOM     16  C   UNL     1      -1.748  14.246  20.395  0.00  0.00    +0.000 A 
ATOM     17  C   UNL     1      -0.869  15.067  19.690  0.00  0.00    +0.000 A 
ATOM     18 CL   UNL     1      -0.810  16.752  20.029  0.00  0.00    +0.000 Cl
ATOM     19  C   UNL     1      -0.032  14.531  18.710  0.00  0.00    +0.000 A 
ATOM     20  C   UNL     1      -0.095  13.167  18.412  0.00  0.00    +0.000 A 
ENDBRANCH  11  14
ENDBRANCH   7  11
BRANCH   1  21
ATOM     21  C   UNL     1       2.952   7.803  17.916  0.00  0.00    +0.000 C 
BRANCH  21  28
ATOM     22  C   UNL     1       4.579   5.876  17.395  0.00  0.00    +0.000 A 
ATOM     23  C   UNL     1       4.823   4.496  17.291  0.00  0.00    +0.000 A 
ATOM     24  C   UNL     1       3.783   3.576  17.427  0.00  0.00    +0.000 A 
ATOM     25  C   UNL     1       2.503   4.031  17.684  0.00  0.00    +0.000 A 
ATOM     26  F   UNL     1       1.500   3.153  17.812  0.00  0.00    +0.000 F 
ATOM     27  C   UNL     1       2.250   5.388  17.833  0.00  0.00    +0.000 A 
ATOM     28  C   UNL     1       3.279   6.337  17.692  0.00  0.00    +0.000 A 
BRANCH  22  30
ATOM     29  C   UNL     1       6.899   6.365  17.491  0.00  0.00    +0.000 C 
ATOM     30  O   UNL     1       5.564   6.823  17.269  0.00  0.00    +0.000 OA
ENDBRANCH  22  30
ENDBRANCH  21  28
ENDBRANCH   1  21
TORSDOF 5
ENDMDL
MODEL 9
REMARK VINA RESULT:      -7.4      4.665      8.126
REMARK  Name = 
REMARK  6 active torsions:
REMARK  status: ('A' for Active; 'I' for Inactive)
REMARK    1  A    between atoms: C_1  and  O_2
REMARK    2  A    between atoms: O_2  and  C_3
REMARK    3  A    between atoms: C_9  and  C_10
REMARK    4  A    between atoms: C_10  and  C_11
REMARK    5  A    between atoms: N_17  and  S_18
REMARK    6  A    between atoms: S_18  and  C_21
REMARK                            x       y       z     vdW  Elec       q    Type
REMARK                         _______ _______ _______ _____ _____    ______ ____
ROOT
ATOM      1  C   UNL     1       1.071   9.311  19.534  0.00  0.00    +0.000 C 
ATOM      2  C   UNL     1       0.547   9.004  18.120  0.00  0.00    +0.000 C 
ATOM      3  N   UNL     1      -0.159  10.119  17.507  0.00  0.00    +0.000 N 
ATOM      4  C   UNL     1      -1.462  10.302  17.956  0.00  0.00    +0.000 C 
ATOM      5  O   UNL     1      -2.407   9.645  17.538  0.00  0.00    +0.000 OA
ATOM      6  C   UNL     1      -1.595  11.332  19.070  0.00  0.00    +0.000 C 
ATOM      7  N   UNL     1      -0.371  11.290  19.910  0.00  0.00    +0.000 N 
ATOM      8  C   UNL     1       0.078  10.048  20.439  0.00  0.00    +0.000 C 
ATOM      9  O   UNL     1      -0.215   9.721  21.576  0.00  0.00    +0.000 OA
ATOM     10  H   UNL     1       0.393  10.971  17.496  0.00  0.00    +0.000 HD
ENDROOT
BRANCH   7  11
ATOM     11  S   UNL     1      -0.023  12.699  20.778  0.00  0.00    +0.000 S 
ATOM     12  O   UNL     1      -1.122  13.617  20.610  0.00  0.00    +0.000 OA
ATOM     13  O   UNL     1       0.371  12.281  22.111  0.00  0.00    +0.000 OA
BRANCH  11  14
ATOM     14  C   UNL     1       1.417  13.387  19.989  0.00  0.00    +0.000 A 
ATOM     15  C   UNL     1       2.329  14.143  20.734  0.00  0.00    +0.000 A 
ATOM     16  C   UNL     1       3.471  14.656  20.112  0.00  0.00    +0.000 A 
ATOM     17  C   UNL     1       3.705  14.396  18.762  0.00  0.00    +0.000 A 
ATOM     18 CL   UNL     1       5.094  15.054  17.989  0.00  0.00    +0.000 Cl
ATOM     19  C   UNL     1       2.820  13.601  18.031  0.00  0.00    +0.000 A 
ATOM     20  C   UNL     1       1.677  13.087  18.647  0.00  0.00    +0.000 A 
ENDBRANCH  11  14
ENDBRANCH   7  11
BRANCH   1  21
ATOM     21  C   UNL     1       1.729   8.089  20.210  0.00  0.00    +0.000 C 
BRANCH  21  28
ATOM     22  C   UNL     1       2.262   5.673  19.495  0.00  0.00    +0.000 A 
ATOM     23  C   UNL     1       2.860   4.788  18.584  0.00  0.00    +0.000 A 
ATOM     24  C   UNL     1       3.652   5.266  17.539  0.00  0.00    +0.000 A 
ATOM     25  C   UNL     1       3.834   6.629  17.396  0.00  0.00    +0.000 A 
ATOM     26  F   UNL     1       4.597   7.095  16.399  0.00  0.00    +0.000 F 
ATOM     27  C   UNL     1       3.216   7.523  18.261  0.00  0.00    +0.000 A 
ATOM     28  C   UNL     1       2.420   7.065  19.327  0.00  0.00    +0.000 A 
BRANCH  22  30
ATOM     29  C   UNL     1       1.040   3.896  20.485  0.00  0.00    +0.000 C 
ATOM     30  O   UNL     1       1.474   5.256  20.539  0.00  0.00    +0.000 OA
ENDBRANCH  22  30
ENDBRANCH  21  28
ENDBRANCH   1  21
TORSDOF 5
ENDMDL
