MODEL 1
REMARK VINA RESULT:      -8.6      0.000      0.000
REMARK  Name = 
REMARK  5 active torsions:
REMARK  status: ('A' for Active; 'I' for Inactive)
REMARK    1  A    between atoms: C_1  and  C_2
REMARK    2  A    between atoms: C_10  and  C_11
REMARK    3  A    between atoms: N_13  and  S_14
REMARK    4  A    between atoms: S_14  and  N_17
REMARK    5  A    between atoms: N_17  and  C_18
REMARK                            x       y       z     vdW  Elec       q    Type
REMARK                         _______ _______ _______ _____ _____    ______ ____
ROOT
ATOM      1  C   UNL     1       4.740   3.856  16.621  0.00  0.00    +0.000 C 
ATOM      2  O   UNL     1       3.688   3.670  16.028  0.00  0.00    +0.000 OA
ATOM      3  N   UNL     1       4.953   3.444  17.935  0.00  0.00    +0.000 N 
ATOM      4  H   UNL     1       5.871   3.476  18.351  0.00  0.00    +0.000 HD
ENDROOT
BRANCH   1  14
ATOM      5  C   UNL     1       7.002   6.083  17.706  0.00  0.00    +0.000 C 
ATOM      6  C   UNL     1       6.809   5.402  16.397  0.00  0.00    +0.000 A 
ATOM      7  N   UNL     1       7.610   5.748  15.329  0.00  0.00    +0.000 N 
ATOM      8  C   UNL     1       7.250   5.061  14.197  0.00  0.00    +0.000 A 
ATOM      9  C   UNL     1       7.779   5.111  12.901  0.00  0.00    +0.000 A 
ATOM     10  C   UNL     1       7.199   4.288  11.931  0.00  0.00    +0.000 A 
ATOM     11  C   UNL     1       6.130   3.455  12.245  0.00  0.00    +0.000 A 
ATOM     12  C   UNL     1       5.611   3.428  13.541  0.00  0.00    +0.000 A 
ATOM     13  C   UNL     1       6.178   4.247  14.544  0.00  0.00    +0.000 A 
ATOM     14  C   UNL     1       5.879   4.473  15.937  0.00  0.00    +0.000 A 
ATOM     15  H   UNL     1       8.343   6.445  15.352  0.00  0.00    +0.000 HD
ENDBRANCH   1  14
BRANCH   3  16
ATOM     16  S   UNL     1       3.818   2.669  18.847  0.00  0.00    +0.000 S 
ATOM     17  O   UNL     1       3.627   1.370  18.247  0.00  0.00    +0.000 OA
ATOM     18  O   UNL     1       4.055   2.786  20.264  0.00  0.00    +0.000 OA
BRANCH  16  19
ATOM     19  N   UNL     1       2.410   3.536  18.484  0.00  0.00    +0.000 N 
ATOM     20  H   UNL     1       1.635   2.917  18.744  0.00  0.00    +0.000 HD
BRANCH  19  21
ATOM     21  C   UNL     1       2.267   4.833  19.071  0.00  0.00    +0.000 A 
ATOM     22  C   UNL     1       1.692   4.936  20.342  0.00  0.00    +0.000 A 
ATOM     23  C   UNL     1       1.503   6.189  20.924  0.00  0.00    +0.000 A 
ATOM     24  C   UNL     1       1.900   7.328  20.234  0.00  0.00    +0.000 A 
ATOM     25  F   UNL     1       1.728   8.531  20.797  0.00  0.00    +0.000 F 
ATOM     26  C   UNL     1       2.475   7.237  18.969  0.00  0.00    +0.000 A 
ATOM     27  C   UNL     1       2.649   5.982  18.378  0.00  0.00    +0.000 A 
ENDBRANCH  19  21
ENDBRANCH  16  19
ENDBRANCH   3  16
TORSDOF 4
ENDMDL
MODEL 2
REMARK VINA RESULT:      -8.5      3.376      6.884
REMARK  Name = 
REMARK  5 active torsions:
REMARK  status: ('A' for Active; 'I' for Inactive)
REMARK    1  A    between atoms: C_1  and  C_2
REMARK    2  A    between atoms: C_10  and  C_11
REMARK    3  A    between atoms: N_13  and  S_14
REMARK    4  A    between atoms: S_14  and  N_17
REMARK    5  A    between atoms: N_17  and  C_18
REMARK                            x       y       z     vdW  Elec       q    Type
REMARK                         _______ _______ _______ _____ _____    ______ ____
ROOT
ATOM      1  C   UNL     1       4.513   5.988  17.804  0.00  0.00    +0.000 C 
ATOM      2  O   UNL     1       4.541   7.056  17.210  0.00  0.00    +0.000 OA
ATOM      3  N   UNL     1       5.633   5.170  17.947  0.00  0.00    +0.000 N 
ATOM      4  H   UNL     1       5.621   4.372  18.563  0.00  0.00    +0.000 HD
ENDROOT
BRANCH   1  14
ATOM      5  C   UNL     1       2.397   7.632  19.822  0.00  0.00    +0.000 C 
ATOM      6  C   UNL     1       2.419   6.235  19.313  0.00  0.00    +0.000 A 
ATOM      7  N   UNL     1       1.481   5.332  19.769  0.00  0.00    +0.000 N 
ATOM      8  C   UNL     1       1.692   4.086  19.236  0.00  0.00    +0.000 A 
ATOM      9  C   UNL     1       0.995   2.887  19.433  0.00  0.00    +0.000 A 
ATOM     10  C   UNL     1       1.448   1.753  18.752  0.00  0.00    +0.000 A 
ATOM     11  C   UNL     1       2.556   1.817  17.913  0.00  0.00    +0.000 A 
ATOM     12  C   UNL     1       3.244   3.020  17.739  0.00  0.00    +0.000 A 
ATOM     13  C   UNL     1       2.808   4.183  18.413  0.00  0.00    +0.000 A 
ATOM     14  C   UNL     1       3.288   5.543  18.472  0.00  0.00    +0.000 A 
ATOM     15  H   UNL     1       0.752   5.539  20.438  0.00  0.00    +0.000 HD
ENDBRANCH   1  14
BRANCH   3  16
ATOM     16  S   UNL     1       7.118   5.534  17.329  0.00  0.00    +0.000 S 
ATOM     17  O   UNL     1       7.614   6.657  18.088  0.00  0.00    +0.000 OA
ATOM     18  O   UNL     1       7.946   4.372  17.126  0.00  0.00    +0.000 OA
BRANCH  16  19
ATOM     19  N   UNL     1       6.730   6.165  15.806  0.00  0.00    +0.000 N 
ATOM     20  H   UNL     1       7.469   6.844  15.597  0.00  0.00    +0.000 HD
BRANCH  19  21
ATOM     21  C   UNL     1       6.552   5.234  14.734  0.00  0.00    +0.000 A 
ATOM     22  C   UNL     1       7.525   5.173  13.730  0.00  0.00    +0.000 A 
ATOM     23  C   UNL     1       7.361   4.305  12.651  0.00  0.00    +0.000 A 
ATOM     24  C   UNL     1       6.232   3.496  12.592  0.00  0.00    +0.000 A 
ATOM     25  F   UNL     1       6.080   2.654  11.562  0.00  0.00    +0.000 F 
ATOM     26  C   UNL     1       5.260   3.548  13.587  0.00  0.00    +0.000 A 
ATOM     27  C   UNL     1       5.414   4.431  14.660  0.00  0.00    +0.000 A 
ENDBRANCH  19  21
ENDBRANCH  16  19
ENDBRANCH   3  16
TORSDOF 4
ENDMDL
MODEL 3
REMARK VINA RESULT:      -8.4      3.323      7.316
REMARK  Name = 
REMARK  5 active torsions:
REMARK  status: ('A' for Active; 'I' for Inactive)
REMARK    1  A    between atoms: C_1  and  C_2
REMARK    2  A    between atoms: C_10  and  C_11
REMARK    3  A    between atoms: N_13  and  S_14
REMARK    4  A    between atoms: S_14  and  N_17
REMARK    5  A    between atoms: N_17  and  C_18
REMARK                            x       y       z     vdW  Elec       q    Type
REMARK                         _______ _______ _______ _____ _____    ______ ____
ROOT
ATOM      1  C   UNL     1       5.381   5.315  18.837  0.00  0.00    +0.000 C 
ATOM      2  O   UNL     1       6.135   4.980  19.739  0.00  0.00    +0.000 OA
ATOM      3  N   UNL     1       5.823   5.599  17.545  0.00  0.00    +0.000 N 
ATOM      4  H   UNL     1       5.172   5.728  16.787  0.00  0.00    +0.000 HD
ENDROOT
BRANCH   1  14
ATOM      5  C   UNL     1       3.108   7.622  17.962  0.00  0.00    +0.000 C 
ATOM      6  C   UNL     1       3.000   6.331  18.693  0.00  0.00    +0.000 A 
ATOM      7  N   UNL     1       1.788   5.959  19.237  0.00  0.00    +0.000 N 
ATOM      8  C   UNL     1       1.894   4.774  19.919  0.00  0.00    +0.000 A 
ATOM      9  C   UNL     1       0.927   4.047  20.625  0.00  0.00    +0.000 A 
ATOM     10  C   UNL     1       1.329   2.855  21.237  0.00  0.00    +0.000 A 
ATOM     11  C   UNL     1       2.646   2.414  21.150  0.00  0.00    +0.000 A 
ATOM     12  C   UNL     1       3.597   3.161  20.450  0.00  0.00    +0.000 A 
ATOM     13  C   UNL     1       3.220   4.368  19.820  0.00  0.00    +0.000 A 
ATOM     14  C   UNL     1       3.935   5.363  19.058  0.00  0.00    +0.000 A 
ATOM     15  H   UNL     1       0.936   6.500  19.181  0.00  0.00    +0.000 HD
ENDBRANCH   1  14
BRANCH   3  16
ATOM     16  S   UNL     1       7.405   5.530  17.082  0.00  0.00    +0.000 S 
ATOM     17  O   UNL     1       8.089   6.577  17.803  0.00  0.00    +0.000 OA
ATOM     18  O   UNL     1       7.933   4.188  17.075  0.00  0.00    +0.000 OA
BRANCH  16  19
ATOM     19  N   UNL     1       7.335   6.067  15.478  0.00  0.00    +0.000 N 
ATOM     20  H   UNL     1       8.281   6.396  15.261  0.00  0.00    +0.000 HD
BRANCH  19  21
ATOM     21  C   UNL     1       6.860   5.143  14.494  0.00  0.00    +0.000 A 
ATOM     22  C   UNL     1       7.625   4.939  13.340  0.00  0.00    +0.000 A 
ATOM     23  C   UNL     1       7.169   4.075  12.345  0.00  0.00    +0.000 A 
ATOM     24  C   UNL     1       5.959   3.413  12.518  0.00  0.00    +0.000 A 
ATOM     25  F   UNL     1       5.527   2.574  11.567  0.00  0.00    +0.000 F 
ATOM     26  C   UNL     1       5.193   3.607  13.663  0.00  0.00    +0.000 A 
ATOM     27  C   UNL     1       5.640   4.486  14.654  0.00  0.00    +0.000 A 
ENDBRANCH  19  21
ENDBRANCH  16  19
ENDBRANCH   3  16
TORSDOF 4
ENDMDL
MODEL 4
REMARK VINA RESULT:      -8.2      1.169      1.756
REMARK  Name = 
REMARK  5 active torsions:
REMARK  status: ('A' for Active; 'I' for Inactive)
REMARK    1  A    between atoms: C_1  and  C_2
REMARK    2  A    between atoms: C_10  and  C_11
REMARK    3  A    between atoms: N_13  and  S_14
REMARK    4  A    between atoms: S_14  and  N_17
REMARK    5  A    between atoms: N_17  and  C_18
REMARK                            x       y       z     vdW  Elec       q    Type
REMARK                         _______ _______ _______ _____ _____    ______ ____
ROOT
ATOM      1  C   UNL     1       5.050   4.056  17.317  0.00  0.00    +0.000 C 
ATOM      2  O   UNL     1       5.360   3.625  18.418  0.00  0.00    +0.000 OA
ATOM      3  N   UNL     1       3.731   4.111  16.868  0.00  0.00    +0.000 N 
ATOM      4  H   UNL     1       3.487   4.603  16.023  0.00  0.00    +0.000 HD
ENDROOT
BRANCH   1  14
ATOM      5  C   UNL     1       7.439   6.342  17.883  0.00  0.00    +0.000 C 
ATOM      6  C   UNL     1       7.053   5.570  16.671  0.00  0.00    +0.000 A 
ATOM      7  N   UNL     1       7.679   5.835  15.471  0.00  0.00    +0.000 N 
ATOM      8  C   UNL     1       7.155   5.070  14.460  0.00  0.00    +0.000 A 
ATOM      9  C   UNL     1       7.480   5.025  13.098  0.00  0.00    +0.000 A 
ATOM     10  C   UNL     1       6.763   4.139  12.289  0.00  0.00    +0.000 A 
ATOM     11  C   UNL     1       5.758   3.336  12.820  0.00  0.00    +0.000 A 
ATOM     12  C   UNL     1       5.443   3.405  14.179  0.00  0.00    +0.000 A 
ATOM     13  C   UNL     1       6.152   4.290  15.023  0.00  0.00    +0.000 A 
ATOM     14  C   UNL     1       6.068   4.616  16.426  0.00  0.00    +0.000 A 
ATOM     15  H   UNL     1       8.404   6.527  15.333  0.00  0.00    +0.000 HD
ENDBRANCH   1  14
BRANCH   3  16
ATOM     16  S   UNL     1       2.439   3.596  17.755  0.00  0.00    +0.000 S 
ATOM     17  O   UNL     1       1.287   4.305  17.251  0.00  0.00    +0.000 OA
ATOM     18  O   UNL     1       2.399   2.164  17.916  0.00  0.00    +0.000 OA
BRANCH  16  19
ATOM     19  N   UNL     1       2.749   4.278  19.274  0.00  0.00    +0.000 N 
ATOM     20  H   UNL     1       3.756   4.163  19.423  0.00  0.00    +0.000 HD
BRANCH  19  21
ATOM     21  C   UNL     1       2.337   5.633  19.483  0.00  0.00    +0.000 A 
ATOM     22  C   UNL     1       2.678   6.593  18.524  0.00  0.00    +0.000 A 
ATOM     23  C   UNL     1       2.326   7.929  18.718  0.00  0.00    +0.000 A 
ATOM     24  C   UNL     1       1.625   8.290  19.863  0.00  0.00    +0.000 A 
ATOM     25  F   UNL     1       1.277   9.571  20.044  0.00  0.00    +0.000 F 
ATOM     26  C   UNL     1       1.279   7.342  20.821  0.00  0.00    +0.000 A 
ATOM     27  C   UNL     1       1.647   6.006  20.636  0.00  0.00    +0.000 A 
ENDBRANCH  19  21
ENDBRANCH  16  19
ENDBRANCH   3  16
TORSDOF 4
ENDMDL
MODEL 5
REMARK VINA RESULT:      -8.2      1.101      1.376
REMARK  Name = 
REMARK  5 active torsions:
REMARK  status: ('A' for Active; 'I' for Inactive)
REMARK    1  A    between atoms: C_1  and  C_2
REMARK    2  A    between atoms: C_10  and  C_11
REMARK    3  A    between atoms: N_13  and  S_14
REMARK    4  A    between atoms: S_14  and  N_17
REMARK    5  A    between atoms: N_17  and  C_18
REMARK                            x       y       z     vdW  Elec       q    Type
REMARK                         _______ _______ _______ _____ _____    ______ ____
ROOT
ATOM      1  C   UNL     1       5.144   4.012  17.284  0.00  0.00    +0.000 C 
ATOM      2  O   UNL     1       5.483   3.586  18.378  0.00  0.00    +0.000 OA
ATOM      3  N   UNL     1       3.821   4.005  16.844  0.00  0.00    +0.000 N 
ATOM      4  H   UNL     1       3.546   4.493  16.006  0.00  0.00    +0.000 HD
ENDROOT
BRANCH   1  14
ATOM      5  C   UNL     1       7.398   6.431  17.850  0.00  0.00    +0.000 C 
ATOM      6  C   UNL     1       7.055   5.640  16.637  0.00  0.00    +0.000 A 
ATOM      7  N   UNL     1       7.663   5.942  15.437  0.00  0.00    +0.000 N 
ATOM      8  C   UNL     1       7.182   5.150  14.425  0.00  0.00    +0.000 A 
ATOM      9  C   UNL     1       7.506   5.126  13.062  0.00  0.00    +0.000 A 
ATOM     10  C   UNL     1       6.840   4.201  12.253  0.00  0.00    +0.000 A 
ATOM     11  C   UNL     1       5.885   3.340  12.785  0.00  0.00    +0.000 A 
ATOM     12  C   UNL     1       5.568   3.389  14.144  0.00  0.00    +0.000 A 
ATOM     13  C   UNL     1       6.226   4.312  14.988  0.00  0.00    +0.000 A 
ATOM     14  C   UNL     1       6.126   4.631  16.391  0.00  0.00    +0.000 A 
ATOM     15  H   UNL     1       8.346   6.675  15.298  0.00  0.00    +0.000 HD
ENDBRANCH   1  14
BRANCH   3  16
ATOM     16  S   UNL     1       2.563   3.417  17.734  0.00  0.00    +0.000 S 
ATOM     17  O   UNL     1       1.377   4.095  17.266  0.00  0.00    +0.000 OA
ATOM     18  O   UNL     1       2.578   1.981  17.856  0.00  0.00    +0.000 OA
BRANCH  16  19
ATOM     19  N   UNL     1       2.869   4.070  19.267  0.00  0.00    +0.000 N 
ATOM     20  H   UNL     1       3.869   3.922  19.430  0.00  0.00    +0.000 HD
BRANCH  19  21
ATOM     21  C   UNL     1       2.494   5.433  19.488  0.00  0.00    +0.000 A 
ATOM     22  C   UNL     1       1.750   5.748  20.631  0.00  0.00    +0.000 A 
ATOM     23  C   UNL     1       1.336   7.060  20.854  0.00  0.00    +0.000 A 
ATOM     24  C   UNL     1       1.679   8.049  19.940  0.00  0.00    +0.000 A 
ATOM     25  F   UNL     1       1.291   9.312  20.161  0.00  0.00    +0.000 F 
ATOM     26  C   UNL     1       2.421   7.747  18.802  0.00  0.00    +0.000 A 
ATOM     27  C   UNL     1       2.822   6.428  18.567  0.00  0.00    +0.000 A 
ENDBRANCH  19  21
ENDBRANCH  16  19
ENDBRANCH   3  16
TORSDOF 4
ENDMDL
MODEL 6
REMARK VINA RESULT:      -8.2      3.428      7.219
REMARK  Name = 
REMARK  5 active torsions:
REMARK  status: ('A' for Active; 'I' for Inactive)
REMARK    1  A    between atoms: C_1  and  C_2
REMARK    2  A    between atoms: C_10  and  C_11
REMARK    3  A    between atoms: N_13  and  S_14
REMARK    4  A    between atoms: S_14  and  N_17
REMARK    5  A    between atoms: N_17  and  C_18
REMARK                            x       y       z     vdW  Elec       q    Type
REMARK                         _______ _______ _______ _____ _____    ______ ____
ROOT
ATOM      1  C   UNL     1       4.603   6.124  18.016  0.00  0.00    +0.000 C 
ATOM      2  O   UNL     1       4.425   6.936  17.121  0.00  0.00    +0.000 OA
ATOM      3  N   UNL     1       5.818   5.470  18.216  0.00  0.00    +0.000 N 
ATOM      4  H   UNL     1       5.985   4.919  19.044  0.00  0.00    +0.000 HD
ENDROOT
BRANCH   1  14
ATOM      5  C   UNL     1       2.169   8.092  19.224  0.00  0.00    +0.000 C 
ATOM      6  C   UNL     1       2.540   6.675  19.486  0.00  0.00    +0.000 A 
ATOM      7  N   UNL     1       1.871   5.970  20.464  0.00  0.00    +0.000 N 
ATOM      8  C   UNL     1       2.385   4.706  20.604  0.00  0.00    +0.000 A 
ATOM      9  C   UNL     1       2.020   3.671  21.475  0.00  0.00    +0.000 A 
ATOM     10  C   UNL     1       2.737   2.473  21.395  0.00  0.00    +0.000 A 
ATOM     11  C   UNL     1       3.779   2.320  20.486  0.00  0.00    +0.000 A 
ATOM     12  C   UNL     1       4.133   3.369  19.634  0.00  0.00    +0.000 A 
ATOM     13  C   UNL     1       3.426   4.591  19.689  0.00  0.00    +0.000 A 
ATOM     14  C   UNL     1       3.544   5.847  18.988  0.00  0.00    +0.000 A 
ATOM     15  H   UNL     1       1.124   6.338  21.038  0.00  0.00    +0.000 HD
ENDBRANCH   1  14
BRANCH   3  16
ATOM     16  S   UNL     1       7.150   5.702  17.272  0.00  0.00    +0.000 S 
ATOM     17  O   UNL     1       7.829   6.862  17.800  0.00  0.00    +0.000 OA
ATOM     18  O   UNL     1       7.881   4.487  17.016  0.00  0.00    +0.000 OA
BRANCH  16  19
ATOM     19  N   UNL     1       6.470   6.215  15.808  0.00  0.00    +0.000 N 
ATOM     20  H   UNL     1       6.996   7.053  15.543  0.00  0.00    +0.000 HD
BRANCH  19  21
ATOM     21  C   UNL     1       6.418   5.265  14.739  0.00  0.00    +0.000 A 
ATOM     22  C   UNL     1       7.424   5.293  13.767  0.00  0.00    +0.000 A 
ATOM     23  C   UNL     1       7.380   4.407  12.691  0.00  0.00    +0.000 A 
ATOM     24  C   UNL     1       6.337   3.493  12.603  0.00  0.00    +0.000 A 
ATOM     25  F   UNL     1       6.300   2.634  11.575  0.00  0.00    +0.000 F 
ATOM     26  C   UNL     1       5.332   3.456  13.565  0.00  0.00    +0.000 A 
ATOM     27  C   UNL     1       5.366   4.355  14.635  0.00  0.00    +0.000 A 
ENDBRANCH  19  21
ENDBRANCH  16  19
ENDBRANCH   3  16
TORSDOF 4
ENDMDL
MODEL 7
REMARK VINA RESULT:      -8.1      3.064      6.476
REMARK  Name = 
REMARK  5 active torsions:
REMARK  status: ('A' for Active; 'I' for Inactive)
REMARK    1  A    between atoms: C_1  and  C_2
REMARK    2  A    between atoms: C_10  and  C_11
REMARK    3  A    between atoms: N_13  and  S_14
REMARK    4  A    between atoms: S_14  and  N_17
REMARK    5  A    between atoms: N_17  and  C_18
REMARK                            x       y       z     vdW  Elec       q    Type
REMARK                         _______ _______ _______ _____ _____    ______ ____
ROOT
ATOM      1  C   UNL     1       2.884   4.975  18.073  0.00  0.00    +0.000 C 
ATOM      2  O   UNL     1       2.064   4.360  17.407  0.00  0.00    +0.000 OA
ATOM      3  N   UNL     1       4.257   4.906  17.838  0.00  0.00    +0.000 N 
ATOM      4  H   UNL     1       4.898   5.531  18.300  0.00  0.00    +0.000 HD
ENDROOT
BRANCH   1  14
ATOM      5  C   UNL     1       2.191   4.420  21.308  0.00  0.00    +0.000 C 
ATOM      6  C   UNL     1       2.156   5.648  20.468  0.00  0.00    +0.000 A 
ATOM      7  N   UNL     1       1.676   6.824  21.006  0.00  0.00    +0.000 N 
ATOM      8  C   UNL     1       1.667   7.829  20.073  0.00  0.00    +0.000 A 
ATOM      9  C   UNL     1       1.253   9.162  20.182  0.00  0.00    +0.000 A 
ATOM     10  C   UNL     1       1.354   9.969  19.045  0.00  0.00    +0.000 A 
ATOM     11  C   UNL     1       1.843   9.459  17.846  0.00  0.00    +0.000 A 
ATOM     12  C   UNL     1       2.239   8.123  17.755  0.00  0.00    +0.000 A 
ATOM     13  C   UNL     1       2.151   7.284  18.889  0.00  0.00    +0.000 A 
ATOM     14  C   UNL     1       2.447   5.892  19.127  0.00  0.00    +0.000 A 
ATOM     15  H   UNL     1       1.335   6.934  21.952  0.00  0.00    +0.000 HD
ENDBRANCH   1  14
BRANCH   3  16
ATOM     16  S   UNL     1       4.938   3.986  16.651  0.00  0.00    +0.000 S 
ATOM     17  O   UNL     1       4.504   2.629  16.883  0.00  0.00    +0.000 OA
ATOM     18  O   UNL     1       4.815   4.573  15.340  0.00  0.00    +0.000 OA
BRANCH  16  19
ATOM     19  N   UNL     1       6.577   4.006  17.074  0.00  0.00    +0.000 N 
ATOM     20  H   UNL     1       7.078   3.684  16.240  0.00  0.00    +0.000 HD
BRANCH  19  21
ATOM     21  C   UNL     1       7.114   5.237  17.569  0.00  0.00    +0.000 A 
ATOM     22  C   UNL     1       7.058   6.370  16.750  0.00  0.00    +0.000 A 
ATOM     23  C   UNL     1       7.609   7.575  17.187  0.00  0.00    +0.000 A 
ATOM     24  C   UNL     1       8.199   7.639  18.444  0.00  0.00    +0.000 A 
ATOM     25  F   UNL     1       8.717   8.799  18.868  0.00  0.00    +0.000 F 
ATOM     26  C   UNL     1       8.257   6.518  19.266  0.00  0.00    +0.000 A 
ATOM     27  C   UNL     1       7.722   5.305  18.823  0.00  0.00    +0.000 A 
ENDBRANCH  19  21
ENDBRANCH  16  19
ENDBRANCH   3  16
TORSDOF 4
ENDMDL
MODEL 8
REMARK VINA RESULT:      -8.1      1.645      1.990
REMARK  Name = 
REMARK  5 active torsions:
REMARK  status: ('A' for Active; 'I' for Inactive)
REMARK    1  A    between atoms: C_1  and  C_2
REMARK    2  A    between atoms: C_10  and  C_11
REMARK    3  A    between atoms: N_13  and  S_14
REMARK    4  A    between atoms: S_14  and  N_17
REMARK    5  A    between atoms: N_17  and  C_18
REMARK                            x       y       z     vdW  Elec       q    Type
REMARK                         _______ _______ _______ _____ _____    ______ ____
ROOT
ATOM      1  C   UNL     1       4.791   4.232  17.023  0.00  0.00    +0.000 C 
ATOM      2  O   UNL     1       4.447   3.061  16.986  0.00  0.00    +0.000 OA
ATOM      3  N   UNL     1       4.205   5.169  17.873  0.00  0.00    +0.000 N 
ATOM      4  H   UNL     1       4.602   6.088  17.991  0.00  0.00    +0.000 HD
ENDROOT
BRANCH   1  14
ATOM      5  C   UNL     1       7.317   6.313  17.763  0.00  0.00    +0.000 C 
ATOM      6  C   UNL     1       6.954   5.572  16.525  0.00  0.00    +0.000 A 
ATOM      7  N   UNL     1       7.684   5.779  15.373  0.00  0.00    +0.000 N 
ATOM      8  C   UNL     1       7.172   5.058  14.325  0.00  0.00    +0.000 A 
ATOM      9  C   UNL     1       7.587   4.981  12.989  0.00  0.00    +0.000 A 
ATOM     10  C   UNL     1       6.858   4.155  12.129  0.00  0.00    +0.000 A 
ATOM     11  C   UNL     1       5.755   3.440  12.586  0.00  0.00    +0.000 A 
ATOM     12  C   UNL     1       5.350   3.540  13.919  0.00  0.00    +0.000 A 
ATOM     13  C   UNL     1       6.069   4.365  14.813  0.00  0.00    +0.000 A 
ATOM     14  C   UNL     1       5.913   4.702  16.207  0.00  0.00    +0.000 A 
ATOM     15  H   UNL     1       8.472   6.408  15.289  0.00  0.00    +0.000 HD
ENDBRANCH   1  14
BRANCH   3  16
ATOM     16  S   UNL     1       2.978   4.816  18.917  0.00  0.00    +0.000 S 
ATOM     17  O   UNL     1       1.750   4.965  18.173  0.00  0.00    +0.000 OA
ATOM     18  O   UNL     1       3.219   3.624  19.690  0.00  0.00    +0.000 OA
BRANCH  16  19
ATOM     19  N   UNL     1       3.016   6.136  19.977  0.00  0.00    +0.000 N 
ATOM     20  H   UNL     1       4.006   6.285  20.191  0.00  0.00    +0.000 HD
BRANCH  19  21
ATOM     21  C   UNL     1       2.382   7.345  19.546  0.00  0.00    +0.000 A 
ATOM     22  C   UNL     1       1.540   8.017  20.439  0.00  0.00    +0.000 A 
ATOM     23  C   UNL     1       0.877   9.176  20.035  0.00  0.00    +0.000 A 
ATOM     24  C   UNL     1       1.071   9.659  18.747  0.00  0.00    +0.000 A 
ATOM     25  F   UNL     1       0.443  10.777  18.363  0.00  0.00    +0.000 F 
ATOM     26  C   UNL     1       1.908   8.999  17.852  0.00  0.00    +0.000 A 
ATOM     27  C   UNL     1       2.560   7.828  18.249  0.00  0.00    +0.000 A 
ENDBRANCH  19  21
ENDBRANCH  16  19
ENDBRANCH   3  16
TORSDOF 4
ENDMDL
MODEL 9
REMARK VINA RESULT:      -8.1      3.410      7.462
REMARK  Name = 
REMARK  5 active torsions:
REMARK  status: ('A' for Active; 'I' for Inactive)
REMARK    1  A    between atoms: C_1  and  C_2
REMARK    2  A    between atoms: C_10  and  C_11
REMARK    3  A    between atoms: N_13  and  S_14
REMARK    4  A    between atoms: S_14  and  N_17
REMARK    5  A    between atoms: N_17  and  C_18
REMARK                            x       y       z     vdW  Elec       q    Type
REMARK                         _______ _______ _______ _____ _____    ______ ____
ROOT
ATOM      1  C   UNL     1       4.162   5.643  17.828  0.00  0.00    +0.000 C 
ATOM      2  O   UNL     1       3.737   4.867  16.985  0.00  0.00    +0.000 OA
ATOM      3  N   UNL     1       5.473   6.117  17.829  0.00  0.00    +0.000 N 
ATOM      4  H   UNL     1       5.757   6.865  18.443  0.00  0.00    +0.000 HD
ENDROOT
BRANCH   1  14
ATOM      5  C   UNL     1       3.022   4.268  20.667  0.00  0.00    +0.000 C 
ATOM      6  C   UNL     1       2.801   5.595  20.033  0.00  0.00    +0.000 A 
ATOM      7  N   UNL     1       1.899   6.473  20.597  0.00  0.00    +0.000 N 
ATOM      8  C   UNL     1       1.784   7.616  19.847  0.00  0.00    +0.000 A 
ATOM      9  C   UNL     1       0.985   8.750  20.041  0.00  0.00    +0.000 A 
ATOM     10  C   UNL     1       1.073   9.776  19.095  0.00  0.00    +0.000 A 
ATOM     11  C   UNL     1       1.922   9.667  17.997  0.00  0.00    +0.000 A 
ATOM     12  C   UNL     1       2.702   8.523  17.817  0.00  0.00    +0.000 A 
ATOM     13  C   UNL     1       2.636   7.470  18.758  0.00  0.00    +0.000 A 
ATOM     14  C   UNL     1       3.272   6.179  18.859  0.00  0.00    +0.000 A 
ATOM     15  H   UNL     1       1.357   6.294  21.432  0.00  0.00    +0.000 HD
ENDBRANCH   1  14
BRANCH   3  16
ATOM     16  S   UNL     1       6.605   5.687  16.709  0.00  0.00    +0.000 S 
ATOM     17  O   UNL     1       7.598   6.735  16.706  0.00  0.00    +0.000 OA
ATOM     18  O   UNL     1       7.006   4.306  16.813  0.00  0.00    +0.000 OA
BRANCH  16  19
ATOM     19  N   UNL     1       5.760   5.872  15.253  0.00  0.00    +0.000 N 
ATOM     20  H   UNL     1       5.816   6.871  15.032  0.00  0.00    +0.000 HD
BRANCH  19  21
ATOM     21  C   UNL     1       6.173   5.064  14.146  0.00  0.00    +0.000 A 
ATOM     22  C   UNL     1       5.353   4.003  13.748  0.00  0.00    +0.000 A 
ATOM     23  C   UNL     1       5.746   3.173  12.699  0.00  0.00    +0.000 A 
ATOM     24  C   UNL     1       6.950   3.419  12.049  0.00  0.00    +0.000 A 
ATOM     25  F   UNL     1       7.322   2.629  11.033  0.00  0.00    +0.000 F 
ATOM     26  C   UNL     1       7.771   4.474  12.435  0.00  0.00    +0.000 A 
ATOM     27  C   UNL     1       7.386   5.296  13.499  0.00  0.00    +0.000 A 
ENDBRANCH  19  21
ENDBRANCH  16  19
ENDBRANCH   3  16
TORSDOF 4
ENDMDL
