MODEL 1
REMARK VINA RESULT:      -8.1      0.000      0.000
REMARK  Name = 
REMARK  7 active torsions:
REMARK  status: ('A' for Active; 'I' for Inactive)
REMARK    1  A    between atoms: C_1  and  C_2
REMARK    2  A    between atoms: C_2  and  C_3
REMARK    3  A    between atoms: C_2  and  C_6
REMARK    4  A    between atoms: C_11  and  C_12
REMARK    5  A    between atoms: C_12  and  C_13
REMARK    6  A    between atoms: C_13  and  C_14
REMARK    7  A    between atoms: N_17  and  C_18
REMARK                            x       y       z     vdW  Elec       q    Type
REMARK                         _______ _______ _______ _____ _____    ______ ____
ROOT
ATOM      1  C   UNL     1       2.159   5.838  20.844  0.00  0.00    +0.000 C 
ENDROOT
BRANCH   1   2
ATOM      2  C   UNL     1       2.762   4.675  20.088  0.00  0.00    +0.000 A 
ATOM      3  N   UNL     1       4.024   4.882  19.647  0.00  0.00    +0.000 NA
ATOM      4  C   UNL     1       4.626   3.953  18.886  0.00  0.00    +0.000 A 
ATOM      5  N   UNL     1       5.895   4.224  18.381  0.00  0.00    +0.000 N 
ATOM      6  N   UNL     1       4.063   2.782  18.578  0.00  0.00    +0.000 NA
ATOM      7  C   UNL     1       2.796   2.599  19.018  0.00  0.00    +0.000 A 
ATOM      8  C   UNL     1       2.084   3.517  19.765  0.00  0.00    +0.000 A 
ATOM      9 CL   UNL     1       0.449   3.209  20.177  0.00  0.00    +0.000 Cl
ATOM     10  H   UNL     1       6.311   3.427  17.923  0.00  0.00    +0.000 HD
BRANCH   5  11
ATOM     11  C   UNL     1       6.479   5.478  18.213  0.00  0.00    +0.000 A 
ATOM     12  C   UNL     1       6.098   6.346  17.206  0.00  0.00    +0.000 A 
ATOM     13  N   UNL     1       6.725   7.509  16.917  0.00  0.00    +0.000 NA
ATOM     14  C   UNL     1       7.786   7.807  17.684  0.00  0.00    +0.000 A 
ATOM     15  N   UNL     1       8.241   7.081  18.712  0.00  0.00    +0.000 NA
ATOM     16  C   UNL     1       7.575   5.928  18.938  0.00  0.00    +0.000 A 
ENDBRANCH   5  11
ENDBRANCH   1   2
BRANCH   1  17
ATOM     17  C   UNL     1       2.038   7.153  20.047  0.00  0.00    +0.000 C 
BRANCH  17  23
ATOM     18  C   UNL     1       0.619   9.313  19.981  0.00  0.00    +0.000 A 
ATOM     19  C   UNL     1      -0.105  10.303  20.680  0.00  0.00    +0.000 A 
ATOM     20  C   UNL     1      -0.110  10.353  22.075  0.00  0.00    +0.000 A 
ATOM     21  C   UNL     1       0.590   9.404  22.802  0.00  0.00    +0.000 A 
ATOM     22  C   UNL     1       1.276   8.387  22.135  0.00  0.00    +0.000 A 
ATOM     23  C   UNL     1       1.286   8.296  20.728  0.00  0.00    +0.000 A 
BRANCH  18  25
ATOM     24  C   UNL     1      -0.579  10.121  17.933  0.00  0.00    +0.000 C 
ATOM     25  C   UNL     1       0.611   9.303  18.448  0.00  0.00    +0.000 C 
BRANCH  25  26
ATOM     26  C   UNL     1       1.879   9.767  17.710  0.00  0.00    +0.000 C 
ATOM     27  N   UNL     1       2.217  11.084  17.762  0.00  0.00    +0.000 N 
ATOM     28  O   UNL     1       2.660   8.986  17.167  0.00  0.00    +0.000 OA
ATOM     29  H   UNL     1       1.626  11.798  18.164  0.00  0.00    +0.000 HD
ATOM     30  H   UNL     1       3.058  11.361  17.271  0.00  0.00    +0.000 HD
ENDBRANCH  25  26
ENDBRANCH  18  25
ENDBRANCH  17  23
ENDBRANCH   1  17
TORSDOF 6
ENDMDL
MODEL 2
REMARK VINA RESULT:      -7.9      1.889      2.154
REMARK  Name = 
REMARK  7 active torsions:
REMARK  status: ('A' for Active; 'I' for Inactive)
REMARK    1  A    between atoms: C_1  and  C_2
REMARK    2  A    between atoms: C_2  and  C_3
REMARK    3  A    between atoms: C_2  and  C_6
REMARK    4  A    between atoms: C_11  and  C_12
REMARK    5  A    between atoms: C_12  and  C_13
REMARK    6  A    between atoms: C_13  and  C_14
REMARK    7  A    between atoms: N_17  and  C_18
REMARK                            x       y       z     vdW  Elec       q    Type
REMARK                         _______ _______ _______ _____ _____    ______ ____
ROOT
ATOM      1  C   UNL     1       2.007   6.431  18.312  0.00  0.00    +0.000 C 
ENDROOT
BRANCH   1   2
ATOM      2  C   UNL     1       2.806   5.274  18.869  0.00  0.00    +0.000 A 
ATOM      3  N   UNL     1       4.003   5.075  18.272  0.00  0.00    +0.000 NA
ATOM      4  C   UNL     1       4.757   4.020  18.624  0.00  0.00    +0.000 A 
ATOM      5  N   UNL     1       5.949   3.794  17.941  0.00  0.00    +0.000 N 
ATOM      6  N   UNL     1       4.416   3.168  19.593  0.00  0.00    +0.000 NA
ATOM      7  C   UNL     1       3.209   3.376  20.170  0.00  0.00    +0.000 A 
ATOM      8  C   UNL     1       2.349   4.405  19.840  0.00  0.00    +0.000 A 
ATOM      9 CL   UNL     1       0.802   4.503  20.573  0.00  0.00    +0.000 Cl
ATOM     10  H   UNL     1       6.499   3.055  18.351  0.00  0.00    +0.000 HD
BRANCH   5  11
ATOM     11  C   UNL     1       6.291   4.266  16.675  0.00  0.00    +0.000 A 
ATOM     12  C   UNL     1       5.882   3.638  15.513  0.00  0.00    +0.000 A 
ATOM     13  N   UNL     1       6.298   3.973  14.271  0.00  0.00    +0.000 NA
ATOM     14  C   UNL     1       7.169   4.994  14.203  0.00  0.00    +0.000 A 
ATOM     15  N   UNL     1       7.619   5.713  15.238  0.00  0.00    +0.000 NA
ATOM     16  C   UNL     1       7.170   5.317  16.449  0.00  0.00    +0.000 A 
ENDBRANCH   5  11
ENDBRANCH   1   2
BRANCH   1  17
ATOM     17  C   UNL     1       2.380   7.821  18.867  0.00  0.00    +0.000 C 
BRANCH  17  23
ATOM     18  C   UNL     1       0.752   9.619  19.761  0.00  0.00    +0.000 A 
ATOM     19  C   UNL     1      -0.126  10.055  20.777  0.00  0.00    +0.000 A 
ATOM     20  C   UNL     1      -0.245   9.360  21.983  0.00  0.00    +0.000 A 
ATOM     21  C   UNL     1       0.491   8.205  22.189  0.00  0.00    +0.000 A 
ATOM     22  C   UNL     1       1.331   7.728  21.181  0.00  0.00    +0.000 A 
ATOM     23  C   UNL     1       1.461   8.395  19.945  0.00  0.00    +0.000 A 
BRANCH  18  25
ATOM     24  C   UNL     1      -0.536  10.764  17.940  0.00  0.00    +0.000 C 
ATOM     25  C   UNL     1       0.866  10.420  18.458  0.00  0.00    +0.000 C 
BRANCH  25  26
ATOM     26  C   UNL     1       1.713  11.703  18.464  0.00  0.00    +0.000 C 
ATOM     27  N   UNL     1       2.519  11.956  17.397  0.00  0.00    +0.000 N 
ATOM     28  O   UNL     1       1.615  12.565  19.336  0.00  0.00    +0.000 OA
ATOM     29  H   UNL     1       2.680  11.297  16.648  0.00  0.00    +0.000 HD
ATOM     30  H   UNL     1       3.063  12.809  17.425  0.00  0.00    +0.000 HD
ENDBRANCH  25  26
ENDBRANCH  18  25
ENDBRANCH  17  23
ENDBRANCH   1  17
TORSDOF 6
ENDMDL
MODEL 3
REMARK VINA RESULT:      -7.9      4.028      6.233
REMARK  Name = 
REMARK  7 active torsions:
REMARK  status: ('A' for Active; 'I' for Inactive)
REMARK    1  A    between atoms: C_1  and  C_2
REMARK    2  A    between atoms: C_2  and  C_3
REMARK    3  A    between atoms: C_2  and  C_6
REMARK    4  A    between atoms: C_11  and  C_12
REMARK    5  A    between atoms: C_12  and  C_13
REMARK    6  A    between atoms: C_13  and  C_14
REMARK    7  A    between atoms: N_17  and  C_18
REMARK                            x       y       z     vdW  Elec       q    Type
REMARK                         _______ _______ _______ _____ _____    ______ ____
ROOT
ATOM      1  C   UNL     1       4.238   3.551  17.244  0.00  0.00    +0.000 C 
ENDROOT
BRANCH   1   2
ATOM      2  C   UNL     1       5.362   4.420  16.728  0.00  0.00    +0.000 A 
ATOM      3  N   UNL     1       5.591   4.317  15.399  0.00  0.00    +0.000 NA
ATOM      4  C   UNL     1       6.625   4.974  14.847  0.00  0.00    +0.000 A 
ATOM      5  N   UNL     1       6.885   4.790  13.491  0.00  0.00    +0.000 N 
ATOM      6  N   UNL     1       7.425   5.790  15.535  0.00  0.00    +0.000 NA
ATOM      7  C   UNL     1       7.188   5.871  16.866  0.00  0.00    +0.000 A 
ATOM      8  C   UNL     1       6.180   5.195  17.525  0.00  0.00    +0.000 A 
ATOM      9 CL   UNL     1       6.045   5.302  19.231  0.00  0.00    +0.000 Cl
ATOM     10  H   UNL     1       7.601   5.410  13.144  0.00  0.00    +0.000 HD
BRANCH   5  11
ATOM     11  C   UNL     1       6.480   3.717  12.699  0.00  0.00    +0.000 A 
ATOM     12  C   UNL     1       7.381   2.859  12.094  0.00  0.00    +0.000 A 
ATOM     13  N   UNL     1       7.046   1.893  11.210  0.00  0.00    +0.000 NA
ATOM     14  C   UNL     1       5.737   1.790  10.925  0.00  0.00    +0.000 A 
ATOM     15  N   UNL     1       4.756   2.526  11.462  0.00  0.00    +0.000 NA
ATOM     16  C   UNL     1       5.163   3.478  12.329  0.00  0.00    +0.000 A 
ENDBRANCH   5  11
ENDBRANCH   1   2
BRANCH   1  17
ATOM     17  C   UNL     1       2.836   4.192  17.209  0.00  0.00    +0.000 C 
BRANCH  17  23
ATOM     18  C   UNL     1       2.244   4.907  19.622  0.00  0.00    +0.000 A 
ATOM     19  C   UNL     1       2.044   5.944  20.559  0.00  0.00    +0.000 A 
ATOM     20  C   UNL     1       2.049   7.285  20.172  0.00  0.00    +0.000 A 
ATOM     21  C   UNL     1       2.275   7.621  18.847  0.00  0.00    +0.000 A 
ATOM     22  C   UNL     1       2.522   6.615  17.910  0.00  0.00    +0.000 A 
ATOM     23  C   UNL     1       2.543   5.252  18.270  0.00  0.00    +0.000 A 
BRANCH  18  25
ATOM     24  C   UNL     1       1.855   3.383  21.574  0.00  0.00    +0.000 C 
ATOM     25  C   UNL     1       2.216   3.445  20.085  0.00  0.00    +0.000 C 
BRANCH  25  26
ATOM     26  C   UNL     1       1.316   2.458  19.323  0.00  0.00    +0.000 C 
ATOM     27  N   UNL     1       1.863   1.300  18.864  0.00  0.00    +0.000 N 
ATOM     28  O   UNL     1       0.102   2.614  19.204  0.00  0.00    +0.000 OA
ATOM     29  H   UNL     1       2.853   1.096  18.896  0.00  0.00    +0.000 HD
ATOM     30  H   UNL     1       1.248   0.666  18.368  0.00  0.00    +0.000 HD
ENDBRANCH  25  26
ENDBRANCH  18  25
ENDBRANCH  17  23
ENDBRANCH   1  17
TORSDOF 6
ENDMDL
MODEL 4
REMARK VINA RESULT:      -7.7      2.230      3.191
REMARK  Name = 
REMARK  7 active torsions:
REMARK  status: ('A' for Active; 'I' for Inactive)
REMARK    1  A    between atoms: C_1  and  C_2
REMARK    2  A    between atoms: C_2  and  C_3
REMARK    3  A    between atoms: C_2  and  C_6
REMARK    4  A    between atoms: C_11  and  C_12
REMARK    5  A    between atoms: C_12  and  C_13
REMARK    6  A    between atoms: C_13  and  C_14
REMARK    7  A    between atoms: N_17  and  C_18
REMARK                            x       y       z     vdW  Elec       q    Type
REMARK                         _______ _______ _______ _____ _____    ______ ____
ROOT
ATOM      1  C   UNL     1       1.584   5.120  20.294  0.00  0.00    +0.000 C 
ENDROOT
BRANCH   1   2
ATOM      2  C   UNL     1       2.684   4.085  20.359  0.00  0.00    +0.000 A 
ATOM      3  N   UNL     1       3.730   4.319  19.534  0.00  0.00    +0.000 NA
ATOM      4  C   UNL     1       4.722   3.418  19.442  0.00  0.00    +0.000 A 
ATOM      5  N   UNL     1       5.748   3.647  18.529  0.00  0.00    +0.000 N 
ATOM      6  N   UNL     1       4.770   2.305  20.177  0.00  0.00    +0.000 NA
ATOM      7  C   UNL     1       3.709   2.081  20.987  0.00  0.00    +0.000 A 
ATOM      8  C   UNL     1       2.625   2.928  21.110  0.00  0.00    +0.000 A 
ATOM      9 CL   UNL     1       1.294   2.484  22.096  0.00  0.00    +0.000 Cl
ATOM     10  H   UNL     1       6.502   2.981  18.614  0.00  0.00    +0.000 HD
BRANCH   5  11
ATOM     11  C   UNL     1       5.702   4.472  17.406  0.00  0.00    +0.000 A 
ATOM     12  C   UNL     1       5.286   4.018  16.168  0.00  0.00    +0.000 A 
ATOM     13  N   UNL     1       5.354   4.737  15.024  0.00  0.00    +0.000 NA
ATOM     14  C   UNL     1       5.866   5.973  15.142  0.00  0.00    +0.000 A 
ATOM     15  N   UNL     1       6.271   6.551  16.278  0.00  0.00    +0.000 NA
ATOM     16  C   UNL     1       6.185   5.774  17.379  0.00  0.00    +0.000 A 
ENDBRANCH   5  11
ENDBRANCH   1   2
BRANCH   1  17
ATOM     17  C   UNL     1       1.972   6.529  20.787  0.00  0.00    +0.000 C 
BRANCH  17  23
ATOM     18  C   UNL     1       1.431   8.962  20.100  0.00  0.00    +0.000 A 
ATOM     19  C   UNL     1       1.446   9.969  19.110  0.00  0.00    +0.000 A 
ATOM     20  C   UNL     1       1.823   9.691  17.795  0.00  0.00    +0.000 A 
ATOM     21  C   UNL     1       2.215   8.409  17.446  0.00  0.00    +0.000 A 
ATOM     22  C   UNL     1       2.252   7.406  18.417  0.00  0.00    +0.000 A 
ATOM     23  C   UNL     1       1.895   7.657  19.758  0.00  0.00    +0.000 A 
BRANCH  18  25
ATOM     24  C   UNL     1       0.939  10.829  21.700  0.00  0.00    +0.000 C 
ATOM     25  C   UNL     1       0.994   9.306  21.530  0.00  0.00    +0.000 C 
BRANCH  25  26
ATOM     26  C   UNL     1      -0.322   8.708  22.052  0.00  0.00    +0.000 C 
ATOM     27  N   UNL     1      -0.821   9.162  23.234  0.00  0.00    +0.000 N 
ATOM     28  O   UNL     1      -1.003   7.917  21.400  0.00  0.00    +0.000 OA
ATOM     29  H   UNL     1      -0.321   9.792  23.847  0.00  0.00    +0.000 HD
ATOM     30  H   UNL     1      -1.691   8.754  23.553  0.00  0.00    +0.000 HD
ENDBRANCH  25  26
ENDBRANCH  18  25
ENDBRANCH  17  23
ENDBRANCH   1  17
TORSDOF 6
ENDMDL
MODEL 5
REMARK VINA RESULT:      -7.7      2.402      4.592
REMARK  Name = 
REMARK  7 active torsions:
REMARK  status: ('A' for Active; 'I' for Inactive)
REMARK    1  A    between atoms: C_1  and  C_2
REMARK    2  A    between atoms: C_2  and  C_3
REMARK    3  A    between atoms: C_2  and  C_6
REMARK    4  A    between atoms: C_11  and  C_12
REMARK    5  A    between atoms: C_12  and  C_13
REMARK    6  A    between atoms: C_13  and  C_14
REMARK    7  A    between atoms: N_17  and  C_18
REMARK                            x       y       z     vdW  Elec       q    Type
REMARK                         _______ _______ _______ _____ _____    ______ ____
ROOT
ATOM      1  C   UNL     1       4.432   7.780  17.291  0.00  0.00    +0.000 C 
ENDROOT
BRANCH   1   2
ATOM      2  C   UNL     1       5.354   6.604  17.519  0.00  0.00    +0.000 A 
ATOM      3  N   UNL     1       4.725   5.424  17.724  0.00  0.00    +0.000 NA
ATOM      4  C   UNL     1       5.442   4.329  18.028  0.00  0.00    +0.000 A 
ATOM      5  N   UNL     1       4.765   3.146  18.311  0.00  0.00    +0.000 N 
ATOM      6  N   UNL     1       6.775   4.319  18.082  0.00  0.00    +0.000 NA
ATOM      7  C   UNL     1       7.387   5.511  17.885  0.00  0.00    +0.000 A 
ATOM      8  C   UNL     1       6.728   6.695  17.615  0.00  0.00    +0.000 A 
ATOM      9 CL   UNL     1       7.610   8.160  17.485  0.00  0.00    +0.000 Cl
ATOM     10  H   UNL     1       5.385   2.356  18.410  0.00  0.00    +0.000 HD
BRANCH   5  11
ATOM     11  C   UNL     1       3.438   3.017  18.720  0.00  0.00    +0.000 A 
ATOM     12  C   UNL     1       3.073   2.976  20.052  0.00  0.00    +0.000 A 
ATOM     13  N   UNL     1       1.823   2.715  20.499  0.00  0.00    +0.000 NA
ATOM     14  C   UNL     1       0.901   2.486  19.550  0.00  0.00    +0.000 A 
ATOM     15  N   UNL     1       1.106   2.530  18.228  0.00  0.00    +0.000 NA
ATOM     16  C   UNL     1       2.378   2.786  17.854  0.00  0.00    +0.000 A 
ENDBRANCH   5  11
ENDBRANCH   1   2
BRANCH   1  17
ATOM     17  C   UNL     1       2.925   7.468  17.392  0.00  0.00    +0.000 C 
BRANCH  17  23
ATOM     18  C   UNL     1       1.535   8.816  19.106  0.00  0.00    +0.000 A 
ATOM     19  C   UNL     1       0.918   8.883  20.374  0.00  0.00    +0.000 A 
ATOM     20  C   UNL     1       1.094   7.874  21.323  0.00  0.00    +0.000 A 
ATOM     21  C   UNL     1       1.869   6.767  21.018  0.00  0.00    +0.000 A 
ATOM     22  C   UNL     1       2.452   6.656  19.754  0.00  0.00    +0.000 A 
ATOM     23  C   UNL     1       2.280   7.648  18.766  0.00  0.00    +0.000 A 
BRANCH  18  25
ATOM     24  C   UNL     1      -0.160  10.082  17.760  0.00  0.00    +0.000 C 
ATOM     25  C   UNL     1       1.330   9.954  18.097  0.00  0.00    +0.000 C 
BRANCH  25  26
ATOM     26  C   UNL     1       1.872  11.348  18.453  0.00  0.00    +0.000 C 
ATOM     27  N   UNL     1       2.657  11.993  17.547  0.00  0.00    +0.000 N 
ATOM     28  O   UNL     1       1.542  11.954  19.472  0.00  0.00    +0.000 OA
ATOM     29  H   UNL     1       2.998  11.565  16.697  0.00  0.00    +0.000 HD
ATOM     30  H   UNL     1       2.997  12.911  17.805  0.00  0.00    +0.000 HD
ENDBRANCH  25  26
ENDBRANCH  18  25
ENDBRANCH  17  23
ENDBRANCH   1  17
TORSDOF 6
ENDMDL
MODEL 6
REMARK VINA RESULT:      -7.7      2.859      6.980
REMARK  Name = 
REMARK  7 active torsions:
REMARK  status: ('A' for Active; 'I' for Inactive)
REMARK    1  A    between atoms: C_1  and  C_2
REMARK    2  A    between atoms: C_2  and  C_3
REMARK    3  A    between atoms: C_2  and  C_6
REMARK    4  A    between atoms: C_11  and  C_12
REMARK    5  A    between atoms: C_12  and  C_13
REMARK    6  A    between atoms: C_13  and  C_14
REMARK    7  A    between atoms: N_17  and  C_18
REMARK                            x       y       z     vdW  Elec       q    Type
REMARK                         _______ _______ _______ _____ _____    ______ ____
ROOT
ATOM      1  C   UNL     1       3.578   7.564  17.115  0.00  0.00    +0.000 C 
ENDROOT
BRANCH   1   2
ATOM      2  C   UNL     1       2.830   7.460  18.425  0.00  0.00    +0.000 A 
ATOM      3  N   UNL     1       2.908   6.250  19.024  0.00  0.00    +0.000 NA
ATOM      4  C   UNL     1       2.208   6.015  20.147  0.00  0.00    +0.000 A 
ATOM      5  N   UNL     1       2.245   4.738  20.701  0.00  0.00    +0.000 N 
ATOM      6  N   UNL     1       1.467   6.943  20.755  0.00  0.00    +0.000 NA
ATOM      7  C   UNL     1       1.391   8.144  20.134  0.00  0.00    +0.000 A 
ATOM      8  C   UNL     1       2.038   8.459  18.955  0.00  0.00    +0.000 A 
ATOM      9 CL   UNL     1       1.782   9.983  18.213  0.00  0.00    +0.000 Cl
ATOM     10  H   UNL     1       1.788   4.689  21.599  0.00  0.00    +0.000 HD
BRANCH   5  11
ATOM     11  C   UNL     1       2.579   3.551  20.050  0.00  0.00    +0.000 A 
ATOM     12  C   UNL     1       3.756   2.872  20.303  0.00  0.00    +0.000 A 
ATOM     13  N   UNL     1       4.189   1.798  19.604  0.00  0.00    +0.000 NA
ATOM     14  C   UNL     1       3.391   1.395  18.601  0.00  0.00    +0.000 A 
ATOM     15  N   UNL     1       2.212   1.935  18.269  0.00  0.00    +0.000 NA
ATOM     16  C   UNL     1       1.847   3.008  19.002  0.00  0.00    +0.000 A 
ENDBRANCH   5  11
ENDBRANCH   1   2
BRANCH   1  17
ATOM     17  C   UNL     1       5.101   7.341  17.203  0.00  0.00    +0.000 C 
BRANCH  17  23
ATOM     18  C   UNL     1       6.872   5.511  16.751  0.00  0.00    +0.000 A 
ATOM     19  C   UNL     1       7.303   4.415  15.974  0.00  0.00    +0.000 A 
ATOM     20  C   UNL     1       6.628   4.037  14.811  0.00  0.00    +0.000 A 
ATOM     21  C   UNL     1       5.498   4.731  14.413  0.00  0.00    +0.000 A 
ATOM     22  C   UNL     1       5.025   5.791  15.190  0.00  0.00    +0.000 A 
ATOM     23  C   UNL     1       5.671   6.186  16.380  0.00  0.00    +0.000 A 
BRANCH  18  25
ATOM     24  C   UNL     1       7.837   7.425  18.052  0.00  0.00    +0.000 C 
ATOM     25  C   UNL     1       7.650   5.904  18.014  0.00  0.00    +0.000 C 
BRANCH  25  26
ATOM     26  C   UNL     1       7.105   5.444  19.376  0.00  0.00    +0.000 C 
ATOM     27  N   UNL     1       5.884   4.845  19.421  0.00  0.00    +0.000 N 
ATOM     28  O   UNL     1       7.768   5.493  20.412  0.00  0.00    +0.000 OA
ATOM     29  H   UNL     1       5.262   4.783  18.628  0.00  0.00    +0.000 HD
ATOM     30  H   UNL     1       5.551   4.549  20.331  0.00  0.00    +0.000 HD
ENDBRANCH  25  26
ENDBRANCH  18  25
ENDBRANCH  17  23
ENDBRANCH   1  17
TORSDOF 6
ENDMDL
MODEL 7
REMARK VINA RESULT:      -7.6      1.860      2.894
REMARK  Name = 
REMARK  7 active torsions:
REMARK  status: ('A' for Active; 'I' for Inactive)
REMARK    1  A    between atoms: C_1  and  C_2
REMARK    2  A    between atoms: C_2  and  C_3
REMARK    3  A    between atoms: C_2  and  C_6
REMARK    4  A    between atoms: C_11  and  C_12
REMARK    5  A    between atoms: C_12  and  C_13
REMARK    6  A    between atoms: C_13  and  C_14
REMARK    7  A    between atoms: N_17  and  C_18
REMARK                            x       y       z     vdW  Elec       q    Type
REMARK                         _______ _______ _______ _____ _____    ______ ____
ROOT
ATOM      1  C   UNL     1       1.788   4.951  20.121  0.00  0.00    +0.000 C 
ENDROOT
BRANCH   1   2
ATOM      2  C   UNL     1       2.501   3.926  19.270  0.00  0.00    +0.000 A 
ATOM      3  N   UNL     1       3.784   4.234  18.970  0.00  0.00    +0.000 NA
ATOM      4  C   UNL     1       4.485   3.440  18.144  0.00  0.00    +0.000 A 
ATOM      5  N   UNL     1       5.777   3.821  17.790  0.00  0.00    +0.000 N 
ATOM      6  N   UNL     1       4.003   2.305  17.635  0.00  0.00    +0.000 NA
ATOM      7  C   UNL     1       2.714   2.019  17.936  0.00  0.00    +0.000 A 
ATOM      8  C   UNL     1       1.904   2.800  18.737  0.00  0.00    +0.000 A 
ATOM      9 CL   UNL     1       0.257   2.383  18.962  0.00  0.00    +0.000 Cl
ATOM     10  H   UNL     1       6.264   3.110  17.266  0.00  0.00    +0.000 HD
BRANCH   5  11
ATOM     11  C   UNL     1       6.315   5.106  17.843  0.00  0.00    +0.000 A 
ATOM     12  C   UNL     1       5.969   6.094  16.940  0.00  0.00    +0.000 A 
ATOM     13  N   UNL     1       6.561   7.308  16.864  0.00  0.00    +0.000 NA
ATOM     14  C   UNL     1       7.551   7.530  17.744  0.00  0.00    +0.000 A 
ATOM     15  N   UNL     1       7.964   6.681  18.693  0.00  0.00    +0.000 NA
ATOM     16  C   UNL     1       7.336   5.486  18.705  0.00  0.00    +0.000 A 
ENDBRANCH   5  11
ENDBRANCH   1   2
BRANCH   1  17
ATOM     17  C   UNL     1       2.588   6.235  20.420  0.00  0.00    +0.000 C 
BRANCH  17  23
ATOM     18  C   UNL     1       1.475   8.552  20.139  0.00  0.00    +0.000 A 
ATOM     19  C   UNL     1       1.236   9.686  19.334  0.00  0.00    +0.000 A 
ATOM     20  C   UNL     1       1.647   9.732  18.000  0.00  0.00    +0.000 A 
ATOM     21  C   UNL     1       2.325   8.657  17.450  0.00  0.00    +0.000 A 
ATOM     22  C   UNL     1       2.615   7.542  18.239  0.00  0.00    +0.000 A 
ATOM     23  C   UNL     1       2.230   7.471  19.595  0.00  0.00    +0.000 A 
BRANCH  18  25
ATOM     24  C   UNL     1       2.056   9.173  22.497  0.00  0.00    +0.000 C 
ATOM     25  C   UNL     1       0.993   8.535  21.595  0.00  0.00    +0.000 C 
BRANCH  25  26
ATOM     26  C   UNL     1      -0.369   9.173  21.918  0.00  0.00    +0.000 C 
ATOM     27  N   UNL     1      -0.757   9.255  23.219  0.00  0.00    +0.000 N 
ATOM     28  O   UNL     1      -1.074   9.711  21.065  0.00  0.00    +0.000 OA
ATOM     29  H   UNL     1      -0.255   8.822  23.982  0.00  0.00    +0.000 HD
ATOM     30  H   UNL     1      -1.656   9.683  23.404  0.00  0.00    +0.000 HD
ENDBRANCH  25  26
ENDBRANCH  18  25
ENDBRANCH  17  23
ENDBRANCH   1  17
TORSDOF 6
ENDMDL
MODEL 8
REMARK VINA RESULT:      -7.5      4.342      6.542
REMARK  Name = 
REMARK  7 active torsions:
REMARK  status: ('A' for Active; 'I' for Inactive)
REMARK    1  A    between atoms: C_1  and  C_2
REMARK    2  A    between atoms: C_2  and  C_3
REMARK    3  A    between atoms: C_2  and  C_6
REMARK    4  A    between atoms: C_11  and  C_12
REMARK    5  A    between atoms: C_12  and  C_13
REMARK    6  A    between atoms: C_13  and  C_14
REMARK    7  A    between atoms: N_17  and  C_18
REMARK                            x       y       z     vdW  Elec       q    Type
REMARK                         _______ _______ _______ _____ _____    ______ ____
ROOT
ATOM      1  C   UNL     1       4.521   3.261  16.912  0.00  0.00    +0.000 C 
ENDROOT
BRANCH   1   2
ATOM      2  C   UNL     1       5.586   4.191  16.376  0.00  0.00    +0.000 A 
ATOM      3  N   UNL     1       5.776   4.121  15.039  0.00  0.00    +0.000 NA
ATOM      4  C   UNL     1       6.760   4.836  14.467  0.00  0.00    +0.000 A 
ATOM      5  N   UNL     1       6.985   4.687  13.101  0.00  0.00    +0.000 N 
ATOM      6  N   UNL     1       7.542   5.678  15.145  0.00  0.00    +0.000 NA
ATOM      7  C   UNL     1       7.345   5.725  16.484  0.00  0.00    +0.000 A 
ATOM      8  C   UNL     1       6.391   4.992  17.162  0.00  0.00    +0.000 A 
ATOM      9 CL   UNL     1       6.306   5.064  18.873  0.00  0.00    +0.000 Cl
ATOM     10  H   UNL     1       7.659   5.346  12.742  0.00  0.00    +0.000 HD
BRANCH   5  11
ATOM     11  C   UNL     1       6.606   3.608  12.302  0.00  0.00    +0.000 A 
ATOM     12  C   UNL     1       5.282   3.300  12.050  0.00  0.00    +0.000 A 
ATOM     13  N   UNL     1       4.862   2.191  11.401  0.00  0.00    +0.000 NA
ATOM     14  C   UNL     1       5.829   1.356  10.987  0.00  0.00    +0.000 A 
ATOM     15  N   UNL     1       7.146   1.546  11.130  0.00  0.00    +0.000 NA
ATOM     16  C   UNL     1       7.494   2.668  11.796  0.00  0.00    +0.000 A 
ENDBRANCH   5  11
ENDBRANCH   1   2
BRANCH   1  17
ATOM     17  C   UNL     1       3.096   3.849  16.968  0.00  0.00    +0.000 C 
BRANCH  17  23
ATOM     18  C   UNL     1       2.666   4.605  19.402  0.00  0.00    +0.000 A 
ATOM     19  C   UNL     1       2.496   5.658  20.327  0.00  0.00    +0.000 A 
ATOM     20  C   UNL     1       2.413   6.988  19.909  0.00  0.00    +0.000 A 
ATOM     21  C   UNL     1       2.520   7.295  18.562  0.00  0.00    +0.000 A 
ATOM     22  C   UNL     1       2.735   6.275  17.633  0.00  0.00    +0.000 A 
ATOM     23  C   UNL     1       2.842   4.924  18.023  0.00  0.00    +0.000 A 
BRANCH  18  25
ATOM     24  C   UNL     1       4.199   2.760  20.130  0.00  0.00    +0.000 C 
ATOM     25  C   UNL     1       2.736   3.156  19.902  0.00  0.00    +0.000 C 
BRANCH  25  26
ATOM     26  C   UNL     1       1.926   2.778  21.153  0.00  0.00    +0.000 C 
ATOM     27  N   UNL     1       0.570   2.731  21.062  0.00  0.00    +0.000 N 
ATOM     28  O   UNL     1       2.451   2.409  22.203  0.00  0.00    +0.000 OA
ATOM     29  H   UNL     1       0.052   3.038  20.249  0.00  0.00    +0.000 HD
ATOM     30  H   UNL     1       0.061   2.476  21.900  0.00  0.00    +0.000 HD
ENDBRANCH  25  26
ENDBRANCH  18  25
ENDBRANCH  17  23
ENDBRANCH   1  17
TORSDOF 6
ENDMDL
MODEL 9
REMARK VINA RESULT:      -7.5      2.121      3.164
REMARK  Name = 
REMARK  7 active torsions:
REMARK  status: ('A' for Active; 'I' for Inactive)
REMARK    1  A    between atoms: C_1  and  C_2
REMARK    2  A    between atoms: C_2  and  C_3
REMARK    3  A    between atoms: C_2  and  C_6
REMARK    4  A    between atoms: C_11  and  C_12
REMARK    5  A    between atoms: C_12  and  C_13
REMARK    6  A    between atoms: C_13  and  C_14
REMARK    7  A    between atoms: N_17  and  C_18
REMARK                            x       y       z     vdW  Elec       q    Type
REMARK                         _______ _______ _______ _____ _____    ______ ____
ROOT
ATOM      1  C   UNL     1       1.467   5.086  20.098  0.00  0.00    +0.000 C 
ENDROOT
BRANCH   1   2
ATOM      2  C   UNL     1       2.601   4.095  20.234  0.00  0.00    +0.000 A 
ATOM      3  N   UNL     1       3.656   4.331  19.423  0.00  0.00    +0.000 NA
ATOM      4  C   UNL     1       4.682   3.464  19.392  0.00  0.00    +0.000 A 
ATOM      5  N   UNL     1       5.720   3.689  18.492  0.00  0.00    +0.000 N 
ATOM      6  N   UNL     1       4.753   2.386  20.177  0.00  0.00    +0.000 NA
ATOM      7  C   UNL     1       3.681   2.160  20.974  0.00  0.00    +0.000 A 
ATOM      8  C   UNL     1       2.565   2.972  21.036  0.00  0.00    +0.000 A 
ATOM      9 CL   UNL     1       1.228   2.523  22.011  0.00  0.00    +0.000 Cl
ATOM     10  H   UNL     1       6.495   3.056  18.624  0.00  0.00    +0.000 HD
BRANCH   5  11
ATOM     11  C   UNL     1       5.671   4.461  17.333  0.00  0.00    +0.000 A 
ATOM     12  C   UNL     1       5.412   3.917  16.089  0.00  0.00    +0.000 A 
ATOM     13  N   UNL     1       5.489   4.596  14.922  0.00  0.00    +0.000 NA
ATOM     14  C   UNL     1       5.844   5.887  15.021  0.00  0.00    +0.000 A 
ATOM     15  N   UNL     1       6.087   6.551  16.158  0.00  0.00    +0.000 NA
ATOM     16  C   UNL     1       6.001   5.809  17.283  0.00  0.00    +0.000 A 
ENDBRANCH   5  11
ENDBRANCH   1   2
BRANCH   1  17
ATOM     17  C   UNL     1       1.716   6.469  20.734  0.00  0.00    +0.000 C 
BRANCH  17  23
ATOM     18  C   UNL     1       1.206   8.933  20.140  0.00  0.00    +0.000 A 
ATOM     19  C   UNL     1       1.326  10.005  19.230  0.00  0.00    +0.000 A 
ATOM     20  C   UNL     1       1.884   9.824  17.962  0.00  0.00    +0.000 A 
ATOM     21  C   UNL     1       2.353   8.576  17.587  0.00  0.00    +0.000 A 
ATOM     22  C   UNL     1       2.287   7.511  18.487  0.00  0.00    +0.000 A 
ATOM     23  C   UNL     1       1.748   7.663  19.781  0.00  0.00    +0.000 A 
BRANCH  18  25
ATOM     24  C   UNL     1       1.649   9.067  22.604  0.00  0.00    +0.000 C 
ATOM     25  C   UNL     1       0.573   9.170  21.517  0.00  0.00    +0.000 C 
BRANCH  25  26
ATOM     26  C   UNL     1      -0.223  10.467  21.738  0.00  0.00    +0.000 C 
ATOM     27  N   UNL     1      -1.022  10.921  20.735  0.00  0.00    +0.000 N 
ATOM     28  O   UNL     1      -0.256  11.056  22.819  0.00  0.00    +0.000 OA
ATOM     29  H   UNL     1      -1.041  10.517  19.808  0.00  0.00    +0.000 HD
ATOM     30  H   UNL     1      -1.537  11.775  20.908  0.00  0.00    +0.000 HD
ENDBRANCH  25  26
ENDBRANCH  18  25
ENDBRANCH  17  23
ENDBRANCH   1  17
TORSDOF 6
ENDMDL
