MODEL 1
REMARK VINA RESULT:      -7.2      0.000      0.000
REMARK  Name = 
REMARK  6 active torsions:
REMARK  status: ('A' for Active; 'I' for Inactive)
REMARK    1  A    between atoms: C_2  and  OXT_3
REMARK    2  A    between atoms: C_2  and  CA_4
REMARK    3  A    between atoms: CA_4  and  C_5
REMARK    4  A    between atoms: CA_4  and  N_13
REMARK    5  A    between atoms: C_5  and  C_6
REMARK    6  A    between atoms: C_14  and  C_16
REMARK                            x       y       z     vdW  Elec       q    Type
REMARK                         _______ _______ _______ _____ _____    ______ ____
ROOT
ATOM      1  CA  UNL     1       5.816   4.932  15.611  0.00  0.00    +0.000 C 
ENDROOT
BRANCH   1   2
ATOM      2  N   UNL     1       6.584   4.930  16.858  0.00  0.00    +0.000 N 
ATOM      3  C   UNL     1       6.990   6.116  17.456  0.00  0.00    +0.000 C 
ATOM      4  O   UNL     1       6.720   7.197  16.926  0.00  0.00    +0.000 OA
ATOM      5  H   UNL     1       7.067   4.076  17.130  0.00  0.00    +0.000 HD
BRANCH   3   6
ATOM      6  C   UNL     1       7.759   5.949  18.793  0.00  0.00    +0.000 C 
ATOM      7  F   UNL     1       8.544   7.035  19.054  0.00  0.00    +0.000 F 
ATOM      8  F   UNL     1       6.929   5.807  19.858  0.00  0.00    +0.000 F 
ATOM      9  F   UNL     1       8.588   4.872  18.783  0.00  0.00    +0.000 F 
ENDBRANCH   3   6
ENDBRANCH   1   2
BRANCH   1  11
ATOM     10  O   UNL     1       7.680   5.416  14.105  0.00  0.00    +0.000 OA
ATOM     11  C   UNL     1       6.778   4.664  14.448  0.00  0.00    +0.000 C 
BRANCH  11  12
ATOM     12  OXT UNL     1       6.442   3.563  13.730  0.00  0.00    +0.000 OA
ATOM     13  HXT UNL     1       6.687   3.622  12.779  0.00  0.00    +0.000 HD
ENDBRANCH  11  12
ENDBRANCH   1  11
BRANCH   1  14
ATOM     14  C   UNL     1       4.703   3.881  15.687  0.00  0.00    +0.000 C 
BRANCH  14  15
ATOM     15  C   UNL     1       3.974   3.836  17.009  0.00  0.00    +0.000 A 
ATOM     16  C   UNL     1       3.366   4.993  17.512  0.00  0.00    +0.000 A 
ATOM     17  C   UNL     1       2.651   4.955  18.711  0.00  0.00    +0.000 A 
ATOM     18  C   UNL     1       2.545   3.762  19.414  0.00  0.00    +0.000 A 
ATOM     19 BR   UNL     1       1.565   3.705  21.030  0.00  0.00    +0.000 Br
ATOM     20  C   UNL     1       3.152   2.602  18.934  0.00  0.00    +0.000 A 
ATOM     21  C   UNL     1       3.859   2.638  17.730  0.00  0.00    +0.000 A 
ENDBRANCH  14  15
ENDBRANCH   1  14
TORSDOF 6
ENDMDL
MODEL 2
REMARK VINA RESULT:      -7.1      0.214      1.424
REMARK  Name = 
REMARK  6 active torsions:
REMARK  status: ('A' for Active; 'I' for Inactive)
REMARK    1  A    between atoms: C_2  and  OXT_3
REMARK    2  A    between atoms: C_2  and  CA_4
REMARK    3  A    between atoms: CA_4  and  C_5
REMARK    4  A    between atoms: CA_4  and  N_13
REMARK    5  A    between atoms: C_5  and  C_6
REMARK    6  A    between atoms: C_14  and  C_16
REMARK                            x       y       z     vdW  Elec       q    Type
REMARK                         _______ _______ _______ _____ _____    ______ ____
ROOT
ATOM      1  CA  UNL     1       5.862   5.060  15.604  0.00  0.00    +0.000 C 
ENDROOT
BRANCH   1   2
ATOM      2  N   UNL     1       6.600   5.017  16.868  0.00  0.00    +0.000 N 
ATOM      3  C   UNL     1       7.085   6.176  17.459  0.00  0.00    +0.000 C 
ATOM      4  O   UNL     1       6.912   7.267  16.908  0.00  0.00    +0.000 OA
ATOM      5  H   UNL     1       7.008   4.132  17.162  0.00  0.00    +0.000 HD
BRANCH   3   6
ATOM      6  C   UNL     1       7.809   5.971  18.815  0.00  0.00    +0.000 C 
ATOM      7  F   UNL     1       6.917   5.806  19.836  0.00  0.00    +0.000 F 
ATOM      8  F   UNL     1       8.608   4.873  18.819  0.00  0.00    +0.000 F 
ATOM      9  F   UNL     1       8.586   7.034  19.154  0.00  0.00    +0.000 F 
ENDBRANCH   3   6
ENDBRANCH   1   2
BRANCH   1  11
ATOM     10  O   UNL     1       7.712   5.440  14.053  0.00  0.00    +0.000 OA
ATOM     11  C   UNL     1       6.826   4.706  14.467  0.00  0.00    +0.000 C 
BRANCH  11  12
ATOM     12  OXT UNL     1       6.509   3.538  13.852  0.00  0.00    +0.000 OA
ATOM     13  HXT UNL     1       6.147   3.655  12.944  0.00  0.00    +0.000 HD
ENDBRANCH  11  12
ENDBRANCH   1  11
BRANCH   1  14
ATOM     14  C   UNL     1       4.671   4.097  15.667  0.00  0.00    +0.000 C 
BRANCH  14  15
ATOM     15  C   UNL     1       3.996   4.023  17.016  0.00  0.00    +0.000 A 
ATOM     16  C   UNL     1       3.989   2.817  17.729  0.00  0.00    +0.000 A 
ATOM     17  C   UNL     1       3.408   2.746  18.997  0.00  0.00    +0.000 A 
ATOM     18  C   UNL     1       2.827   3.878  19.555  0.00  0.00    +0.000 A 
ATOM     19 BR   UNL     1       2.054   3.787  21.277  0.00  0.00    +0.000 Br
ATOM     20  C   UNL     1       2.816   5.084  18.856  0.00  0.00    +0.000 A 
ATOM     21  C   UNL     1       3.406   5.158  17.591  0.00  0.00    +0.000 A 
ENDBRANCH  14  15
ENDBRANCH   1  14
TORSDOF 6
ENDMDL
MODEL 3
REMARK VINA RESULT:      -7.0      0.214      1.156
REMARK  Name = 
REMARK  6 active torsions:
REMARK  status: ('A' for Active; 'I' for Inactive)
REMARK    1  A    between atoms: C_2  and  OXT_3
REMARK    2  A    between atoms: C_2  and  CA_4
REMARK    3  A    between atoms: CA_4  and  C_5
REMARK    4  A    between atoms: CA_4  and  N_13
REMARK    5  A    between atoms: C_5  and  C_6
REMARK    6  A    between atoms: C_14  and  C_16
REMARK                            x       y       z     vdW  Elec       q    Type
REMARK                         _______ _______ _______ _____ _____    ______ ____
ROOT
ATOM      1  CA  UNL     1       5.720   5.094  15.583  0.00  0.00    +0.000 C 
ENDROOT
BRANCH   1   2
ATOM      2  N   UNL     1       6.498   5.036  16.822  0.00  0.00    +0.000 N 
ATOM      3  C   UNL     1       6.980   6.189  17.426  0.00  0.00    +0.000 C 
ATOM      4  O   UNL     1       6.770   7.289  16.907  0.00  0.00    +0.000 OA
ATOM      5  H   UNL     1       6.931   4.151  17.082  0.00  0.00    +0.000 HD
BRANCH   3   6
ATOM      6  C   UNL     1       7.750   5.966  18.753  0.00  0.00    +0.000 C 
ATOM      7  F   UNL     1       8.523   4.842  18.697  0.00  0.00    +0.000 F 
ATOM      8  F   UNL     1       8.584   6.994  19.053  0.00  0.00    +0.000 F 
ATOM      9  F   UNL     1       6.916   5.802  19.815  0.00  0.00    +0.000 F 
ENDBRANCH   3   6
ENDBRANCH   1   2
BRANCH   1  11
ATOM     10  O   UNL     1       6.489   3.787  13.666  0.00  0.00    +0.000 OA
ATOM     11  C   UNL     1       6.645   4.743  14.412  0.00  0.00    +0.000 C 
BRANCH  11  12
ATOM     12  OXT UNL     1       7.754   5.524  14.365  0.00  0.00    +0.000 OA
ATOM     13  HXT UNL     1       7.841   6.035  13.529  0.00  0.00    +0.000 HD
ENDBRANCH  11  12
ENDBRANCH   1  11
BRANCH   1  14
ATOM     14  C   UNL     1       4.525   4.138  15.675  0.00  0.00    +0.000 C 
BRANCH  14  15
ATOM     15  C   UNL     1       3.935   4.008  17.059  0.00  0.00    +0.000 A 
ATOM     16  C   UNL     1       3.308   5.108  17.658  0.00  0.00    +0.000 A 
ATOM     17  C   UNL     1       2.718   4.988  18.918  0.00  0.00    +0.000 A 
ATOM     18  C   UNL     1       2.756   3.771  19.587  0.00  0.00    +0.000 A 
ATOM     19 BR   UNL     1       1.945   3.604  21.286  0.00  0.00    +0.000 Br
ATOM     20  C   UNL     1       3.384   2.668  19.010  0.00  0.00    +0.000 A 
ATOM     21  C   UNL     1       3.966   2.784  17.745  0.00  0.00    +0.000 A 
ENDBRANCH  14  15
ENDBRANCH   1  14
TORSDOF 6
ENDMDL
MODEL 4
REMARK VINA RESULT:      -6.9      4.739      6.322
REMARK  Name = 
REMARK  6 active torsions:
REMARK  status: ('A' for Active; 'I' for Inactive)
REMARK    1  A    between atoms: C_2  and  OXT_3
REMARK    2  A    between atoms: C_2  and  CA_4
REMARK    3  A    between atoms: CA_4  and  C_5
REMARK    4  A    between atoms: CA_4  and  N_13
REMARK    5  A    between atoms: C_5  and  C_6
REMARK    6  A    between atoms: C_14  and  C_16
REMARK                            x       y       z     vdW  Elec       q    Type
REMARK                         _______ _______ _______ _____ _____    ______ ____
ROOT
ATOM      1  CA  UNL     1       2.649   6.145  18.683  0.00  0.00    +0.000 C 
ENDROOT
BRANCH   1   2
ATOM      2  N   UNL     1       2.177   4.888  19.268  0.00  0.00    +0.000 N 
ATOM      3  C   UNL     1       1.474   3.960  18.512  0.00  0.00    +0.000 C 
ATOM      4  O   UNL     1       1.220   4.196  17.328  0.00  0.00    +0.000 OA
ATOM      5  H   UNL     1       2.107   4.821  20.282  0.00  0.00    +0.000 HD
BRANCH   3   6
ATOM      6  C   UNL     1       1.080   2.662  19.264  0.00  0.00    +0.000 C 
ATOM      7  F   UNL     1       2.144   1.814  19.386  0.00  0.00    +0.000 F 
ATOM      8  F   UNL     1       0.631   2.903  20.522  0.00  0.00    +0.000 F 
ATOM      9  F   UNL     1       0.108   1.963  18.617  0.00  0.00    +0.000 F 
ENDBRANCH   3   6
ENDBRANCH   1   2
BRANCH   1  11
ATOM     10  O   UNL     1       1.965   8.440  19.168  0.00  0.00    +0.000 OA
ATOM     11  C   UNL     1       2.168   7.302  19.565  0.00  0.00    +0.000 C 
BRANCH  11  12
ATOM     12  OXT UNL     1       2.122   6.976  20.882  0.00  0.00    +0.000 OA
ATOM     13  HXT UNL     1       2.651   6.178  21.110  0.00  0.00    +0.000 HD
ENDBRANCH  11  12
ENDBRANCH   1  11
BRANCH   1  14
ATOM     14  C   UNL     1       4.177   6.117  18.557  0.00  0.00    +0.000 C 
BRANCH  14  15
ATOM     15  C   UNL     1       4.687   5.553  17.253  0.00  0.00    +0.000 A 
ATOM     16  C   UNL     1       4.988   6.414  16.190  0.00  0.00    +0.000 A 
ATOM     17  C   UNL     1       5.503   5.911  14.993  0.00  0.00    +0.000 A 
ATOM     18  C   UNL     1       5.715   4.545  14.853  0.00  0.00    +0.000 A 
ATOM     19 BR   UNL     1       6.426   3.864  13.239  0.00  0.00    +0.000 Br
ATOM     20  C   UNL     1       5.411   3.672  15.897  0.00  0.00    +0.000 A 
ATOM     21  C   UNL     1       4.905   4.176  17.097  0.00  0.00    +0.000 A 
ENDBRANCH  14  15
ENDBRANCH   1  14
TORSDOF 6
ENDMDL
MODEL 5
REMARK VINA RESULT:      -6.9      3.017      4.096
REMARK  Name = 
REMARK  6 active torsions:
REMARK  status: ('A' for Active; 'I' for Inactive)
REMARK    1  A    between atoms: C_2  and  OXT_3
REMARK    2  A    between atoms: C_2  and  CA_4
REMARK    3  A    between atoms: CA_4  and  C_5
REMARK    4  A    between atoms: CA_4  and  N_13
REMARK    5  A    between atoms: C_5  and  C_6
REMARK    6  A    between atoms: C_14  and  C_16
REMARK                            x       y       z     vdW  Elec       q    Type
REMARK                         _______ _______ _______ _____ _____    ______ ____
ROOT
ATOM      1  CA  UNL     1       6.529   5.022  16.222  0.00  0.00    +0.000 C 
ENDROOT
BRANCH   1   2
ATOM      2  N   UNL     1       7.298   5.334  15.015  0.00  0.00    +0.000 N 
ATOM      3  C   UNL     1       6.982   4.760  13.791  0.00  0.00    +0.000 C 
ATOM      4  O   UNL     1       6.049   3.956  13.710  0.00  0.00    +0.000 OA
ATOM      5  H   UNL     1       8.228   5.735  15.122  0.00  0.00    +0.000 HD
BRANCH   3   6
ATOM      6  C   UNL     1       7.862   5.222  12.601  0.00  0.00    +0.000 C 
ATOM      7  F   UNL     1       7.456   6.434  12.121  0.00  0.00    +0.000 F 
ATOM      8  F   UNL     1       9.170   5.359  12.940  0.00  0.00    +0.000 F 
ATOM      9  F   UNL     1       7.809   4.359  11.551  0.00  0.00    +0.000 F 
ENDBRANCH   3   6
ENDBRANCH   1   2
BRANCH   1  11
ATOM     10  O   UNL     1       7.606   6.197  18.075  0.00  0.00    +0.000 OA
ATOM     11  C   UNL     1       7.453   5.166  17.436  0.00  0.00    +0.000 C 
BRANCH  11  12
ATOM     12  OXT UNL     1       8.209   4.060  17.656  0.00  0.00    +0.000 OA
ATOM     13  HXT UNL     1       7.836   3.457  18.338  0.00  0.00    +0.000 HD
ENDBRANCH  11  12
ENDBRANCH   1  11
BRANCH   1  14
ATOM     14  C   UNL     1       5.313   5.950  16.315  0.00  0.00    +0.000 C 
BRANCH  14  15
ATOM     15  C   UNL     1       4.218   5.456  17.230  0.00  0.00    +0.000 A 
ATOM     16  C   UNL     1       3.854   4.103  17.218  0.00  0.00    +0.000 A 
ATOM     17  C   UNL     1       2.875   3.624  18.091  0.00  0.00    +0.000 A 
ATOM     18  C   UNL     1       2.251   4.495  18.975  0.00  0.00    +0.000 A 
ATOM     19 BR   UNL     1       0.936   3.846  20.167  0.00  0.00    +0.000 Br
ATOM     20  C   UNL     1       2.593   5.847  18.994  0.00  0.00    +0.000 A 
ATOM     21  C   UNL     1       3.580   6.325  18.128  0.00  0.00    +0.000 A 
ENDBRANCH  14  15
ENDBRANCH   1  14
TORSDOF 6
ENDMDL
MODEL 6
REMARK VINA RESULT:      -6.8      3.020      3.966
REMARK  Name = 
REMARK  6 active torsions:
REMARK  status: ('A' for Active; 'I' for Inactive)
REMARK    1  A    between atoms: C_2  and  OXT_3
REMARK    2  A    between atoms: C_2  and  CA_4
REMARK    3  A    between atoms: CA_4  and  C_5
REMARK    4  A    between atoms: CA_4  and  N_13
REMARK    5  A    between atoms: C_5  and  C_6
REMARK    6  A    between atoms: C_14  and  C_16
REMARK                            x       y       z     vdW  Elec       q    Type
REMARK                         _______ _______ _______ _____ _____    ______ ____
ROOT
ATOM      1  CA  UNL     1       6.608   4.889  16.212  0.00  0.00    +0.000 C 
ENDROOT
BRANCH   1   2
ATOM      2  N   UNL     1       7.369   5.251  15.015  0.00  0.00    +0.000 N 
ATOM      3  C   UNL     1       7.015   4.768  13.762  0.00  0.00    +0.000 C 
ATOM      4  O   UNL     1       6.053   4.004  13.646  0.00  0.00    +0.000 OA
ATOM      5  H   UNL     1       8.314   5.612  15.131  0.00  0.00    +0.000 HD
BRANCH   3   6
ATOM      6  C   UNL     1       7.894   5.274  12.589  0.00  0.00    +0.000 C 
ATOM      7  F   UNL     1       7.867   4.405  11.535  0.00  0.00    +0.000 F 
ATOM      8  F   UNL     1       7.482   6.476  12.109  0.00  0.00    +0.000 F 
ATOM      9  F   UNL     1       9.201   5.408  12.940  0.00  0.00    +0.000 F 
ENDBRANCH   3   6
ENDBRANCH   1   2
BRANCH   1  11
ATOM     10  O   UNL     1       7.627   6.110  18.068  0.00  0.00    +0.000 OA
ATOM     11  C   UNL     1       7.513   5.069  17.435  0.00  0.00    +0.000 C 
BRANCH  11  12
ATOM     12  OXT UNL     1       8.299   3.989  17.672  0.00  0.00    +0.000 OA
ATOM     13  HXT UNL     1       8.938   3.800  16.947  0.00  0.00    +0.000 HD
ENDBRANCH  11  12
ENDBRANCH   1  11
BRANCH   1  14
ATOM     14  C   UNL     1       5.344   5.752  16.302  0.00  0.00    +0.000 C 
BRANCH  14  15
ATOM     15  C   UNL     1       4.291   5.223  17.247  0.00  0.00    +0.000 A 
ATOM     16  C   UNL     1       3.595   6.105  18.083  0.00  0.00    +0.000 A 
ATOM     17  C   UNL     1       2.588   5.635  18.929  0.00  0.00    +0.000 A 
ATOM     18  C   UNL     1       2.276   4.282  18.947  0.00  0.00    +0.000 A 
ATOM     19 BR   UNL     1       0.904   3.647  20.080  0.00  0.00    +0.000 Br
ATOM     20  C   UNL     1       2.966   3.387  18.129  0.00  0.00    +0.000 A 
ATOM     21  C   UNL     1       3.966   3.858  17.275  0.00  0.00    +0.000 A 
ENDBRANCH  14  15
ENDBRANCH   1  14
TORSDOF 6
ENDMDL
MODEL 7
REMARK VINA RESULT:      -6.7      4.729      6.466
REMARK  Name = 
REMARK  6 active torsions:
REMARK  status: ('A' for Active; 'I' for Inactive)
REMARK    1  A    between atoms: C_2  and  OXT_3
REMARK    2  A    between atoms: C_2  and  CA_4
REMARK    3  A    between atoms: CA_4  and  C_5
REMARK    4  A    between atoms: CA_4  and  N_13
REMARK    5  A    between atoms: C_5  and  C_6
REMARK    6  A    between atoms: C_14  and  C_16
REMARK                            x       y       z     vdW  Elec       q    Type
REMARK                         _______ _______ _______ _____ _____    ______ ____
ROOT
ATOM      1  CA  UNL     1       2.619   6.115  18.766  0.00  0.00    +0.000 C 
ENDROOT
BRANCH   1   2
ATOM      2  N   UNL     1       2.097   4.869  19.330  0.00  0.00    +0.000 N 
ATOM      3  C   UNL     1       1.536   3.890  18.520  0.00  0.00    +0.000 C 
ATOM      4  O   UNL     1       1.454   4.072  17.302  0.00  0.00    +0.000 OA
ATOM      5  H   UNL     1       1.879   4.840  20.324  0.00  0.00    +0.000 HD
BRANCH   3   6
ATOM      6  C   UNL     1       1.067   2.611  19.261  0.00  0.00    +0.000 C 
ATOM      7  F   UNL     1       0.009   2.027  18.626  0.00  0.00    +0.000 F 
ATOM      8  F   UNL     1       2.039   1.667  19.340  0.00  0.00    +0.000 F 
ATOM      9  F   UNL     1       0.655   2.870  20.532  0.00  0.00    +0.000 F 
ENDBRANCH   3   6
ENDBRANCH   1   2
BRANCH   1  11
ATOM     10  O   UNL     1       1.670   7.175  20.754  0.00  0.00    +0.000 OA
ATOM     11  C   UNL     1       2.112   7.283  19.619  0.00  0.00    +0.000 C 
BRANCH  11  12
ATOM     12  OXT UNL     1       2.065   8.454  18.934  0.00  0.00    +0.000 OA
ATOM     13  HXT UNL     1       1.203   8.923  19.012  0.00  0.00    +0.000 HD
ENDBRANCH  11  12
ENDBRANCH   1  11
BRANCH   1  14
ATOM     14  C   UNL     1       4.150   6.062  18.719  0.00  0.00    +0.000 C 
BRANCH  14  15
ATOM     15  C   UNL     1       4.719   5.556  17.416  0.00  0.00    +0.000 A 
ATOM     16  C   UNL     1       5.015   4.195  17.264  0.00  0.00    +0.000 A 
ATOM     17  C   UNL     1       5.499   3.706  16.048  0.00  0.00    +0.000 A 
ATOM     18  C   UNL     1       5.695   4.575  14.982  0.00  0.00    +0.000 A 
ATOM     19 BR   UNL     1       6.336   3.912  13.333  0.00  0.00    +0.000 Br
ATOM     20  C   UNL     1       5.415   5.934  15.119  0.00  0.00    +0.000 A 
ATOM     21  C   UNL     1       4.921   6.423  16.331  0.00  0.00    +0.000 A 
ENDBRANCH  14  15
ENDBRANCH   1  14
TORSDOF 6
ENDMDL
MODEL 8
REMARK VINA RESULT:      -6.7      3.265      4.386
REMARK  Name = 
REMARK  6 active torsions:
REMARK  status: ('A' for Active; 'I' for Inactive)
REMARK    1  A    between atoms: C_2  and  OXT_3
REMARK    2  A    between atoms: C_2  and  CA_4
REMARK    3  A    between atoms: CA_4  and  C_5
REMARK    4  A    between atoms: CA_4  and  N_13
REMARK    5  A    between atoms: C_5  and  C_6
REMARK    6  A    between atoms: C_14  and  C_16
REMARK                            x       y       z     vdW  Elec       q    Type
REMARK                         _______ _______ _______ _____ _____    ______ ____
ROOT
ATOM      1  CA  UNL     1       3.944   3.910  18.960  0.00  0.00    +0.000 C 
ENDROOT
BRANCH   1   2
ATOM      2  N   UNL     1       5.331   4.348  19.133  0.00  0.00    +0.000 N 
ATOM      3  C   UNL     1       6.094   4.769  18.052  0.00  0.00    +0.000 C 
ATOM      4  O   UNL     1       5.611   4.761  16.917  0.00  0.00    +0.000 OA
ATOM      5  H   UNL     1       5.824   4.075  19.980  0.00  0.00    +0.000 HD
BRANCH   3   6
ATOM      6  C   UNL     1       7.529   5.241  18.403  0.00  0.00    +0.000 C 
ATOM      7  F   UNL     1       7.654   5.506  19.737  0.00  0.00    +0.000 F 
ATOM      8  F   UNL     1       8.472   4.312  18.104  0.00  0.00    +0.000 F 
ATOM      9  F   UNL     1       7.872   6.386  17.753  0.00  0.00    +0.000 F 
ENDBRANCH   3   6
ENDBRANCH   1   2
BRANCH   1  11
ATOM     10  O   UNL     1       2.973   1.687  18.667  0.00  0.00    +0.000 OA
ATOM     11  C   UNL     1       3.904   2.381  19.050  0.00  0.00    +0.000 C 
BRANCH  11  12
ATOM     12  OXT UNL     1       4.956   1.866  19.736  0.00  0.00    +0.000 OA
ATOM     13  HXT UNL     1       5.369   2.503  20.362  0.00  0.00    +0.000 HD
ENDBRANCH  11  12
ENDBRANCH   1  11
BRANCH   1  14
ATOM     14  C   UNL     1       3.056   4.570  20.021  0.00  0.00    +0.000 C 
BRANCH  14  15
ATOM     15  C   UNL     1       2.621   5.976  19.686  0.00  0.00    +0.000 A 
ATOM     16  C   UNL     1       2.803   6.474  18.389  0.00  0.00    +0.000 A 
ATOM     17  C   UNL     1       2.364   7.757  18.054  0.00  0.00    +0.000 A 
ATOM     18  C   UNL     1       1.746   8.549  19.013  0.00  0.00    +0.000 A 
ATOM     19 BR   UNL     1       1.138  10.279  18.557  0.00  0.00    +0.000 Br
ATOM     20  C   UNL     1       1.566   8.074  20.312  0.00  0.00    +0.000 A 
ATOM     21  C   UNL     1       1.995   6.787  20.645  0.00  0.00    +0.000 A 
ENDBRANCH  14  15
ENDBRANCH   1  14
TORSDOF 6
ENDMDL
MODEL 9
REMARK VINA RESULT:      -6.7      2.859      3.669
REMARK  Name = 
REMARK  6 active torsions:
REMARK  status: ('A' for Active; 'I' for Inactive)
REMARK    1  A    between atoms: C_2  and  OXT_3
REMARK    2  A    between atoms: C_2  and  CA_4
REMARK    3  A    between atoms: CA_4  and  C_5
REMARK    4  A    between atoms: CA_4  and  N_13
REMARK    5  A    between atoms: C_5  and  C_6
REMARK    6  A    between atoms: C_14  and  C_16
REMARK                            x       y       z     vdW  Elec       q    Type
REMARK                         _______ _______ _______ _____ _____    ______ ____
ROOT
ATOM      1  CA  UNL     1       4.126   3.243  17.836  0.00  0.00    +0.000 C 
ENDROOT
BRANCH   1   2
ATOM      2  N   UNL     1       5.107   4.123  18.473  0.00  0.00    +0.000 N 
ATOM      3  C   UNL     1       6.220   4.583  17.781  0.00  0.00    +0.000 C 
ATOM      4  O   UNL     1       6.405   4.235  16.612  0.00  0.00    +0.000 OA
ATOM      5  H   UNL     1       5.135   4.164  19.490  0.00  0.00    +0.000 HD
BRANCH   3   6
ATOM      6  C   UNL     1       7.143   5.540  18.580  0.00  0.00    +0.000 C 
ATOM      7  F   UNL     1       7.264   6.750  17.957  0.00  0.00    +0.000 F 
ATOM      8  F   UNL     1       6.676   5.794  19.829  0.00  0.00    +0.000 F 
ATOM      9  F   UNL     1       8.405   5.052  18.714  0.00  0.00    +0.000 F 
ENDBRANCH   3   6
ENDBRANCH   1   2
BRANCH   1  11
ATOM     10  O   UNL     1       2.751   1.506  18.868  0.00  0.00    +0.000 OA
ATOM     11  C   UNL     1       3.828   2.080  18.788  0.00  0.00    +0.000 C 
BRANCH  11  12
ATOM     12  OXT UNL     1       4.844   1.833  19.653  0.00  0.00    +0.000 OA
ATOM     13  HXT UNL     1       4.959   2.531  20.337  0.00  0.00    +0.000 HD
ENDBRANCH  11  12
ENDBRANCH   1  11
BRANCH   1  14
ATOM     14  C   UNL     1       2.863   4.039  17.490  0.00  0.00    +0.000 C 
BRANCH  14  15
ATOM     15  C   UNL     1       2.519   5.128  18.478  0.00  0.00    +0.000 A 
ATOM     16  C   UNL     1       2.728   6.471  18.139  0.00  0.00    +0.000 A 
ATOM     17  C   UNL     1       2.373   7.490  19.025  0.00  0.00    +0.000 A 
ATOM     18  C   UNL     1       1.812   7.171  20.255  0.00  0.00    +0.000 A 
ATOM     19 BR   UNL     1       1.318   8.550  21.449  0.00  0.00    +0.000 Br
ATOM     20  C   UNL     1       1.606   5.840  20.614  0.00  0.00    +0.000 A 
ATOM     21  C   UNL     1       1.952   4.820  19.724  0.00  0.00    +0.000 A 
ENDBRANCH  14  15
ENDBRANCH   1  14
TORSDOF 6
ENDMDL
