MODEL 1
REMARK VINA RESULT:      -5.3      0.000      0.000
REMARK  Name = 
REMARK  7 active torsions:
REMARK  status: ('A' for Active; 'I' for Inactive)
REMARK    1  A    between atoms: C_1  and  N_2
REMARK    2  A    between atoms: N_2  and  C_3
REMARK    3  A    between atoms: N_2  and  C_4
REMARK    4  A    between atoms: C_4  and  C_5
REMARK    5  A    between atoms: C_6  and  C_7
REMARK    6  A    between atoms: C_7  and  C_8
REMARK    7  A    between atoms: C_8  and  C_9
REMARK                            x       y       z     vdW  Elec       q    Type
REMARK                         _______ _______ _______ _____ _____    ______ ____
ROOT
ATOM      1  C   UNL     1       3.008   7.041  17.915  0.00  0.00    +0.000 C 
ENDROOT
BRANCH   1   3
ATOM      2  C   UNL     1       5.719   6.802  17.159  0.00  0.00    +0.000 C 
ATOM      3  C   UNL     1       4.467   6.912  17.508  0.00  0.00    +0.000 C 
BRANCH   2   4
ATOM      4  C   UNL     1       7.178   6.673  16.752  0.00  0.00    +0.000 C 
BRANCH   4   6
ATOM      5  C   UNL     1       7.569   4.582  17.867  0.00  0.00    +0.000 C 
ATOM      6  N   UNL     1       7.551   5.260  16.570  0.00  0.00    +0.000 NA
ATOM      7  C   UNL     1       6.641   4.558  15.662  0.00  0.00    +0.000 C 
ENDBRANCH   4   6
ENDBRANCH   2   4
ENDBRANCH   1   3
BRANCH   1   8
ATOM      8  C   UNL     1       2.384   5.670  18.148  0.00  0.00    +0.000 C 
BRANCH   8   9
ATOM      9  C   UNL     1       3.192   4.791  19.115  0.00  0.00    +0.000 C 
ATOM     10  S   UNL     1       2.248   4.405  20.629  0.00  0.00    +0.000 S 
ATOM     11  C   UNL     1       0.940   3.350  19.935  0.00  0.00    +0.000 C 
ATOM     12  C   UNL     1       1.460   2.115  19.214  0.00  0.00    +0.000 C 
ATOM     13  C   UNL     1       2.321   2.397  17.992  0.00  0.00    +0.000 C 
ATOM     14  S   UNL     1       3.867   3.253  18.399  0.00  0.00    +0.000 S 
ENDBRANCH   8   9
ENDBRANCH   1   8
TORSDOF 5
ENDMDL
MODEL 2
REMARK VINA RESULT:      -5.2      6.681      9.395
REMARK  Name = 
REMARK  7 active torsions:
REMARK  status: ('A' for Active; 'I' for Inactive)
REMARK    1  A    between atoms: C_1  and  N_2
REMARK    2  A    between atoms: N_2  and  C_3
REMARK    3  A    between atoms: N_2  and  C_4
REMARK    4  A    between atoms: C_4  and  C_5
REMARK    5  A    between atoms: C_6  and  C_7
REMARK    6  A    between atoms: C_7  and  C_8
REMARK    7  A    between atoms: C_8  and  C_9
REMARK                            x       y       z     vdW  Elec       q    Type
REMARK                         _______ _______ _______ _____ _____    ______ ____
ROOT
ATOM      1  C   UNL     1       9.320  10.100  18.920  0.00  0.00    +0.000 C 
ENDROOT
BRANCH   1   3
ATOM      2  C   UNL     1       7.670   8.153  17.712  0.00  0.00    +0.000 C 
ATOM      3  C   UNL     1       8.432   9.052  18.270  0.00  0.00    +0.000 C 
BRANCH   2   4
ATOM      4  C   UNL     1       6.782   7.105  17.061  0.00  0.00    +0.000 C 
BRANCH   4   6
ATOM      5  C   UNL     1       7.567   5.076  18.080  0.00  0.00    +0.000 C 
ATOM      6  N   UNL     1       7.522   5.851  16.839  0.00  0.00    +0.000 NA
ATOM      7  C   UNL     1       6.929   5.038  15.775  0.00  0.00    +0.000 C 
ENDBRANCH   4   6
ENDBRANCH   2   4
ENDBRANCH   1   3
BRANCH   1   8
ATOM      8  C   UNL     1       9.547  11.281  17.983  0.00  0.00    +0.000 C 
BRANCH   8   9
ATOM      9  C   UNL     1      11.015  11.731  17.920  0.00  0.00    +0.000 C 
ATOM     10  S   UNL     1      11.201  13.309  17.020  0.00  0.00    +0.000 S 
ATOM     11  C   UNL     1      10.358  14.438  18.169  0.00  0.00    +0.000 C 
ATOM     12  C   UNL     1      10.962  14.463  19.566  0.00  0.00    +0.000 C 
ATOM     13  C   UNL     1      10.900  13.141  20.317  0.00  0.00    +0.000 C 
ATOM     14  S   UNL     1      11.875  11.832  19.527  0.00  0.00    +0.000 S 
ENDBRANCH   8   9
ENDBRANCH   1   8
TORSDOF 5
ENDMDL
MODEL 3
REMARK VINA RESULT:      -5.1      6.024      8.759
REMARK  Name = 
REMARK  7 active torsions:
REMARK  status: ('A' for Active; 'I' for Inactive)
REMARK    1  A    between atoms: C_1  and  N_2
REMARK    2  A    between atoms: N_2  and  C_3
REMARK    3  A    between atoms: N_2  and  C_4
REMARK    4  A    between atoms: C_4  and  C_5
REMARK    5  A    between atoms: C_6  and  C_7
REMARK    6  A    between atoms: C_7  and  C_8
REMARK    7  A    between atoms: C_8  and  C_9
REMARK                            x       y       z     vdW  Elec       q    Type
REMARK                         _______ _______ _______ _____ _____    ______ ____
ROOT
ATOM      1  C   UNL     1       8.433   9.714  18.014  0.00  0.00    +0.000 C 
ENDROOT
BRANCH   1   3
ATOM      2  C   UNL     1       7.841   6.958  18.183  0.00  0.00    +0.000 C 
ATOM      3  C   UNL     1       8.114   8.230  18.105  0.00  0.00    +0.000 C 
BRANCH   2   4
ATOM      4  C   UNL     1       7.522   5.474  18.274  0.00  0.00    +0.000 C 
BRANCH   4   6
ATOM      5  C   UNL     1       6.818   4.425  16.231  0.00  0.00    +0.000 C 
ATOM      6  N   UNL     1       6.364   5.132  17.430  0.00  0.00    +0.000 NA
ATOM      7  C   UNL     1       5.383   4.310  18.142  0.00  0.00    +0.000 C 
ENDBRANCH   4   6
ENDBRANCH   2   4
ENDBRANCH   1   3
BRANCH   1   8
ATOM      8  C   UNL     1       9.330  10.151  19.168  0.00  0.00    +0.000 C 
BRANCH   8   9
ATOM      9  C   UNL     1       9.256  11.659  19.455  0.00  0.00    +0.000 C 
ATOM     10  S   UNL     1      10.462  12.165  20.729  0.00  0.00    +0.000 S 
ATOM     11  C   UNL     1      12.018  11.879  19.833  0.00  0.00    +0.000 C 
ATOM     12  C   UNL     1      12.139  12.669  18.537  0.00  0.00    +0.000 C 
ATOM     13  C   UNL     1      11.099  12.332  17.479  0.00  0.00    +0.000 C 
ATOM     14  S   UNL     1       9.409  12.744  17.994  0.00  0.00    +0.000 S 
ENDBRANCH   8   9
ENDBRANCH   1   8
TORSDOF 5
ENDMDL
MODEL 4
REMARK VINA RESULT:      -5.0      0.956      1.126
REMARK  Name = 
REMARK  7 active torsions:
REMARK  status: ('A' for Active; 'I' for Inactive)
REMARK    1  A    between atoms: C_1  and  N_2
REMARK    2  A    between atoms: N_2  and  C_3
REMARK    3  A    between atoms: N_2  and  C_4
REMARK    4  A    between atoms: C_4  and  C_5
REMARK    5  A    between atoms: C_6  and  C_7
REMARK    6  A    between atoms: C_7  and  C_8
REMARK    7  A    between atoms: C_8  and  C_9
REMARK                            x       y       z     vdW  Elec       q    Type
REMARK                         _______ _______ _______ _____ _____    ______ ____
ROOT
ATOM      1  C   UNL     1       2.923   6.613  18.301  0.00  0.00    +0.000 C 
ENDROOT
BRANCH   1   3
ATOM      2  C   UNL     1       5.547   6.636  17.256  0.00  0.00    +0.000 C 
ATOM      3  C   UNL     1       4.335   6.625  17.739  0.00  0.00    +0.000 C 
BRANCH   2   4
ATOM      4  C   UNL     1       6.959   6.648  16.694  0.00  0.00    +0.000 C 
BRANCH   4   6
ATOM      5  C   UNL     1       7.615   4.614  17.790  0.00  0.00    +0.000 C 
ATOM      6  N   UNL     1       7.459   5.277  16.495  0.00  0.00    +0.000 NA
ATOM      7  C   UNL     1       6.572   4.483  15.641  0.00  0.00    +0.000 C 
ENDBRANCH   4   6
ENDBRANCH   2   4
ENDBRANCH   1   3
BRANCH   1   8
ATOM      8  C   UNL     1       2.210   5.310  17.956  0.00  0.00    +0.000 C 
BRANCH   8   9
ATOM      9  C   UNL     1       2.982   4.059  18.403  0.00  0.00    +0.000 C 
ATOM     10  S   UNL     1       3.542   4.193  20.136  0.00  0.00    +0.000 S 
ATOM     11  C   UNL     1       1.942   4.153  20.997  0.00  0.00    +0.000 C 
ATOM     12  C   UNL     1       1.122   2.901  20.721  0.00  0.00    +0.000 C 
ATOM     13  C   UNL     1       0.705   2.712  19.270  0.00  0.00    +0.000 C 
ATOM     14  S   UNL     1       2.115   2.472  18.155  0.00  0.00    +0.000 S 
ENDBRANCH   8   9
ENDBRANCH   1   8
TORSDOF 5
ENDMDL
MODEL 5
REMARK VINA RESULT:      -5.0      4.443      5.998
REMARK  Name = 
REMARK  7 active torsions:
REMARK  status: ('A' for Active; 'I' for Inactive)
REMARK    1  A    between atoms: C_1  and  N_2
REMARK    2  A    between atoms: N_2  and  C_3
REMARK    3  A    between atoms: N_2  and  C_4
REMARK    4  A    between atoms: C_4  and  C_5
REMARK    5  A    between atoms: C_6  and  C_7
REMARK    6  A    between atoms: C_7  and  C_8
REMARK    7  A    between atoms: C_8  and  C_9
REMARK                            x       y       z     vdW  Elec       q    Type
REMARK                         _______ _______ _______ _____ _____    ______ ____
ROOT
ATOM      1  C   UNL     1       8.304   7.801  18.667  0.00  0.00    +0.000 C 
ENDROOT
BRANCH   1   3
ATOM      2  C   UNL     1       8.968  10.503  18.182  0.00  0.00    +0.000 C 
ATOM      3  C   UNL     1       8.661   9.256  18.406  0.00  0.00    +0.000 C 
BRANCH   2   4
ATOM      4  C   UNL     1       9.325  11.957  17.921  0.00  0.00    +0.000 C 
BRANCH   4   6
ATOM      5  C   UNL     1      11.010  13.466  17.112  0.00  0.00    +0.000 C 
ATOM      6  N   UNL     1      10.740  12.091  17.534  0.00  0.00    +0.000 NA
ATOM      7  C   UNL     1      11.649  11.724  18.623  0.00  0.00    +0.000 C 
ENDBRANCH   4   6
ENDBRANCH   2   4
ENDBRANCH   1   3
BRANCH   1   8
ATOM      8  C   UNL     1       7.542   7.206  17.488  0.00  0.00    +0.000 C 
BRANCH   8   9
ATOM      9  C   UNL     1       7.376   5.682  17.581  0.00  0.00    +0.000 C 
ATOM     10  S   UNL     1       6.227   5.206  18.918  0.00  0.00    +0.000 S 
ATOM     11  C   UNL     1       4.668   5.862  18.253  0.00  0.00    +0.000 C 
ATOM     12  C   UNL     1       4.286   5.290  16.895  0.00  0.00    +0.000 C 
ATOM     13  C   UNL     1       5.263   5.596  15.770  0.00  0.00    +0.000 C 
ATOM     14  S   UNL     1       6.895   4.849  16.029  0.00  0.00    +0.000 S 
ENDBRANCH   8   9
ENDBRANCH   1   8
TORSDOF 5
ENDMDL
MODEL 6
REMARK VINA RESULT:      -5.0      1.420      2.081
REMARK  Name = 
REMARK  7 active torsions:
REMARK  status: ('A' for Active; 'I' for Inactive)
REMARK    1  A    between atoms: C_1  and  N_2
REMARK    2  A    between atoms: N_2  and  C_3
REMARK    3  A    between atoms: N_2  and  C_4
REMARK    4  A    between atoms: C_4  and  C_5
REMARK    5  A    between atoms: C_6  and  C_7
REMARK    6  A    between atoms: C_7  and  C_8
REMARK    7  A    between atoms: C_8  and  C_9
REMARK                            x       y       z     vdW  Elec       q    Type
REMARK                         _______ _______ _______ _____ _____    ______ ____
ROOT
ATOM      1  C   UNL     1       2.570   5.905  18.275  0.00  0.00    +0.000 C 
ENDROOT
BRANCH   1   3
ATOM      2  C   UNL     1       4.907   5.841  16.691  0.00  0.00    +0.000 C 
ATOM      3  C   UNL     1       3.828   5.870  17.422  0.00  0.00    +0.000 C 
BRANCH   2   4
ATOM      4  C   UNL     1       6.165   5.806  15.838  0.00  0.00    +0.000 C 
BRANCH   4   6
ATOM      5  C   UNL     1       7.404   7.032  17.491  0.00  0.00    +0.000 C 
ATOM      6  N   UNL     1       7.373   5.814  16.681  0.00  0.00    +0.000 NA
ATOM      7  C   UNL     1       7.447   4.641  17.555  0.00  0.00    +0.000 C 
ENDBRANCH   4   6
ENDBRANCH   2   4
ENDBRANCH   1   3
BRANCH   1   8
ATOM      8  C   UNL     1       2.826   5.297  19.650  0.00  0.00    +0.000 C 
BRANCH   8   9
ATOM      9  C   UNL     1       1.904   4.110  19.969  0.00  0.00    +0.000 C 
ATOM     10  S   UNL     1       1.312   3.285  18.451  0.00  0.00    +0.000 S 
ATOM     11  C   UNL     1       2.872   2.584  17.835  0.00  0.00    +0.000 C 
ATOM     12  C   UNL     1       3.553   1.637  18.812  0.00  0.00    +0.000 C 
ATOM     13  C   UNL     1       3.988   2.270  20.126  0.00  0.00    +0.000 C 
ATOM     14  S   UNL     1       2.592   2.869  21.118  0.00  0.00    +0.000 S 
ENDBRANCH   8   9
ENDBRANCH   1   8
TORSDOF 5
ENDMDL
MODEL 7
REMARK VINA RESULT:      -5.0      3.072      4.011
REMARK  Name = 
REMARK  7 active torsions:
REMARK  status: ('A' for Active; 'I' for Inactive)
REMARK    1  A    between atoms: C_1  and  N_2
REMARK    2  A    between atoms: N_2  and  C_3
REMARK    3  A    between atoms: N_2  and  C_4
REMARK    4  A    between atoms: C_4  and  C_5
REMARK    5  A    between atoms: C_6  and  C_7
REMARK    6  A    between atoms: C_7  and  C_8
REMARK    7  A    between atoms: C_8  and  C_9
REMARK                            x       y       z     vdW  Elec       q    Type
REMARK                         _______ _______ _______ _____ _____    ______ ____
ROOT
ATOM      1  C   UNL     1       5.461   5.073  16.224  0.00  0.00    +0.000 C 
ENDROOT
BRANCH   1   3
ATOM      2  C   UNL     1       6.046   4.008  13.675  0.00  0.00    +0.000 C 
ATOM      3  C   UNL     1       5.776   4.500  14.852  0.00  0.00    +0.000 C 
BRANCH   2   4
ATOM      4  C   UNL     1       6.361   3.435  12.303  0.00  0.00    +0.000 C 
BRANCH   4   6
ATOM      5  C   UNL     1       4.277   3.040  11.174  0.00  0.00    +0.000 C 
ATOM      6  N   UNL     1       5.371   2.414  11.918  0.00  0.00    +0.000 NA
ATOM      7  C   UNL     1       5.964   1.344  11.112  0.00  0.00    +0.000 C 
ENDBRANCH   4   6
ENDBRANCH   2   4
ENDBRANCH   1   3
BRANCH   1   8
ATOM      8  C   UNL     1       4.185   4.460  16.792  0.00  0.00    +0.000 C 
BRANCH   8   9
ATOM      9  C   UNL     1       4.378   3.837  18.182  0.00  0.00    +0.000 C 
ATOM     10  S   UNL     1       3.888   4.986  19.514  0.00  0.00    +0.000 S 
ATOM     11  C   UNL     1       2.095   5.070  19.225  0.00  0.00    +0.000 C 
ATOM     12  C   UNL     1       1.393   3.721  19.299  0.00  0.00    +0.000 C 
ATOM     13  C   UNL     1       1.835   2.707  18.255  0.00  0.00    +0.000 C 
ATOM     14  S   UNL     1       3.572   2.218  18.436  0.00  0.00    +0.000 S 
ENDBRANCH   8   9
ENDBRANCH   1   8
TORSDOF 5
ENDMDL
MODEL 8
REMARK VINA RESULT:      -5.0      1.440      2.199
REMARK  Name = 
REMARK  7 active torsions:
REMARK  status: ('A' for Active; 'I' for Inactive)
REMARK    1  A    between atoms: C_1  and  N_2
REMARK    2  A    between atoms: N_2  and  C_3
REMARK    3  A    between atoms: N_2  and  C_4
REMARK    4  A    between atoms: C_4  and  C_5
REMARK    5  A    between atoms: C_6  and  C_7
REMARK    6  A    between atoms: C_7  and  C_8
REMARK    7  A    between atoms: C_8  and  C_9
REMARK                            x       y       z     vdW  Elec       q    Type
REMARK                         _______ _______ _______ _____ _____    ______ ____
ROOT
ATOM      1  C   UNL     1       2.777   6.356  18.204  0.00  0.00    +0.000 C 
ENDROOT
BRANCH   1   3
ATOM      2  C   UNL     1       5.374   6.202  17.107  0.00  0.00    +0.000 C 
ATOM      3  C   UNL     1       4.175   6.273  17.614  0.00  0.00    +0.000 C 
BRANCH   2   4
ATOM      4  C   UNL     1       6.773   6.120  16.517  0.00  0.00    +0.000 C 
BRANCH   4   6
ATOM      5  C   UNL     1       7.655   8.066  17.613  0.00  0.00    +0.000 C 
ATOM      6  N   UNL     1       7.779   6.615  17.472  0.00  0.00    +0.000 NA
ATOM      7  C   UNL     1       7.652   5.982  18.788  0.00  0.00    +0.000 C 
ENDBRANCH   4   6
ENDBRANCH   2   4
ENDBRANCH   1   3
BRANCH   1   8
ATOM      8  C   UNL     1       1.979   5.093  17.898  0.00  0.00    +0.000 C 
BRANCH   8   9
ATOM      9  C   UNL     1       1.616   4.286  19.154  0.00  0.00    +0.000 C 
ATOM     10  S   UNL     1       1.056   2.599  18.736  0.00  0.00    +0.000 S 
ATOM     11  C   UNL     1       2.603   1.894  18.092  0.00  0.00    +0.000 C 
ATOM     12  C   UNL     1       3.755   1.921  19.086  0.00  0.00    +0.000 C 
ATOM     13  C   UNL     1       4.197   3.310  19.522  0.00  0.00    +0.000 C 
ATOM     14  S   UNL     1       2.913   4.205  20.437  0.00  0.00    +0.000 S 
ENDBRANCH   8   9
ENDBRANCH   1   8
TORSDOF 5
ENDMDL
MODEL 9
REMARK VINA RESULT:      -4.9      4.462      5.978
REMARK  Name = 
REMARK  7 active torsions:
REMARK  status: ('A' for Active; 'I' for Inactive)
REMARK    1  A    between atoms: C_1  and  N_2
REMARK    2  A    between atoms: N_2  and  C_3
REMARK    3  A    between atoms: N_2  and  C_4
REMARK    4  A    between atoms: C_4  and  C_5
REMARK    5  A    between atoms: C_6  and  C_7
REMARK    6  A    between atoms: C_7  and  C_8
REMARK    7  A    between atoms: C_8  and  C_9
REMARK                            x       y       z     vdW  Elec       q    Type
REMARK                         _______ _______ _______ _____ _____    ______ ____
ROOT
ATOM      1  C   UNL     1       8.094   7.597  18.338  0.00  0.00    +0.000 C 
ENDROOT
BRANCH   1   3
ATOM      2  C   UNL     1       9.038  10.258  18.374  0.00  0.00    +0.000 C 
ATOM      3  C   UNL     1       8.602   9.029  18.357  0.00  0.00    +0.000 C 
BRANCH   2   4
ATOM      4  C   UNL     1       9.546  11.691  18.393  0.00  0.00    +0.000 C 
BRANCH   4   6
ATOM      5  C   UNL     1      11.597  12.708  17.665  0.00  0.00    +0.000 C 
ATOM      6  N   UNL     1      11.007  11.729  18.579  0.00  0.00    +0.000 NA
ATOM      7  C   UNL     1      11.381  12.057  19.957  0.00  0.00    +0.000 C 
ENDBRANCH   4   6
ENDBRANCH   2   4
ENDBRANCH   1   3
BRANCH   1   8
ATOM      8  C   UNL     1       6.968   7.431  17.323  0.00  0.00    +0.000 C 
BRANCH   8   9
ATOM      9  C   UNL     1       6.973   6.059  16.631  0.00  0.00    +0.000 C 
ATOM     10  S   UNL     1       7.391   4.715  17.795  0.00  0.00    +0.000 S 
ATOM     11  C   UNL     1       5.926   4.751  18.870  0.00  0.00    +0.000 C 
ATOM     12  C   UNL     1       4.613   4.528  18.133  0.00  0.00    +0.000 C 
ATOM     13  C   UNL     1       4.270   5.586  17.095  0.00  0.00    +0.000 C 
ATOM     14  S   UNL     1       5.450   5.634  15.719  0.00  0.00    +0.000 S 
ENDBRANCH   8   9
ENDBRANCH   1   8
TORSDOF 5
ENDMDL
