MODEL 1
REMARK VINA RESULT:      -7.8      0.000      0.000
REMARK  Name = 
REMARK  8 active torsions:
REMARK  status: ('A' for Active; 'I' for Inactive)
REMARK    1  A    between atoms: C_1  and  C_2
REMARK    2  A    between atoms: C_2  and  C_3
REMARK    3  A    between atoms: C_2  and  C_4
REMARK    4  A    between atoms: C_2  and  C_5
REMARK    5  A    between atoms: C_10  and  C_12
REMARK    6  A    between atoms: C_12  and  C_13
REMARK    7  A    between atoms: N_15  and  C_16
REMARK    8  A    between atoms: C_16  and  C_17
REMARK                            x       y       z     vdW  Elec       q    Type
REMARK                         _______ _______ _______ _____ _____    ______ ____
ROOT
ATOM      1  C   UNL     1       2.723   6.795  18.121  0.00  0.00    +0.000 A 
ATOM      2  C   UNL     1       4.005   7.040  17.674  0.00  0.00    +0.000 A 
ATOM      3  N   UNL     1       4.820   6.028  18.115  0.00  0.00    +0.000 N 
ATOM      4  C   UNL     1       4.098   5.156  18.912  0.00  0.00    +0.000 A 
ATOM      5  C   UNL     1       4.485   3.999  19.610  0.00  0.00    +0.000 A 
ATOM      6  C   UNL     1       3.500   3.287  20.305  0.00  0.00    +0.000 A 
ATOM      7  C   UNL     1       2.176   3.707  20.290  0.00  0.00    +0.000 A 
ATOM      8 CL   UNL     1       0.978   2.781  21.109  0.00  0.00    +0.000 Cl
ATOM      9  C   UNL     1       1.797   4.864  19.608  0.00  0.00    +0.000 A 
ATOM     10  C   UNL     1       2.777   5.611  18.920  0.00  0.00    +0.000 A 
ENDROOT
BRANCH   1  11
ATOM     11  C   UNL     1       1.502   7.583  17.783  0.00  0.00    +0.000 C 
BRANCH  11  17
ATOM     12  C   UNL     1       1.446  12.844  20.082  0.00  0.00    +0.000 A 
ATOM     13  C   UNL     1       0.476  12.674  21.056  0.00  0.00    +0.000 A 
ATOM     14  S   UNL     1      -0.047  11.035  21.092  0.00  0.00    +0.000 S 
ATOM     15  C   UNL     1       1.001  10.700  19.792  0.00  0.00    +0.000 A 
ATOM     16  N   UNL     1       0.960   9.422  19.322  0.00  0.00    +0.000 N 
ATOM     17  C   UNL     1       1.592   9.063  18.149  0.00  0.00    +0.000 C 
ATOM     18  O   UNL     1       2.232   9.811  17.414  0.00  0.00    +0.000 OA
ATOM     19  N   UNL     1       1.735  11.690  19.375  0.00  0.00    +0.000 NA
ATOM     20  H   UNL     1       0.359   8.781  19.814  0.00  0.00    +0.000 HD
BRANCH  12  22
ATOM     21  C   UNL     1       3.355  14.299  20.759  0.00  0.00    +0.000 C 
ATOM     22  C   UNL     1       2.232  14.095  19.725  0.00  0.00    +0.000 C 
ATOM     23  C   UNL     1       1.335  15.344  19.694  0.00  0.00    +0.000 C 
ATOM     24  C   UNL     1       2.877  13.943  18.328  0.00  0.00    +0.000 C 
ENDBRANCH  12  22
ENDBRANCH  11  17
ENDBRANCH   1  11
BRANCH   3  25
ATOM     25  C   UNL     1       6.176   5.813  17.617  0.00  0.00    +0.000 C 
BRANCH  25  26
ATOM     26  C   UNL     1       6.266   5.369  16.185  0.00  0.00    +0.000 A 
ATOM     27  C   UNL     1       5.320   4.467  15.678  0.00  0.00    +0.000 A 
ATOM     28  C   UNL     1       5.482   3.926  14.406  0.00  0.00    +0.000 A 
ATOM     29  C   UNL     1       6.592   4.303  13.672  0.00  0.00    +0.000 A 
ATOM     30  N   UNL     1       7.512   5.185  14.113  0.00  0.00    +0.000 NA
ATOM     31  C   UNL     1       7.329   5.697  15.352  0.00  0.00    +0.000 A 
ENDBRANCH  25  26
ENDBRANCH   3  25
TORSDOF 5
ENDMDL
MODEL 2
REMARK VINA RESULT:      -7.7      4.412      6.427
REMARK  Name = 
REMARK  8 active torsions:
REMARK  status: ('A' for Active; 'I' for Inactive)
REMARK    1  A    between atoms: C_1  and  C_2
REMARK    2  A    between atoms: C_2  and  C_3
REMARK    3  A    between atoms: C_2  and  C_4
REMARK    4  A    between atoms: C_2  and  C_5
REMARK    5  A    between atoms: C_10  and  C_12
REMARK    6  A    between atoms: C_12  and  C_13
REMARK    7  A    between atoms: N_15  and  C_16
REMARK    8  A    between atoms: C_16  and  C_17
REMARK                            x       y       z     vdW  Elec       q    Type
REMARK                         _______ _______ _______ _____ _____    ______ ____
ROOT
ATOM      1  C   UNL     1       0.475   9.638  18.521  0.00  0.00    +0.000 A 
ATOM      2  C   UNL     1       1.453   8.731  18.171  0.00  0.00    +0.000 A 
ATOM      3  N   UNL     1       1.939   8.152  19.317  0.00  0.00    +0.000 N 
ATOM      4  C   UNL     1       1.339   8.724  20.424  0.00  0.00    +0.000 A 
ATOM      5  C   UNL     1       1.518   8.497  21.800  0.00  0.00    +0.000 A 
ATOM      6  C   UNL     1       0.716   9.210  22.697  0.00  0.00    +0.000 A 
ATOM      7  C   UNL     1      -0.241  10.108  22.237  0.00  0.00    +0.000 A 
ATOM      8 CL   UNL     1      -1.251  10.931  23.362  0.00  0.00    +0.000 Cl
ATOM      9  C   UNL     1      -0.407  10.342  20.871  0.00  0.00    +0.000 A 
ATOM     10  C   UNL     1       0.407   9.652  19.949  0.00  0.00    +0.000 A 
ENDROOT
BRANCH   1  11
ATOM     11  C   UNL     1      -0.390  10.411  17.584  0.00  0.00    +0.000 C 
BRANCH  11  17
ATOM     12  C   UNL     1      -5.359  12.290  19.764  0.00  0.00    +0.000 A 
ATOM     13  C   UNL     1      -4.897  13.302  20.588  0.00  0.00    +0.000 A 
ATOM     14  S   UNL     1      -3.195  13.483  20.406  0.00  0.00    +0.000 S 
ATOM     15  C   UNL     1      -3.201  12.183  19.307  0.00  0.00    +0.000 A 
ATOM     16  N   UNL     1      -1.979  11.816  18.828  0.00  0.00    +0.000 N 
ATOM     17  C   UNL     1      -1.806  10.657  18.100  0.00  0.00    +0.000 C 
ATOM     18  O   UNL     1      -2.684   9.846  17.812  0.00  0.00    +0.000 OA
ATOM     19  N   UNL     1      -4.364  11.667  19.032  0.00  0.00    +0.000 NA
ATOM     20  H   UNL     1      -1.194  12.376  19.122  0.00  0.00    +0.000 HD
BRANCH  12  22
ATOM     21  C   UNL     1      -7.634  12.980  19.013  0.00  0.00    +0.000 C 
ATOM     22  C   UNL     1      -6.786  11.811  19.547  0.00  0.00    +0.000 C 
ATOM     23  C   UNL     1      -7.413  11.277  20.846  0.00  0.00    +0.000 C 
ATOM     24  C   UNL     1      -6.816  10.670  18.505  0.00  0.00    +0.000 C 
ENDBRANCH  12  22
ENDBRANCH  11  17
ENDBRANCH   1  11
BRANCH   3  25
ATOM     25  C   UNL     1       2.790   6.964  19.319  0.00  0.00    +0.000 C 
BRANCH  25  26
ATOM     26  C   UNL     1       2.058   5.658  19.201  0.00  0.00    +0.000 A 
ATOM     27  C   UNL     1       1.593   5.016  20.357  0.00  0.00    +0.000 A 
ATOM     28  C   UNL     1       1.057   3.734  20.278  0.00  0.00    +0.000 A 
ATOM     29  C   UNL     1       1.001   3.125  19.037  0.00  0.00    +0.000 A 
ATOM     30  N   UNL     1       1.415   3.716  17.897  0.00  0.00    +0.000 NA
ATOM     31  C   UNL     1       1.930   4.963  18.003  0.00  0.00    +0.000 A 
ENDBRANCH  25  26
ENDBRANCH   3  25
TORSDOF 5
ENDMDL
MODEL 3
REMARK VINA RESULT:      -7.7      3.482      9.643
REMARK  Name = 
REMARK  8 active torsions:
REMARK  status: ('A' for Active; 'I' for Inactive)
REMARK    1  A    between atoms: C_1  and  C_2
REMARK    2  A    between atoms: C_2  and  C_3
REMARK    3  A    between atoms: C_2  and  C_4
REMARK    4  A    between atoms: C_2  and  C_5
REMARK    5  A    between atoms: C_10  and  C_12
REMARK    6  A    between atoms: C_12  and  C_13
REMARK    7  A    between atoms: N_15  and  C_16
REMARK    8  A    between atoms: C_16  and  C_17
REMARK                            x       y       z     vdW  Elec       q    Type
REMARK                         _______ _______ _______ _____ _____    ______ ____
ROOT
ATOM      1  C   UNL     1       0.327   9.661  20.681  0.00  0.00    +0.000 A 
ATOM      2  C   UNL     1       0.628  10.700  21.536  0.00  0.00    +0.000 A 
ATOM      3  N   UNL     1       0.051  11.846  21.047  0.00  0.00    +0.000 N 
ATOM      4  C   UNL     1      -0.567  11.582  19.837  0.00  0.00    +0.000 A 
ATOM      5  C   UNL     1      -1.258  12.419  18.945  0.00  0.00    +0.000 A 
ATOM      6  C   UNL     1      -1.825  11.843  17.803  0.00  0.00    +0.000 A 
ATOM      7  C   UNL     1      -1.716  10.478  17.567  0.00  0.00    +0.000 A 
ATOM      8 CL   UNL     1      -2.469   9.788  16.181  0.00  0.00    +0.000 Cl
ATOM      9  C   UNL     1      -1.016   9.651  18.447  0.00  0.00    +0.000 A 
ATOM     10  C   UNL     1      -0.417  10.214  19.593  0.00  0.00    +0.000 A 
ENDROOT
BRANCH   1  11
ATOM     11  C   UNL     1       0.661   8.221  20.887  0.00  0.00    +0.000 C 
BRANCH  11  17
ATOM     12  C   UNL     1       4.667   5.358  17.934  0.00  0.00    +0.000 A 
ATOM     13  C   UNL     1       4.788   4.225  18.721  0.00  0.00    +0.000 A 
ATOM     14  S   UNL     1       3.642   4.272  20.005  0.00  0.00    +0.000 S 
ATOM     15  C   UNL     1       3.125   5.797  19.453  0.00  0.00    +0.000 A 
ATOM     16  N   UNL     1       2.159   6.395  20.206  0.00  0.00    +0.000 N 
ATOM     17  C   UNL     1       1.796   7.710  20.002  0.00  0.00    +0.000 C 
ATOM     18  O   UNL     1       2.275   8.473  19.166  0.00  0.00    +0.000 OA
ATOM     19  N   UNL     1       3.697   6.242  18.372  0.00  0.00    +0.000 NA
ATOM     20  H   UNL     1       1.802   5.864  20.983  0.00  0.00    +0.000 HD
BRANCH  12  22
ATOM     21  C   UNL     1       6.895   6.007  17.022  0.00  0.00    +0.000 C 
ATOM     22  C   UNL     1       5.423   5.726  16.667  0.00  0.00    +0.000 C 
ATOM     23  C   UNL     1       4.819   6.962  15.980  0.00  0.00    +0.000 C 
ATOM     24  C   UNL     1       5.378   4.556  15.657  0.00  0.00    +0.000 C 
ENDBRANCH  12  22
ENDBRANCH  11  17
ENDBRANCH   1  11
BRANCH   3  25
ATOM     25  C   UNL     1      -0.066  13.080  21.819  0.00  0.00    +0.000 C 
BRANCH  25  26
ATOM     26  C   UNL     1      -1.409  13.311  22.451  0.00  0.00    +0.000 A 
ATOM     27  C   UNL     1      -2.023  12.278  23.172  0.00  0.00    +0.000 A 
ATOM     28  C   UNL     1      -3.331  12.424  23.625  0.00  0.00    +0.000 A 
ATOM     29  C   UNL     1      -3.993  13.605  23.342  0.00  0.00    +0.000 A 
ATOM     30  N   UNL     1      -3.431  14.631  22.671  0.00  0.00    +0.000 NA
ATOM     31  C   UNL     1      -2.158  14.464  22.245  0.00  0.00    +0.000 A 
ENDBRANCH  25  26
ENDBRANCH   3  25
TORSDOF 5
ENDMDL
MODEL 4
REMARK VINA RESULT:      -7.7      3.081      5.240
REMARK  Name = 
REMARK  8 active torsions:
REMARK  status: ('A' for Active; 'I' for Inactive)
REMARK    1  A    between atoms: C_1  and  C_2
REMARK    2  A    between atoms: C_2  and  C_3
REMARK    3  A    between atoms: C_2  and  C_4
REMARK    4  A    between atoms: C_2  and  C_5
REMARK    5  A    between atoms: C_10  and  C_12
REMARK    6  A    between atoms: C_12  and  C_13
REMARK    7  A    between atoms: N_15  and  C_16
REMARK    8  A    between atoms: C_16  and  C_17
REMARK                            x       y       z     vdW  Elec       q    Type
REMARK                         _______ _______ _______ _____ _____    ______ ____
ROOT
ATOM      1  C   UNL     1       4.088   6.129  17.334  0.00  0.00    +0.000 A 
ATOM      2  C   UNL     1       3.218   5.179  17.826  0.00  0.00    +0.000 A 
ATOM      3  N   UNL     1       3.481   3.984  17.204  0.00  0.00    +0.000 N 
ATOM      4  C   UNL     1       4.470   4.157  16.253  0.00  0.00    +0.000 A 
ATOM      5  C   UNL     1       5.058   3.255  15.349  0.00  0.00    +0.000 A 
ATOM      6  C   UNL     1       6.090   3.721  14.527  0.00  0.00    +0.000 A 
ATOM      7  C   UNL     1       6.528   5.037  14.614  0.00  0.00    +0.000 A 
ATOM      8 CL   UNL     1       7.835   5.568  13.628  0.00  0.00    +0.000 Cl
ATOM      9  C   UNL     1       5.933   5.935  15.502  0.00  0.00    +0.000 A 
ATOM     10  C   UNL     1       4.875   5.493  16.324  0.00  0.00    +0.000 A 
ENDROOT
BRANCH   1  11
ATOM     11  C   UNL     1       4.224   7.536  17.809  0.00  0.00    +0.000 C 
BRANCH  11  17
ATOM     12  C   UNL     1      -0.544  10.167  19.630  0.00  0.00    +0.000 A 
ATOM     13  C   UNL     1      -0.622   9.665  20.919  0.00  0.00    +0.000 A 
ATOM     14  S   UNL     1       0.749   8.681  21.256  0.00  0.00    +0.000 S 
ATOM     15  C   UNL     1       1.300   8.950  19.667  0.00  0.00    +0.000 A 
ATOM     16  N   UNL     1       2.447   8.299  19.328  0.00  0.00    +0.000 N 
ATOM     17  C   UNL     1       2.894   8.255  18.023  0.00  0.00    +0.000 C 
ATOM     18  O   UNL     1       2.340   8.763  17.051  0.00  0.00    +0.000 OA
ATOM     19  N   UNL     1       0.576   9.746  18.935  0.00  0.00    +0.000 NA
ATOM     20  H   UNL     1       2.894   7.765  20.056  0.00  0.00    +0.000 HD
BRANCH  12  22
ATOM     21  C   UNL     1      -0.667  12.128  18.096  0.00  0.00    +0.000 C 
ATOM     22  C   UNL     1      -1.491  11.118  18.916  0.00  0.00    +0.000 C 
ATOM     23  C   UNL     1      -2.391  11.877  19.906  0.00  0.00    +0.000 C 
ATOM     24  C   UNL     1      -2.408  10.336  17.949  0.00  0.00    +0.000 C 
ENDBRANCH  12  22
ENDBRANCH  11  17
ENDBRANCH   1  11
BRANCH   3  25
ATOM     25  C   UNL     1       2.941   2.705  17.659  0.00  0.00    +0.000 C 
BRANCH  25  26
ATOM     26  C   UNL     1       2.559   2.656  19.111  0.00  0.00    +0.000 A 
ATOM     27  C   UNL     1       1.243   2.952  19.493  0.00  0.00    +0.000 A 
ATOM     28  C   UNL     1       0.915   3.065  20.841  0.00  0.00    +0.000 A 
ATOM     29  C   UNL     1       1.918   2.880  21.775  0.00  0.00    +0.000 A 
ATOM     30  N   UNL     1       3.191   2.572  21.451  0.00  0.00    +0.000 NA
ATOM     31  C   UNL     1       3.481   2.465  20.134  0.00  0.00    +0.000 A 
ENDBRANCH  25  26
ENDBRANCH   3  25
TORSDOF 5
ENDMDL
MODEL 5
REMARK VINA RESULT:      -7.7      3.704      9.926
REMARK  Name = 
REMARK  8 active torsions:
REMARK  status: ('A' for Active; 'I' for Inactive)
REMARK    1  A    between atoms: C_1  and  C_2
REMARK    2  A    between atoms: C_2  and  C_3
REMARK    3  A    between atoms: C_2  and  C_4
REMARK    4  A    between atoms: C_2  and  C_5
REMARK    5  A    between atoms: C_10  and  C_12
REMARK    6  A    between atoms: C_12  and  C_13
REMARK    7  A    between atoms: N_15  and  C_16
REMARK    8  A    between atoms: C_16  and  C_17
REMARK                            x       y       z     vdW  Elec       q    Type
REMARK                         _______ _______ _______ _____ _____    ______ ____
ROOT
ATOM      1  C   UNL     1      -0.195   9.830  21.314  0.00  0.00    +0.000 A 
ATOM      2  C   UNL     1       0.001  10.868  22.201  0.00  0.00    +0.000 A 
ATOM      3  N   UNL     1      -0.436  12.029  21.614  0.00  0.00    +0.000 N 
ATOM      4  C   UNL     1      -0.851  11.775  20.319  0.00  0.00    +0.000 A 
ATOM      5  C   UNL     1      -1.346  12.627  19.318  0.00  0.00    +0.000 A 
ATOM      6  C   UNL     1      -1.736  12.060  18.099  0.00  0.00    +0.000 A 
ATOM      7  C   UNL     1      -1.647  10.688  17.894  0.00  0.00    +0.000 A 
ATOM      8 CL   UNL     1      -2.184  10.011  16.405  0.00  0.00    +0.000 Cl
ATOM      9  C   UNL     1      -1.141   9.845  18.885  0.00  0.00    +0.000 A 
ATOM     10  C   UNL     1      -0.720  10.399  20.113  0.00  0.00    +0.000 A 
ENDROOT
BRANCH   1  11
ATOM     11  C   UNL     1       0.038   8.381  21.582  0.00  0.00    +0.000 C 
BRANCH  11  17
ATOM     12  C   UNL     1       3.968   5.198  18.864  0.00  0.00    +0.000 A 
ATOM     13  C   UNL     1       3.821   3.999  19.540  0.00  0.00    +0.000 A 
ATOM     14  S   UNL     1       2.529   4.111  20.672  0.00  0.00    +0.000 S 
ATOM     15  C   UNL     1       2.311   5.739  20.220  0.00  0.00    +0.000 A 
ATOM     16  N   UNL     1       1.345   6.412  20.906  0.00  0.00    +0.000 N 
ATOM     17  C   UNL     1       1.200   7.779  20.796  0.00  0.00    +0.000 C 
ATOM     18  O   UNL     1       1.891   8.527  20.107  0.00  0.00    +0.000 OA
ATOM     19  N   UNL     1       3.082   6.180  19.269  0.00  0.00    +0.000 NA
ATOM     20  H   UNL     1       0.814   5.878  21.576  0.00  0.00    +0.000 HD
BRANCH  12  22
ATOM     21  C   UNL     1       4.538   6.914  17.146  0.00  0.00    +0.000 C 
ATOM     22  C   UNL     1       4.934   5.551  17.744  0.00  0.00    +0.000 C 
ATOM     23  C   UNL     1       4.934   4.487  16.633  0.00  0.00    +0.000 C 
ATOM     24  C   UNL     1       6.376   5.659  18.292  0.00  0.00    +0.000 C 
ENDBRANCH  12  22
ENDBRANCH  11  17
ENDBRANCH   1  11
BRANCH   3  25
ATOM     25  C   UNL     1      -0.629  13.278  22.348  0.00  0.00    +0.000 C 
BRANCH  25  26
ATOM     26  C   UNL     1      -2.038  13.540  22.797  0.00  0.00    +0.000 A 
ATOM     27  C   UNL     1      -2.733  12.555  23.512  0.00  0.00    +0.000 A 
ATOM     28  C   UNL     1      -4.086  12.720  23.795  0.00  0.00    +0.000 A 
ATOM     29  C   UNL     1      -4.710  13.872  23.352  0.00  0.00    +0.000 A 
ATOM     30  N   UNL     1      -4.073  14.854  22.682  0.00  0.00    +0.000 NA
ATOM     31  C   UNL     1      -2.758  14.669  22.423  0.00  0.00    +0.000 A 
ENDBRANCH  25  26
ENDBRANCH   3  25
TORSDOF 5
ENDMDL
MODEL 6
REMARK VINA RESULT:      -7.7      3.528      9.778
REMARK  Name = 
REMARK  8 active torsions:
REMARK  status: ('A' for Active; 'I' for Inactive)
REMARK    1  A    between atoms: C_1  and  C_2
REMARK    2  A    between atoms: C_2  and  C_3
REMARK    3  A    between atoms: C_2  and  C_4
REMARK    4  A    between atoms: C_2  and  C_5
REMARK    5  A    between atoms: C_10  and  C_12
REMARK    6  A    between atoms: C_12  and  C_13
REMARK    7  A    between atoms: N_15  and  C_16
REMARK    8  A    between atoms: C_16  and  C_17
REMARK                            x       y       z     vdW  Elec       q    Type
REMARK                         _______ _______ _______ _____ _____    ______ ____
ROOT
ATOM      1  C   UNL     1       0.476  10.977  19.426  0.00  0.00    +0.000 A 
ATOM      2  C   UNL     1      -0.221  10.908  20.615  0.00  0.00    +0.000 A 
ATOM      3  N   UNL     1       0.078  12.021  21.359  0.00  0.00    +0.000 N 
ATOM      4  C   UNL     1       1.024  12.788  20.700  0.00  0.00    +0.000 A 
ATOM      5  C   UNL     1       1.663  13.986  21.060  0.00  0.00    +0.000 A 
ATOM      6  C   UNL     1       2.555  14.559  20.147  0.00  0.00    +0.000 A 
ATOM      7  C   UNL     1       2.791  13.963  18.914  0.00  0.00    +0.000 A 
ATOM      8 CL   UNL     1       3.852  14.718  17.789  0.00  0.00    +0.000 Cl
ATOM      9  C   UNL     1       2.166  12.765  18.564  0.00  0.00    +0.000 A 
ATOM     10  C   UNL     1       1.279  12.157  19.479  0.00  0.00    +0.000 A 
ENDROOT
BRANCH   1  11
ATOM     11  C   UNL     1       0.363  10.030  18.279  0.00  0.00    +0.000 C 
BRANCH  11  17
ATOM     12  C   UNL     1       4.523   6.084  17.976  0.00  0.00    +0.000 A 
ATOM     13  C   UNL     1       4.214   5.318  19.088  0.00  0.00    +0.000 A 
ATOM     14  S   UNL     1       2.765   5.892  19.818  0.00  0.00    +0.000 S 
ATOM     15  C   UNL     1       2.698   7.129  18.650  0.00  0.00    +0.000 A 
ATOM     16  N   UNL     1       1.668   8.010  18.790  0.00  0.00    +0.000 N 
ATOM     17  C   UNL     1       1.606   9.173  18.051  0.00  0.00    +0.000 C 
ATOM     18  O   UNL     1       2.432   9.548  17.221  0.00  0.00    +0.000 OA
ATOM     19  N   UNL     1       3.630   7.114  17.742  0.00  0.00    +0.000 NA
ATOM     20  H   UNL     1       1.013   7.822  19.532  0.00  0.00    +0.000 HD
BRANCH  12  22
ATOM     21  C   UNL     1       6.027   4.427  16.876  0.00  0.00    +0.000 C 
ATOM     22  C   UNL     1       5.670   5.920  16.991  0.00  0.00    +0.000 C 
ATOM     23  C   UNL     1       6.915   6.710  17.429  0.00  0.00    +0.000 C 
ATOM     24  C   UNL     1       5.254   6.432  15.593  0.00  0.00    +0.000 C 
ENDBRANCH  12  22
ENDBRANCH  11  17
ENDBRANCH   1  11
BRANCH   3  25
ATOM     25  C   UNL     1      -0.671  12.418  22.549  0.00  0.00    +0.000 C 
BRANCH  25  26
ATOM     26  C   UNL     1      -2.158  12.515  22.362  0.00  0.00    +0.000 A 
ATOM     27  C   UNL     1      -2.674  13.141  21.219  0.00  0.00    +0.000 A 
ATOM     28  C   UNL     1      -4.041  13.378  21.110  0.00  0.00    +0.000 A 
ATOM     29  C   UNL     1      -4.859  12.982  22.152  0.00  0.00    +0.000 A 
ATOM     30  N   UNL     1      -4.406  12.356  23.258  0.00  0.00    +0.000 NA
ATOM     31  C   UNL     1      -3.073  12.135  23.338  0.00  0.00    +0.000 A 
ENDBRANCH  25  26
ENDBRANCH   3  25
TORSDOF 5
ENDMDL
MODEL 7
REMARK VINA RESULT:      -7.6      4.178      9.823
REMARK  Name = 
REMARK  8 active torsions:
REMARK  status: ('A' for Active; 'I' for Inactive)
REMARK    1  A    between atoms: C_1  and  C_2
REMARK    2  A    between atoms: C_2  and  C_3
REMARK    3  A    between atoms: C_2  and  C_4
REMARK    4  A    between atoms: C_2  and  C_5
REMARK    5  A    between atoms: C_10  and  C_12
REMARK    6  A    between atoms: C_12  and  C_13
REMARK    7  A    between atoms: N_15  and  C_16
REMARK    8  A    between atoms: C_16  and  C_17
REMARK                            x       y       z     vdW  Elec       q    Type
REMARK                         _______ _______ _______ _____ _____    ______ ____
ROOT
ATOM      1  C   UNL     1       0.326  10.463  20.299  0.00  0.00    +0.000 A 
ATOM      2  C   UNL     1      -0.763  10.084  19.542  0.00  0.00    +0.000 A 
ATOM      3  N   UNL     1      -1.103  11.127  18.717  0.00  0.00    +0.000 N 
ATOM      4  C   UNL     1      -0.291  12.216  18.976  0.00  0.00    +0.000 A 
ATOM      5  C   UNL     1      -0.265  13.508  18.424  0.00  0.00    +0.000 A 
ATOM      6  C   UNL     1       0.724  14.395  18.864  0.00  0.00    +0.000 A 
ATOM      7  C   UNL     1       1.661  14.002  19.812  0.00  0.00    +0.000 A 
ATOM      8 CL   UNL     1       2.899  15.096  20.295  0.00  0.00    +0.000 Cl
ATOM      9  C   UNL     1       1.625  12.723  20.370  0.00  0.00    +0.000 A 
ATOM     10  C   UNL     1       0.622  11.819  19.958  0.00  0.00    +0.000 A 
ENDROOT
BRANCH   1  11
ATOM     11  C   UNL     1       1.088   9.600  21.248  0.00  0.00    +0.000 C 
BRANCH  11  17
ATOM     12  C   UNL     1       2.645   4.590  18.915  0.00  0.00    +0.000 A 
ATOM     13  C   UNL     1       3.347   5.043  17.811  0.00  0.00    +0.000 A 
ATOM     14  S   UNL     1       3.443   6.761  17.834  0.00  0.00    +0.000 S 
ATOM     15  C   UNL     1       2.509   6.768  19.257  0.00  0.00    +0.000 A 
ATOM     16  N   UNL     1       2.201   8.001  19.749  0.00  0.00    +0.000 N 
ATOM     17  C   UNL     1       1.284   8.164  20.767  0.00  0.00    +0.000 C 
ATOM     18  O   UNL     1       0.656   7.268  21.326  0.00  0.00    +0.000 OA
ATOM     19  N   UNL     1       2.181   5.603  19.735  0.00  0.00    +0.000 NA
ATOM     20  H   UNL     1       2.595   8.790  19.263  0.00  0.00    +0.000 HD
BRANCH  12  22
ATOM     21  C   UNL     1       2.331   2.256  18.097  0.00  0.00    +0.000 C 
ATOM     22  C   UNL     1       2.356   3.160  19.343  0.00  0.00    +0.000 C 
ATOM     23  C   UNL     1       1.013   3.046  20.084  0.00  0.00    +0.000 C 
ATOM     24  C   UNL     1       3.464   2.650  20.294  0.00  0.00    +0.000 C 
ENDBRANCH  12  22
ENDBRANCH  11  17
ENDBRANCH   1  11
BRANCH   3  25
ATOM     25  C   UNL     1      -2.032  10.995  17.597  0.00  0.00    +0.000 C 
BRANCH  25  26
ATOM     26  C   UNL     1      -3.397  11.574  17.832  0.00  0.00    +0.000 A 
ATOM     27  C   UNL     1      -3.760  11.999  19.117  0.00  0.00    +0.000 A 
ATOM     28  C   UNL     1      -5.069  12.387  19.382  0.00  0.00    +0.000 A 
ATOM     29  C   UNL     1      -5.987  12.339  18.349  0.00  0.00    +0.000 A 
ATOM     30  N   UNL     1      -5.675  11.958  17.093  0.00  0.00    +0.000 NA
ATOM     31  C   UNL     1      -4.394  11.589  16.862  0.00  0.00    +0.000 A 
ENDBRANCH  25  26
ENDBRANCH   3  25
TORSDOF 5
ENDMDL
MODEL 8
REMARK VINA RESULT:      -7.6      3.388      9.691
REMARK  Name = 
REMARK  8 active torsions:
REMARK  status: ('A' for Active; 'I' for Inactive)
REMARK    1  A    between atoms: C_1  and  C_2
REMARK    2  A    between atoms: C_2  and  C_3
REMARK    3  A    between atoms: C_2  and  C_4
REMARK    4  A    between atoms: C_2  and  C_5
REMARK    5  A    between atoms: C_10  and  C_12
REMARK    6  A    between atoms: C_12  and  C_13
REMARK    7  A    between atoms: N_15  and  C_16
REMARK    8  A    between atoms: C_16  and  C_17
REMARK                            x       y       z     vdW  Elec       q    Type
REMARK                         _______ _______ _______ _____ _____    ______ ____
ROOT
ATOM      1  C   UNL     1       0.692  10.253  19.303  0.00  0.00    +0.000 A 
ATOM      2  C   UNL     1       0.025  10.005  20.485  0.00  0.00    +0.000 A 
ATOM      3  N   UNL     1       0.111  11.124  21.275  0.00  0.00    +0.000 N 
ATOM      4  C   UNL     1       0.892  12.081  20.652  0.00  0.00    +0.000 A 
ATOM      5  C   UNL     1       1.294  13.364  21.063  0.00  0.00    +0.000 A 
ATOM      6  C   UNL     1       2.060  14.131  20.178  0.00  0.00    +0.000 A 
ATOM      7  C   UNL     1       2.399  13.641  18.922  0.00  0.00    +0.000 A 
ATOM      8 CL   UNL     1       3.295  14.628  17.834  0.00  0.00    +0.000 Cl
ATOM      9  C   UNL     1       2.010  12.362  18.522  0.00  0.00    +0.000 A 
ATOM     10  C   UNL     1       1.258  11.561  19.407  0.00  0.00    +0.000 A 
ENDROOT
BRANCH   1  11
ATOM     11  C   UNL     1       0.756   9.349  18.118  0.00  0.00    +0.000 C 
BRANCH  11  17
ATOM     12  C   UNL     1       5.229   5.750  18.027  0.00  0.00    +0.000 A 
ATOM     13  C   UNL     1       4.876   4.896  19.058  0.00  0.00    +0.000 A 
ATOM     14  S   UNL     1       3.322   5.315  19.668  0.00  0.00    +0.000 S 
ATOM     15  C   UNL     1       3.269   6.613  18.567  0.00  0.00    +0.000 A 
ATOM     16  N   UNL     1       2.163   7.404  18.649  0.00  0.00    +0.000 N 
ATOM     17  C   UNL     1       2.080   8.603  17.971  0.00  0.00    +0.000 C 
ATOM     18  O   UNL     1       2.950   9.088  17.251  0.00  0.00    +0.000 OA
ATOM     19  N   UNL     1       4.283   6.724  17.759  0.00  0.00    +0.000 NA
ATOM     20  H   UNL     1       1.456   7.123  19.310  0.00  0.00    +0.000 HD
BRANCH  12  22
ATOM     21  C   UNL     1       6.060   5.565  15.683  0.00  0.00    +0.000 C 
ATOM     22  C   UNL     1       6.476   5.733  17.156  0.00  0.00    +0.000 C 
ATOM     23  C   UNL     1       7.432   4.594  17.551  0.00  0.00    +0.000 C 
ATOM     24  C   UNL     1       7.247   7.066  17.298  0.00  0.00    +0.000 C 
ENDBRANCH  12  22
ENDBRANCH  11  17
ENDBRANCH   1  11
BRANCH   3  25
ATOM     25  C   UNL     1      -0.695  11.323  22.477  0.00  0.00    +0.000 C 
BRANCH  25  26
ATOM     26  C   UNL     1      -1.715  12.422  22.384  0.00  0.00    +0.000 A 
ATOM     27  C   UNL     1      -2.571  12.483  21.277  0.00  0.00    +0.000 A 
ATOM     28  C   UNL     1      -3.409  13.580  21.100  0.00  0.00    +0.000 A 
ATOM     29  C   UNL     1      -3.366  14.593  22.040  0.00  0.00    +0.000 A 
ATOM     30  N   UNL     1      -2.574  14.564  23.131  0.00  0.00    +0.000 NA
ATOM     31  C   UNL     1      -1.772  13.484  23.280  0.00  0.00    +0.000 A 
ENDBRANCH  25  26
ENDBRANCH   3  25
TORSDOF 5
ENDMDL
MODEL 9
REMARK VINA RESULT:      -7.6      3.116      8.827
REMARK  Name = 
REMARK  8 active torsions:
REMARK  status: ('A' for Active; 'I' for Inactive)
REMARK    1  A    between atoms: C_1  and  C_2
REMARK    2  A    between atoms: C_2  and  C_3
REMARK    3  A    between atoms: C_2  and  C_4
REMARK    4  A    between atoms: C_2  and  C_5
REMARK    5  A    between atoms: C_10  and  C_12
REMARK    6  A    between atoms: C_12  and  C_13
REMARK    7  A    between atoms: N_15  and  C_16
REMARK    8  A    between atoms: C_16  and  C_17
REMARK                            x       y       z     vdW  Elec       q    Type
REMARK                         _______ _______ _______ _____ _____    ______ ____
ROOT
ATOM      1  C   UNL     1       0.373  10.238  20.576  0.00  0.00    +0.000 A 
ATOM      2  C   UNL     1       1.000  11.393  20.995  0.00  0.00    +0.000 A 
ATOM      3  N   UNL     1       0.541  12.438  20.233  0.00  0.00    +0.000 N 
ATOM      4  C   UNL     1      -0.330  11.968  19.266  0.00  0.00    +0.000 A 
ATOM      5  C   UNL     1      -1.028  12.632  18.243  0.00  0.00    +0.000 A 
ATOM      6  C   UNL     1      -1.889  11.881  17.435  0.00  0.00    +0.000 A 
ATOM      7  C   UNL     1      -2.056  10.518  17.650  0.00  0.00    +0.000 A 
ATOM      8 CL   UNL     1      -3.162   9.629  16.676  0.00  0.00    +0.000 Cl
ATOM      9  C   UNL     1      -1.351   9.858  18.657  0.00  0.00    +0.000 A 
ATOM     10  C   UNL     1      -0.459  10.591  19.469  0.00  0.00    +0.000 A 
ENDROOT
BRANCH   1  11
ATOM     11  C   UNL     1       0.495   8.889  21.200  0.00  0.00    +0.000 C 
BRANCH  11  17
ATOM     12  C   UNL     1       3.641   4.626  18.986  0.00  0.00    +0.000 A 
ATOM     13  C   UNL     1       3.367   3.621  19.898  0.00  0.00    +0.000 A 
ATOM     14  S   UNL     1       2.209   4.166  21.048  0.00  0.00    +0.000 S 
ATOM     15  C   UNL     1       2.207   5.689  20.287  0.00  0.00    +0.000 A 
ATOM     16  N   UNL     1       1.419   6.634  20.871  0.00  0.00    +0.000 N 
ATOM     17  C   UNL     1       1.479   7.959  20.493  0.00  0.00    +0.000 C 
ATOM     18  O   UNL     1       2.217   8.433  19.632  0.00  0.00    +0.000 OA
ATOM     19  N   UNL     1       2.954   5.803  19.227  0.00  0.00    +0.000 NA
ATOM     20  H   UNL     1       0.870   6.336  21.662  0.00  0.00    +0.000 HD
BRANCH  12  22
ATOM     21  C   UNL     1       4.107   3.446  16.839  0.00  0.00    +0.000 C 
ATOM     22  C   UNL     1       4.552   4.590  17.769  0.00  0.00    +0.000 C 
ATOM     23  C   UNL     1       6.024   4.382  18.163  0.00  0.00    +0.000 C 
ATOM     24  C   UNL     1       4.457   5.920  16.987  0.00  0.00    +0.000 C 
ENDBRANCH  12  22
ENDBRANCH  11  17
ENDBRANCH   1  11
BRANCH   3  25
ATOM     25  C   UNL     1       0.780  13.841  20.565  0.00  0.00    +0.000 C 
BRANCH  25  26
ATOM     26  C   UNL     1       1.744  14.553  19.659  0.00  0.00    +0.000 A 
ATOM     27  C   UNL     1       1.418  15.821  19.159  0.00  0.00    +0.000 A 
ATOM     28  C   UNL     1       2.224  16.422  18.198  0.00  0.00    +0.000 A 
ATOM     29  C   UNL     1       3.340  15.734  17.758  0.00  0.00    +0.000 A 
ATOM     30  N   UNL     1       3.702  14.523  18.229  0.00  0.00    +0.000 NA
ATOM     31  C   UNL     1       2.902  13.963  19.166  0.00  0.00    +0.000 A 
ENDBRANCH  25  26
ENDBRANCH   3  25
TORSDOF 5
ENDMDL
