MODEL 1
REMARK VINA RESULT:      -7.3      0.000      0.000
REMARK  Name = 
REMARK  11 active torsions:
REMARK  status: ('A' for Active; 'I' for Inactive)
REMARK    1  A    between atoms: C_1  and  C_2
REMARK    2  A    between atoms: C_2  and  C_3
REMARK    3  A    between atoms: C_3  and  C_4
REMARK    4  A    between atoms: C_3  and  C_27
REMARK    5  A    between atoms: C_4  and  O_6
REMARK    6  A    between atoms: O_6  and  C_7
REMARK    7  A    between atoms: C_7  and  C_8
REMARK    8  A    between atoms: C_8  and  C_9
REMARK    9  A    between atoms: C_9  and  O_10
REMARK   10  A    between atoms: C_13  and  C_14
REMARK   11  A    between atoms: C_19  and  C_20
REMARK                            x       y       z     vdW  Elec       q    Type
REMARK                         _______ _______ _______ _____ _____    ______ ____
ROOT
ATOM      1  C   UNL     1       0.516   9.731  20.164  0.00  0.00    +0.000 C 
ATOM      2  C   UNL     1      -0.797  10.323  19.669  0.00  0.00    +0.000 C 
ATOM      3  C   UNL     1      -0.899  11.595  20.433  0.00  0.00    +0.000 C 
ATOM      4  C   UNL     1      -1.980  12.388  20.496  0.00  0.00    +0.000 C 
ATOM      5  C   UNL     1       0.404  11.866  21.076  0.00  0.00    +0.000 C 
ATOM      6  O   UNL     1       0.736  12.847  21.708  0.00  0.00    +0.000 OA
ATOM      7  O   UNL     1       1.201  10.797  20.849  0.00  0.00    +0.000 OA
ENDROOT
BRANCH   4   8
ATOM      8  C   UNL     1      -1.979  13.700  21.147  0.00  0.00    +0.000 A 
ATOM      9  C   UNL     1      -1.519  14.801  20.406  0.00  0.00    +0.000 A 
ATOM     10  C   UNL     1      -1.574  16.090  20.939  0.00  0.00    +0.000 A 
ATOM     11  C   UNL     1      -2.086  16.291  22.216  0.00  0.00    +0.000 A 
ATOM     12  C   UNL     1      -2.539  15.204  22.962  0.00  0.00    +0.000 A 
ATOM     13  C   UNL     1      -2.496  13.894  22.443  0.00  0.00    +0.000 A 
BRANCH  13  14
ATOM     14  C   UNL     1      -3.027  12.781  23.317  0.00  0.00    +0.000 C 
ATOM     15  F   UNL     1      -3.418  13.141  24.573  0.00  0.00    +0.000 F 
ATOM     16  F   UNL     1      -4.127  12.188  22.764  0.00  0.00    +0.000 F 
ATOM     17  F   UNL     1      -2.123  11.775  23.493  0.00  0.00    +0.000 F 
ENDBRANCH  13  14
ENDBRANCH   4   8
BRANCH   1  18
ATOM     18  C   UNL     1       1.420   9.259  19.011  0.00  0.00    +0.000 C 
BRANCH  18  19
ATOM     19  O   UNL     1       1.896   7.934  19.323  0.00  0.00    +0.000 OA
BRANCH  19  20
ATOM     20  C   UNL     1       2.810   7.413  18.451  0.00  0.00    +0.000 C 
ATOM     21  O   UNL     1       3.087   7.904  17.364  0.00  0.00    +0.000 OA
BRANCH  20  22
ATOM     22  C   UNL     1       3.525   6.189  19.045  0.00  0.00    +0.000 C 
BRANCH  22  23
ATOM     23  C   UNL     1       2.556   5.015  19.257  0.00  0.00    +0.000 A 
ATOM     24  C   UNL     1       2.004   4.700  20.512  0.00  0.00    +0.000 A 
ATOM     25  C   UNL     1       1.111   3.636  20.674  0.00  0.00    +0.000 A 
ATOM     26  C   UNL     1       0.751   2.856  19.581  0.00  0.00    +0.000 A 
ATOM     27  C   UNL     1       1.274   3.150  18.328  0.00  0.00    +0.000 A 
ATOM     28  C   UNL     1       2.154   4.225  18.164  0.00  0.00    +0.000 A 
ENDBRANCH  22  23
BRANCH  22  30
ATOM     29  C   UNL     1       5.930   5.251  19.073  0.00  0.00    +0.000 C 
ATOM     30  C   UNL     1       4.789   5.815  18.240  0.00  0.00    +0.000 C 
ENDBRANCH  22  30
ENDBRANCH  20  22
ENDBRANCH  19  20
ENDBRANCH  18  19
ENDBRANCH   1  18
BRANCH   1  31
ATOM     31  C   UNL     1       0.319   8.591  21.183  0.00  0.00    +0.000 C 
BRANCH  31  32
ATOM     32  O   UNL     1       1.457   8.452  22.032  0.00  0.00    +0.000 OA
ATOM     33  H   UNL     1       1.113   8.206  22.912  0.00  0.00    +0.000 HD
ENDBRANCH  31  32
ENDBRANCH   1  31
TORSDOF 10
ENDMDL
MODEL 2
REMARK VINA RESULT:      -7.3      7.061     10.234
REMARK  Name = 
REMARK  11 active torsions:
REMARK  status: ('A' for Active; 'I' for Inactive)
REMARK    1  A    between atoms: C_1  and  C_2
REMARK    2  A    between atoms: C_2  and  C_3
REMARK    3  A    between atoms: C_3  and  C_4
REMARK    4  A    between atoms: C_3  and  C_27
REMARK    5  A    between atoms: C_4  and  O_6
REMARK    6  A    between atoms: O_6  and  C_7
REMARK    7  A    between atoms: C_7  and  C_8
REMARK    8  A    between atoms: C_8  and  C_9
REMARK    9  A    between atoms: C_9  and  O_10
REMARK   10  A    between atoms: C_13  and  C_14
REMARK   11  A    between atoms: C_19  and  C_20
REMARK                            x       y       z     vdW  Elec       q    Type
REMARK                         _______ _______ _______ _____ _____    ______ ____
ROOT
ATOM      1  C   UNL     1       6.953   6.188  16.618  0.00  0.00    +0.000 C 
ATOM      2  C   UNL     1       5.522   6.635  16.352  0.00  0.00    +0.000 C 
ATOM      3  C   UNL     1       4.755   5.965  17.436  0.00  0.00    +0.000 C 
ATOM      4  C   UNL     1       3.418   5.888  17.520  0.00  0.00    +0.000 C 
ATOM      5  C   UNL     1       5.711   5.436  18.433  0.00  0.00    +0.000 C 
ATOM      6  O   UNL     1       5.464   4.906  19.497  0.00  0.00    +0.000 OA
ATOM      7  O   UNL     1       6.958   5.635  17.949  0.00  0.00    +0.000 OA
ENDROOT
BRANCH   4   8
ATOM      8  C   UNL     1       2.715   5.340  18.683  0.00  0.00    +0.000 A 
ATOM      9  C   UNL     1       2.348   6.228  19.707  0.00  0.00    +0.000 A 
ATOM     10  C   UNL     1       1.600   5.785  20.798  0.00  0.00    +0.000 A 
ATOM     11  C   UNL     1       1.214   4.452  20.879  0.00  0.00    +0.000 A 
ATOM     12  C   UNL     1       1.578   3.561  19.870  0.00  0.00    +0.000 A 
ATOM     13  C   UNL     1       2.330   3.987  18.757  0.00  0.00    +0.000 A 
BRANCH  13  14
ATOM     14  C   UNL     1       2.661   2.955  17.704  0.00  0.00    +0.000 C 
ATOM     15  F   UNL     1       2.343   3.286  16.420  0.00  0.00    +0.000 F 
ATOM     16  F   UNL     1       3.998   2.677  17.675  0.00  0.00    +0.000 F 
ATOM     17  F   UNL     1       2.048   1.758  17.932  0.00  0.00    +0.000 F 
ENDBRANCH  13  14
ENDBRANCH   4   8
BRANCH   1  18
ATOM     18  C   UNL     1       7.949   7.361  16.596  0.00  0.00    +0.000 C 
BRANCH  18  19
ATOM     19  O   UNL     1       7.413   8.424  17.410  0.00  0.00    +0.000 OA
BRANCH  19  20
ATOM     20  C   UNL     1       8.244   8.898  18.386  0.00  0.00    +0.000 C 
ATOM     21  O   UNL     1       8.975   8.196  19.074  0.00  0.00    +0.000 OA
BRANCH  20  22
ATOM     22  C   UNL     1       8.226  10.434  18.448  0.00  0.00    +0.000 C 
BRANCH  22  23
ATOM     23  C   UNL     1       9.585  10.998  18.895  0.00  0.00    +0.000 A 
ATOM     24  C   UNL     1      10.660  11.187  18.008  0.00  0.00    +0.000 A 
ATOM     25  C   UNL     1      11.880  11.718  18.438  0.00  0.00    +0.000 A 
ATOM     26  C   UNL     1      12.056  12.069  19.771  0.00  0.00    +0.000 A 
ATOM     27  C   UNL     1      11.008  11.901  20.668  0.00  0.00    +0.000 A 
ATOM     28  C   UNL     1       9.782  11.385  20.233  0.00  0.00    +0.000 A 
ENDBRANCH  22  23
BRANCH  22  30
ATOM     29  C   UNL     1       7.599  12.573  17.147  0.00  0.00    +0.000 C 
ATOM     30  C   UNL     1       7.696  11.056  17.137  0.00  0.00    +0.000 C 
ENDBRANCH  22  30
ENDBRANCH  20  22
ENDBRANCH  19  20
ENDBRANCH  18  19
ENDBRANCH   1  18
BRANCH   1  31
ATOM     31  C   UNL     1       7.427   5.074  15.665  0.00  0.00    +0.000 C 
BRANCH  31  32
ATOM     32  O   UNL     1       7.718   5.590  14.368  0.00  0.00    +0.000 OA
ATOM     33  H   UNL     1       7.771   4.818  13.771  0.00  0.00    +0.000 HD
ENDBRANCH  31  32
ENDBRANCH   1  31
TORSDOF 10
ENDMDL
MODEL 3
REMARK VINA RESULT:      -7.3      4.238      9.327
REMARK  Name = 
REMARK  11 active torsions:
REMARK  status: ('A' for Active; 'I' for Inactive)
REMARK    1  A    between atoms: C_1  and  C_2
REMARK    2  A    between atoms: C_2  and  C_3
REMARK    3  A    between atoms: C_3  and  C_4
REMARK    4  A    between atoms: C_3  and  C_27
REMARK    5  A    between atoms: C_4  and  O_6
REMARK    6  A    between atoms: O_6  and  C_7
REMARK    7  A    between atoms: C_7  and  C_8
REMARK    8  A    between atoms: C_8  and  C_9
REMARK    9  A    between atoms: C_9  and  O_10
REMARK   10  A    between atoms: C_13  and  C_14
REMARK   11  A    between atoms: C_19  and  C_20
REMARK                            x       y       z     vdW  Elec       q    Type
REMARK                         _______ _______ _______ _____ _____    ______ ____
ROOT
ATOM      1  C   UNL     1       0.877   9.643  18.882  0.00  0.00    +0.000 C 
ATOM      2  C   UNL     1       1.250   8.841  17.642  0.00  0.00    +0.000 C 
ATOM      3  C   UNL     1       2.164   7.799  18.179  0.00  0.00    +0.000 C 
ATOM      4  C   UNL     1       2.918   6.963  17.449  0.00  0.00    +0.000 C 
ATOM      5  C   UNL     1       2.069   7.804  19.655  0.00  0.00    +0.000 C 
ATOM      6  O   UNL     1       2.596   7.042  20.440  0.00  0.00    +0.000 OA
ATOM      7  O   UNL     1       1.279   8.842  20.010  0.00  0.00    +0.000 OA
ENDROOT
BRANCH   4   8
ATOM      8  C   UNL     1       3.690   5.861  18.029  0.00  0.00    +0.000 A 
ATOM      9  C   UNL     1       5.055   6.074  18.278  0.00  0.00    +0.000 A 
ATOM     10  C   UNL     1       5.824   5.095  18.909  0.00  0.00    +0.000 A 
ATOM     11  C   UNL     1       5.239   3.894  19.294  0.00  0.00    +0.000 A 
ATOM     12  C   UNL     1       3.885   3.670  19.045  0.00  0.00    +0.000 A 
ATOM     13  C   UNL     1       3.088   4.646  18.413  0.00  0.00    +0.000 A 
BRANCH  13  14
ATOM     14  C   UNL     1       1.627   4.322  18.202  0.00  0.00    +0.000 C 
ATOM     15  F   UNL     1       1.029   4.922  17.133  0.00  0.00    +0.000 F 
ATOM     16  F   UNL     1       1.431   2.984  18.009  0.00  0.00    +0.000 F 
ATOM     17  F   UNL     1       0.856   4.648  19.279  0.00  0.00    +0.000 F 
ENDBRANCH  13  14
ENDBRANCH   4   8
BRANCH   1  18
ATOM     18  C   UNL     1      -0.640   9.881  18.993  0.00  0.00    +0.000 C 
BRANCH  18  19
ATOM     19  O   UNL     1      -0.953  11.115  18.316  0.00  0.00    +0.000 OA
BRANCH  19  20
ATOM     20  C   UNL     1      -2.244  11.548  18.444  0.00  0.00    +0.000 C 
ATOM     21  O   UNL     1      -2.598  12.458  19.183  0.00  0.00    +0.000 OA
BRANCH  20  22
ATOM     22  C   UNL     1      -3.184  10.822  17.469  0.00  0.00    +0.000 C 
BRANCH  22  23
ATOM     23  C   UNL     1      -4.645  11.257  17.663  0.00  0.00    +0.000 A 
ATOM     24  C   UNL     1      -5.203  12.368  17.003  0.00  0.00    +0.000 A 
ATOM     25  C   UNL     1      -6.541  12.732  17.185  0.00  0.00    +0.000 A 
ATOM     26  C   UNL     1      -7.354  11.994  18.036  0.00  0.00    +0.000 A 
ATOM     27  C   UNL     1      -6.833  10.886  18.693  0.00  0.00    +0.000 A 
ATOM     28  C   UNL     1      -5.498  10.512  18.498  0.00  0.00    +0.000 A 
ENDBRANCH  22  23
BRANCH  22  30
ATOM     29  C   UNL     1      -3.458  10.069  15.015  0.00  0.00    +0.000 C 
ATOM     30  C   UNL     1      -2.692  10.929  16.009  0.00  0.00    +0.000 C 
ENDBRANCH  22  30
ENDBRANCH  20  22
ENDBRANCH  19  20
ENDBRANCH  18  19
ENDBRANCH   1  18
BRANCH   1  31
ATOM     31  C   UNL     1       1.632  10.982  18.986  0.00  0.00    +0.000 C 
BRANCH  31  32
ATOM     32  O   UNL     1       2.031  11.455  17.701  0.00  0.00    +0.000 OA
ATOM     33  H   UNL     1       2.235  10.662  17.169  0.00  0.00    +0.000 HD
ENDBRANCH  31  32
ENDBRANCH   1  31
TORSDOF 10
ENDMDL
MODEL 4
REMARK VINA RESULT:      -7.2      0.632      1.262
REMARK  Name = 
REMARK  11 active torsions:
REMARK  status: ('A' for Active; 'I' for Inactive)
REMARK    1  A    between atoms: C_1  and  C_2
REMARK    2  A    between atoms: C_2  and  C_3
REMARK    3  A    between atoms: C_3  and  C_4
REMARK    4  A    between atoms: C_3  and  C_27
REMARK    5  A    between atoms: C_4  and  O_6
REMARK    6  A    between atoms: O_6  and  C_7
REMARK    7  A    between atoms: C_7  and  C_8
REMARK    8  A    between atoms: C_8  and  C_9
REMARK    9  A    between atoms: C_9  and  O_10
REMARK   10  A    between atoms: C_13  and  C_14
REMARK   11  A    between atoms: C_19  and  C_20
REMARK                            x       y       z     vdW  Elec       q    Type
REMARK                         _______ _______ _______ _____ _____    ______ ____
ROOT
ATOM      1  C   UNL     1       0.256  10.200  20.312  0.00  0.00    +0.000 C 
ATOM      2  C   UNL     1      -1.056  10.777  19.797  0.00  0.00    +0.000 C 
ATOM      3  C   UNL     1      -1.255  11.974  20.656  0.00  0.00    +0.000 C 
ATOM      4  C   UNL     1      -2.373  12.713  20.725  0.00  0.00    +0.000 C 
ATOM      5  C   UNL     1       0.000  12.244  21.388  0.00  0.00    +0.000 C 
ATOM      6  O   UNL     1       0.254  13.182  22.116  0.00  0.00    +0.000 OA
ATOM      7  O   UNL     1       0.856  11.233  21.119  0.00  0.00    +0.000 OA
ENDROOT
BRANCH   4   8
ATOM      8  C   UNL     1      -2.465  13.965  21.481  0.00  0.00    +0.000 A 
ATOM      9  C   UNL     1      -2.087  15.153  20.834  0.00  0.00    +0.000 A 
ATOM     10  C   UNL     1      -2.234  16.386  21.469  0.00  0.00    +0.000 A 
ATOM     11  C   UNL     1      -2.757  16.446  22.756  0.00  0.00    +0.000 A 
ATOM     12  C   UNL     1      -3.129  15.272  23.410  0.00  0.00    +0.000 A 
ATOM     13  C   UNL     1      -2.993  14.015  22.786  0.00  0.00    +0.000 A 
BRANCH  13  14
ATOM     14  C   UNL     1      -3.441  12.799  23.564  0.00  0.00    +0.000 C 
ATOM     15  F   UNL     1      -2.550  11.769  23.630  0.00  0.00    +0.000 F 
ATOM     16  F   UNL     1      -3.717  13.109  24.866  0.00  0.00    +0.000 F 
ATOM     17  F   UNL     1      -4.590  12.254  23.071  0.00  0.00    +0.000 F 
ENDBRANCH  13  14
ENDBRANCH   4   8
BRANCH   1  18
ATOM     18  C   UNL     1       1.238   9.865  19.175  0.00  0.00    +0.000 C 
BRANCH  18  19
ATOM     19  O   UNL     1       1.797   8.561  19.430  0.00  0.00    +0.000 OA
BRANCH  19  20
ATOM     20  C   UNL     1       2.381   7.947  18.358  0.00  0.00    +0.000 C 
ATOM     21  O   UNL     1       2.297   8.345  17.203  0.00  0.00    +0.000 OA
BRANCH  20  22
ATOM     22  C   UNL     1       3.242   6.750  18.790  0.00  0.00    +0.000 C 
BRANCH  22  23
ATOM     23  C   UNL     1       2.385   5.499  19.046  0.00  0.00    +0.000 A 
ATOM     24  C   UNL     1       1.944   4.655  18.011  0.00  0.00    +0.000 A 
ATOM     25  C   UNL     1       1.179   3.513  18.273  0.00  0.00    +0.000 A 
ATOM     26  C   UNL     1       0.832   3.191  19.579  0.00  0.00    +0.000 A 
ATOM     27  C   UNL     1       1.263   4.003  20.622  0.00  0.00    +0.000 A 
ATOM     28  C   UNL     1       2.042   5.135  20.361  0.00  0.00    +0.000 A 
ENDBRANCH  22  23
BRANCH  22  30
ATOM     29  C   UNL     1       5.397   5.430  18.263  0.00  0.00    +0.000 C 
ATOM     30  C   UNL     1       4.420   6.509  17.821  0.00  0.00    +0.000 C 
ENDBRANCH  22  30
ENDBRANCH  20  22
ENDBRANCH  19  20
ENDBRANCH  18  19
ENDBRANCH   1  18
BRANCH   1  31
ATOM     31  C   UNL     1       0.061   8.972  21.222  0.00  0.00    +0.000 C 
BRANCH  31  32
ATOM     32  O   UNL     1       1.053   8.920  22.245  0.00  0.00    +0.000 OA
ATOM     33  H   UNL     1       0.590   9.106  23.085  0.00  0.00    +0.000 HD
ENDBRANCH  31  32
ENDBRANCH   1  31
TORSDOF 10
ENDMDL
MODEL 5
REMARK VINA RESULT:      -7.2      3.415      5.441
REMARK  Name = 
REMARK  11 active torsions:
REMARK  status: ('A' for Active; 'I' for Inactive)
REMARK    1  A    between atoms: C_1  and  C_2
REMARK    2  A    between atoms: C_2  and  C_3
REMARK    3  A    between atoms: C_3  and  C_4
REMARK    4  A    between atoms: C_3  and  C_27
REMARK    5  A    between atoms: C_4  and  O_6
REMARK    6  A    between atoms: O_6  and  C_7
REMARK    7  A    between atoms: C_7  and  C_8
REMARK    8  A    between atoms: C_8  and  C_9
REMARK    9  A    between atoms: C_9  and  O_10
REMARK   10  A    between atoms: C_13  and  C_14
REMARK   11  A    between atoms: C_19  and  C_20
REMARK                            x       y       z     vdW  Elec       q    Type
REMARK                         _______ _______ _______ _____ _____    ______ ____
ROOT
ATOM      1  C   UNL     1       2.590   6.697  18.370  0.00  0.00    +0.000 C 
ATOM      2  C   UNL     1       2.386   7.971  17.560  0.00  0.00    +0.000 C 
ATOM      3  C   UNL     1       1.619   8.840  18.491  0.00  0.00    +0.000 C 
ATOM      4  C   UNL     1       1.026  10.001  18.172  0.00  0.00    +0.000 C 
ATOM      5  C   UNL     1       1.659   8.237  19.840  0.00  0.00    +0.000 C 
ATOM      6  O   UNL     1       1.224   8.696  20.877  0.00  0.00    +0.000 OA
ATOM      7  O   UNL     1       2.272   7.037  19.734  0.00  0.00    +0.000 OA
ENDROOT
BRANCH   4   8
ATOM      8  C   UNL     1       0.407  10.887  19.162  0.00  0.00    +0.000 A 
ATOM      9  C   UNL     1       1.251  11.564  20.058  0.00  0.00    +0.000 A 
ATOM     10  C   UNL     1       0.730  12.487  20.965  0.00  0.00    +0.000 A 
ATOM     11  C   UNL     1      -0.637  12.742  20.989  0.00  0.00    +0.000 A 
ATOM     12  C   UNL     1      -1.484  12.070  20.108  0.00  0.00    +0.000 A 
ATOM     13  C   UNL     1      -0.979  11.136  19.180  0.00  0.00    +0.000 A 
BRANCH  13  14
ATOM     14  C   UNL     1      -1.971  10.472  18.253  0.00  0.00    +0.000 C 
ATOM     15  F   UNL     1      -1.646  10.474  16.928  0.00  0.00    +0.000 F 
ATOM     16  F   UNL     1      -2.151   9.155  18.568  0.00  0.00    +0.000 F 
ATOM     17  F   UNL     1      -3.212  11.033  18.322  0.00  0.00    +0.000 F 
ENDBRANCH  13  14
ENDBRANCH   4   8
BRANCH   1  18
ATOM     18  C   UNL     1       4.049   6.208  18.337  0.00  0.00    +0.000 C 
BRANCH  18  19
ATOM     19  O   UNL     1       4.224   5.388  17.164  0.00  0.00    +0.000 OA
BRANCH  19  20
ATOM     20  C   UNL     1       5.161   5.826  16.270  0.00  0.00    +0.000 C 
ATOM     21  O   UNL     1       5.178   6.949  15.781  0.00  0.00    +0.000 OA
BRANCH  20  22
ATOM     22  C   UNL     1       6.252   4.772  16.031  0.00  0.00    +0.000 C 
BRANCH  22  23
ATOM     23  C   UNL     1       6.503   4.548  14.531  0.00  0.00    +0.000 A 
ATOM     24  C   UNL     1       7.514   5.220  13.819  0.00  0.00    +0.000 A 
ATOM     25  C   UNL     1       7.732   4.984  12.458  0.00  0.00    +0.000 A 
ATOM     26  C   UNL     1       6.938   4.073  11.772  0.00  0.00    +0.000 A 
ATOM     27  C   UNL     1       5.938   3.388  12.452  0.00  0.00    +0.000 A 
ATOM     28  C   UNL     1       5.732   3.611  13.818  0.00  0.00    +0.000 A 
ENDBRANCH  22  23
BRANCH  22  30
ATOM     29  C   UNL     1       7.441   4.767  18.322  0.00  0.00    +0.000 C 
ATOM     30  C   UNL     1       7.534   5.077  16.836  0.00  0.00    +0.000 C 
ENDBRANCH  22  30
ENDBRANCH  20  22
ENDBRANCH  19  20
ENDBRANCH  18  19
ENDBRANCH   1  18
BRANCH   1  31
ATOM     31  C   UNL     1       1.640   5.557  17.954  0.00  0.00    +0.000 C 
BRANCH  31  32
ATOM     32  O   UNL     1       1.990   4.331  18.591  0.00  0.00    +0.000 OA
ATOM     33  H   UNL     1       2.953   4.372  18.754  0.00  0.00    +0.000 HD
ENDBRANCH  31  32
ENDBRANCH   1  31
TORSDOF 10
ENDMDL
MODEL 6
REMARK VINA RESULT:      -7.2      1.880      2.625
REMARK  Name = 
REMARK  11 active torsions:
REMARK  status: ('A' for Active; 'I' for Inactive)
REMARK    1  A    between atoms: C_1  and  C_2
REMARK    2  A    between atoms: C_2  and  C_3
REMARK    3  A    between atoms: C_3  and  C_4
REMARK    4  A    between atoms: C_3  and  C_27
REMARK    5  A    between atoms: C_4  and  O_6
REMARK    6  A    between atoms: O_6  and  C_7
REMARK    7  A    between atoms: C_7  and  C_8
REMARK    8  A    between atoms: C_8  and  C_9
REMARK    9  A    between atoms: C_9  and  O_10
REMARK   10  A    between atoms: C_13  and  C_14
REMARK   11  A    between atoms: C_19  and  C_20
REMARK                            x       y       z     vdW  Elec       q    Type
REMARK                         _______ _______ _______ _____ _____    ______ ____
ROOT
ATOM      1  C   UNL     1       0.595  10.526  19.422  0.00  0.00    +0.000 C 
ATOM      2  C   UNL     1       0.657  10.539  20.944  0.00  0.00    +0.000 C 
ATOM      3  C   UNL     1      -0.458  11.449  21.317  0.00  0.00    +0.000 C 
ATOM      4  C   UNL     1      -0.693  11.941  22.543  0.00  0.00    +0.000 C 
ATOM      5  C   UNL     1      -1.294  11.686  20.120  0.00  0.00    +0.000 C 
ATOM      6  O   UNL     1      -2.337  12.301  20.049  0.00  0.00    +0.000 OA
ATOM      7  O   UNL     1      -0.682  11.093  19.071  0.00  0.00    +0.000 OA
ENDROOT
BRANCH   4   8
ATOM      8  C   UNL     1      -1.888  12.718  22.883  0.00  0.00    +0.000 A 
ATOM      9  C   UNL     1      -2.981  12.033  23.438  0.00  0.00    +0.000 A 
ATOM     10  C   UNL     1      -4.114  12.728  23.864  0.00  0.00    +0.000 A 
ATOM     11  C   UNL     1      -4.167  14.112  23.737  0.00  0.00    +0.000 A 
ATOM     12  C   UNL     1      -3.089  14.800  23.181  0.00  0.00    +0.000 A 
ATOM     13  C   UNL     1      -1.933  14.119  22.748  0.00  0.00    +0.000 A 
BRANCH  13  14
ATOM     14  C   UNL     1      -0.808  14.951  22.177  0.00  0.00    +0.000 C 
ATOM     15  F   UNL     1      -0.583  14.814  20.839  0.00  0.00    +0.000 F 
ATOM     16  F   UNL     1      -1.027  16.287  22.362  0.00  0.00    +0.000 F 
ATOM     17  F   UNL     1       0.390  14.695  22.775  0.00  0.00    +0.000 F 
ENDBRANCH  13  14
ENDBRANCH   4   8
BRANCH   1  18
ATOM     18  C   UNL     1       0.650   9.101  18.843  0.00  0.00    +0.000 C 
BRANCH  18  19
ATOM     19  O   UNL     1       1.893   8.495  19.252  0.00  0.00    +0.000 OA
BRANCH  19  20
ATOM     20  C   UNL     1       2.572   7.822  18.276  0.00  0.00    +0.000 C 
ATOM     21  O   UNL     1       2.613   8.164  17.100  0.00  0.00    +0.000 OA
BRANCH  20  22
ATOM     22  C   UNL     1       3.366   6.638  18.851  0.00  0.00    +0.000 C 
BRANCH  22  23
ATOM     23  C   UNL     1       2.458   5.427  19.120  0.00  0.00    +0.000 A 
ATOM     24  C   UNL     1       1.948   5.127  20.397  0.00  0.00    +0.000 A 
ATOM     25  C   UNL     1       1.111   4.028  20.611  0.00  0.00    +0.000 A 
ATOM     26  C   UNL     1       0.766   3.197  19.552  0.00  0.00    +0.000 A 
ATOM     27  C   UNL     1       1.248   3.475  18.279  0.00  0.00    +0.000 A 
ATOM     28  C   UNL     1       2.072   4.585  18.062  0.00  0.00    +0.000 A 
ENDBRANCH  22  23
BRANCH  22  30
ATOM     29  C   UNL     1       5.646   5.440  18.686  0.00  0.00    +0.000 C 
ATOM     30  C   UNL     1       4.607   6.307  17.993  0.00  0.00    +0.000 C 
ENDBRANCH  22  30
ENDBRANCH  20  22
ENDBRANCH  19  20
ENDBRANCH  18  19
ENDBRANCH   1  18
BRANCH   1  31
ATOM     31  C   UNL     1       1.677  11.406  18.766  0.00  0.00    +0.000 C 
BRANCH  31  32
ATOM     32  O   UNL     1       2.035  10.913  17.476  0.00  0.00    +0.000 OA
ATOM     33  H   UNL     1       2.960  11.189  17.324  0.00  0.00    +0.000 HD
ENDBRANCH  31  32
ENDBRANCH   1  31
TORSDOF 10
ENDMDL
MODEL 7
REMARK VINA RESULT:      -7.1      7.044     10.209
REMARK  Name = 
REMARK  11 active torsions:
REMARK  status: ('A' for Active; 'I' for Inactive)
REMARK    1  A    between atoms: C_1  and  C_2
REMARK    2  A    between atoms: C_2  and  C_3
REMARK    3  A    between atoms: C_3  and  C_4
REMARK    4  A    between atoms: C_3  and  C_27
REMARK    5  A    between atoms: C_4  and  O_6
REMARK    6  A    between atoms: O_6  and  C_7
REMARK    7  A    between atoms: C_7  and  C_8
REMARK    8  A    between atoms: C_8  and  C_9
REMARK    9  A    between atoms: C_9  and  O_10
REMARK   10  A    between atoms: C_13  and  C_14
REMARK   11  A    between atoms: C_19  and  C_20
REMARK                            x       y       z     vdW  Elec       q    Type
REMARK                         _______ _______ _______ _____ _____    ______ ____
ROOT
ATOM      1  C   UNL     1       6.978   6.252  16.734  0.00  0.00    +0.000 C 
ATOM      2  C   UNL     1       5.536   6.619  16.410  0.00  0.00    +0.000 C 
ATOM      3  C   UNL     1       4.769   5.961  17.501  0.00  0.00    +0.000 C 
ATOM      4  C   UNL     1       3.435   5.824  17.551  0.00  0.00    +0.000 C 
ATOM      5  C   UNL     1       5.719   5.522  18.546  0.00  0.00    +0.000 C 
ATOM      6  O   UNL     1       5.466   5.027  19.625  0.00  0.00    +0.000 OA
ATOM      7  O   UNL     1       6.969   5.759  18.088  0.00  0.00    +0.000 OA
ENDROOT
BRANCH   4   8
ATOM      8  C   UNL     1       2.725   5.294  18.718  0.00  0.00    +0.000 A 
ATOM      9  C   UNL     1       2.310   6.204  19.704  0.00  0.00    +0.000 A 
ATOM     10  C   UNL     1       1.553   5.776  20.795  0.00  0.00    +0.000 A 
ATOM     11  C   UNL     1       1.205   4.434  20.914  0.00  0.00    +0.000 A 
ATOM     12  C   UNL     1       1.617   3.522  19.943  0.00  0.00    +0.000 A 
ATOM     13  C   UNL     1       2.379   3.934  18.831  0.00  0.00    +0.000 A 
BRANCH  13  14
ATOM     14  C   UNL     1       2.763   2.877  17.821  0.00  0.00    +0.000 C 
ATOM     15  F   UNL     1       2.258   1.629  18.039  0.00  0.00    +0.000 F 
ATOM     16  F   UNL     1       2.347   3.209  16.562  0.00  0.00    +0.000 F 
ATOM     17  F   UNL     1       4.113   2.710  17.723  0.00  0.00    +0.000 F 
ENDBRANCH  13  14
ENDBRANCH   4   8
BRANCH   1  18
ATOM     18  C   UNL     1       7.918   7.470  16.686  0.00  0.00    +0.000 C 
BRANCH  18  19
ATOM     19  O   UNL     1       7.399   8.477  17.578  0.00  0.00    +0.000 OA
BRANCH  19  20
ATOM     20  C   UNL     1       8.288   8.978  18.487  0.00  0.00    +0.000 C 
ATOM     21  O   UNL     1       9.069   8.296  19.139  0.00  0.00    +0.000 OA
BRANCH  20  22
ATOM     22  C   UNL     1       8.261  10.514  18.518  0.00  0.00    +0.000 C 
BRANCH  22  23
ATOM     23  C   UNL     1       9.615  11.095  18.958  0.00  0.00    +0.000 A 
ATOM     24  C   UNL     1       9.882  11.482  20.285  0.00  0.00    +0.000 A 
ATOM     25  C   UNL     1      11.128  11.992  20.662  0.00  0.00    +0.000 A 
ATOM     26  C   UNL     1      12.139  12.132  19.718  0.00  0.00    +0.000 A 
ATOM     27  C   UNL     1      11.905  11.749  18.402  0.00  0.00    +0.000 A 
ATOM     28  C   UNL     1      10.664  11.223  18.029  0.00  0.00    +0.000 A 
ENDBRANCH  22  23
BRANCH  22  30
ATOM     29  C   UNL     1       7.662  12.626  17.159  0.00  0.00    +0.000 C 
ATOM     30  C   UNL     1       7.732  11.107  17.194  0.00  0.00    +0.000 C 
ENDBRANCH  22  30
ENDBRANCH  20  22
ENDBRANCH  19  20
ENDBRANCH  18  19
ENDBRANCH   1  18
BRANCH   1  31
ATOM     31  C   UNL     1       7.530   5.122  15.844  0.00  0.00    +0.000 C 
BRANCH  31  32
ATOM     32  O   UNL     1       7.630   5.535  14.483  0.00  0.00    +0.000 OA
ATOM     33  H   UNL     1       7.987   4.771  13.990  0.00  0.00    +0.000 HD
ENDBRANCH  31  32
ENDBRANCH   1  31
TORSDOF 10
ENDMDL
MODEL 8
REMARK VINA RESULT:      -7.1      3.319      5.343
REMARK  Name = 
REMARK  11 active torsions:
REMARK  status: ('A' for Active; 'I' for Inactive)
REMARK    1  A    between atoms: C_1  and  C_2
REMARK    2  A    between atoms: C_2  and  C_3
REMARK    3  A    between atoms: C_3  and  C_4
REMARK    4  A    between atoms: C_3  and  C_27
REMARK    5  A    between atoms: C_4  and  O_6
REMARK    6  A    between atoms: O_6  and  C_7
REMARK    7  A    between atoms: C_7  and  C_8
REMARK    8  A    between atoms: C_8  and  C_9
REMARK    9  A    between atoms: C_9  and  O_10
REMARK   10  A    between atoms: C_13  and  C_14
REMARK   11  A    between atoms: C_19  and  C_20
REMARK                            x       y       z     vdW  Elec       q    Type
REMARK                         _______ _______ _______ _____ _____    ______ ____
ROOT
ATOM      1  C   UNL     1       2.640   6.717  18.566  0.00  0.00    +0.000 C 
ATOM      2  C   UNL     1       2.607   8.001  17.748  0.00  0.00    +0.000 C 
ATOM      3  C   UNL     1       1.790   8.914  18.591  0.00  0.00    +0.000 C 
ATOM      4  C   UNL     1       1.308  10.108  18.216  0.00  0.00    +0.000 C 
ATOM      5  C   UNL     1       1.638   8.308  19.931  0.00  0.00    +0.000 C 
ATOM      6  O   UNL     1       1.114   8.790  20.914  0.00  0.00    +0.000 OA
ATOM      7  O   UNL     1       2.187   7.073  19.887  0.00  0.00    +0.000 OA
ENDROOT
BRANCH   4   8
ATOM      8  C   UNL     1       0.632  11.028  19.135  0.00  0.00    +0.000 A 
ATOM      9  C   UNL     1       1.429  11.836  19.962  0.00  0.00    +0.000 A 
ATOM     10  C   UNL     1       0.849  12.793  20.794  0.00  0.00    +0.000 A 
ATOM     11  C   UNL     1      -0.533  12.952  20.811  0.00  0.00    +0.000 A 
ATOM     12  C   UNL     1      -1.334  12.151  19.998  0.00  0.00    +0.000 A 
ATOM     13  C   UNL     1      -0.769  11.180  19.146  0.00  0.00    +0.000 A 
BRANCH  13  14
ATOM     14  C   UNL     1      -1.715  10.372  18.288  0.00  0.00    +0.000 C 
ATOM     15  F   UNL     1      -1.814   9.046  18.591  0.00  0.00    +0.000 F 
ATOM     16  F   UNL     1      -2.994  10.847  18.365  0.00  0.00    +0.000 F 
ATOM     17  F   UNL     1      -1.391  10.419  16.964  0.00  0.00    +0.000 F 
ENDBRANCH  13  14
ENDBRANCH   4   8
BRANCH   1  18
ATOM     18  C   UNL     1       4.062   6.141  18.698  0.00  0.00    +0.000 C 
BRANCH  18  19
ATOM     19  O   UNL     1       4.555   5.850  17.375  0.00  0.00    +0.000 OA
BRANCH  19  20
ATOM     20  C   UNL     1       5.296   4.707  17.258  0.00  0.00    +0.000 C 
ATOM     21  O   UNL     1       4.884   3.585  17.525  0.00  0.00    +0.000 OA
BRANCH  20  22
ATOM     22  C   UNL     1       6.680   4.989  16.654  0.00  0.00    +0.000 C 
BRANCH  22  23
ATOM     23  C   UNL     1       6.710   4.693  15.145  0.00  0.00    +0.000 A 
ATOM     24  C   UNL     1       5.782   3.840  14.519  0.00  0.00    +0.000 A 
ATOM     25  C   UNL     1       5.821   3.601  13.142  0.00  0.00    +0.000 A 
ATOM     26  C   UNL     1       6.794   4.207  12.356  0.00  0.00    +0.000 A 
ATOM     27  C   UNL     1       7.718   5.061  12.947  0.00  0.00    +0.000 A 
ATOM     28  C   UNL     1       7.668   5.313  14.323  0.00  0.00    +0.000 A 
ENDBRANCH  22  23
BRANCH  22  30
ATOM     29  C   UNL     1       7.805   6.514  18.407  0.00  0.00    +0.000 C 
ATOM     30  C   UNL     1       7.191   6.400  17.020  0.00  0.00    +0.000 C 
ENDBRANCH  22  30
ENDBRANCH  20  22
ENDBRANCH  19  20
ENDBRANCH  18  19
ENDBRANCH   1  18
BRANCH   1  31
ATOM     31  C   UNL     1       1.678   5.636  18.034  0.00  0.00    +0.000 C 
BRANCH  31  32
ATOM     32  O   UNL     1       2.091   4.331  18.435  0.00  0.00    +0.000 OA
ATOM     33  H   UNL     1       1.815   3.725  17.721  0.00  0.00    +0.000 HD
ENDBRANCH  31  32
ENDBRANCH   1  31
TORSDOF 10
ENDMDL
MODEL 9
REMARK VINA RESULT:      -7.0      7.490      9.829
REMARK  Name = 
REMARK  11 active torsions:
REMARK  status: ('A' for Active; 'I' for Inactive)
REMARK    1  A    between atoms: C_1  and  C_2
REMARK    2  A    between atoms: C_2  and  C_3
REMARK    3  A    between atoms: C_3  and  C_4
REMARK    4  A    between atoms: C_3  and  C_27
REMARK    5  A    between atoms: C_4  and  O_6
REMARK    6  A    between atoms: O_6  and  C_7
REMARK    7  A    between atoms: C_7  and  C_8
REMARK    8  A    between atoms: C_8  and  C_9
REMARK    9  A    between atoms: C_9  and  O_10
REMARK   10  A    between atoms: C_13  and  C_14
REMARK   11  A    between atoms: C_19  and  C_20
REMARK                            x       y       z     vdW  Elec       q    Type
REMARK                         _______ _______ _______ _____ _____    ______ ____
ROOT
ATOM      1  C   UNL     1       6.992   6.130  17.381  0.00  0.00    +0.000 C 
ATOM      2  C   UNL     1       6.874   4.830  18.165  0.00  0.00    +0.000 C 
ATOM      3  C   UNL     1       5.448   4.822  18.586  0.00  0.00    +0.000 C 
ATOM      4  C   UNL     1       4.895   3.976  19.469  0.00  0.00    +0.000 C 
ATOM      5  C   UNL     1       4.728   5.871  17.833  0.00  0.00    +0.000 C 
ATOM      6  O   UNL     1       3.538   6.111  17.838  0.00  0.00    +0.000 OA
ATOM      7  O   UNL     1       5.643   6.560  17.115  0.00  0.00    +0.000 OA
ENDROOT
BRANCH   4   8
ATOM      8  C   UNL     1       3.455   3.921  19.738  0.00  0.00    +0.000 A 
ATOM      9  C   UNL     1       2.956   4.688  20.803  0.00  0.00    +0.000 A 
ATOM     10  C   UNL     1       1.585   4.747  21.055  0.00  0.00    +0.000 A 
ATOM     11  C   UNL     1       0.700   4.040  20.248  0.00  0.00    +0.000 A 
ATOM     12  C   UNL     1       1.186   3.271  19.192  0.00  0.00    +0.000 A 
ATOM     13  C   UNL     1       2.567   3.200  18.917  0.00  0.00    +0.000 A 
BRANCH  13  14
ATOM     14  C   UNL     1       3.000   2.356  17.739  0.00  0.00    +0.000 C 
ATOM     15  F   UNL     1       4.005   1.466  17.978  0.00  0.00    +0.000 F 
ATOM     16  F   UNL     1       1.969   1.601  17.256  0.00  0.00    +0.000 F 
ATOM     17  F   UNL     1       3.423   3.107  16.683  0.00  0.00    +0.000 F 
ENDBRANCH  13  14
ENDBRANCH   4   8
BRANCH   1  18
ATOM     18  C   UNL     1       7.698   5.937  16.026  0.00  0.00    +0.000 C 
BRANCH  18  19
ATOM     19  O   UNL     1       6.692   5.680  15.026  0.00  0.00    +0.000 OA
BRANCH  19  20
ATOM     20  C   UNL     1       6.600   4.385  14.598  0.00  0.00    +0.000 C 
ATOM     21  O   UNL     1       6.082   3.480  15.241  0.00  0.00    +0.000 OA
BRANCH  20  22
ATOM     22  C   UNL     1       7.135   4.221  13.167  0.00  0.00    +0.000 C 
BRANCH  22  23
ATOM     23  C   UNL     1       6.188   3.373  12.303  0.00  0.00    +0.000 A 
ATOM     24  C   UNL     1       4.866   3.760  12.016  0.00  0.00    +0.000 A 
ATOM     25  C   UNL     1       4.031   2.977  11.213  0.00  0.00    +0.000 A 
ATOM     26  C   UNL     1       4.498   1.782  10.680  0.00  0.00    +0.000 A 
ATOM     27  C   UNL     1       5.803   1.379  10.939  0.00  0.00    +0.000 A 
ATOM     28  C   UNL     1       6.643   2.171  11.729  0.00  0.00    +0.000 A 
ENDBRANCH  22  23
BRANCH  22  30
ATOM     29  C   UNL     1       8.978   5.946  12.627  0.00  0.00    +0.000 C 
ATOM     30  C   UNL     1       7.505   5.580  12.533  0.00  0.00    +0.000 C 
ENDBRANCH  22  30
ENDBRANCH  20  22
ENDBRANCH  19  20
ENDBRANCH  18  19
ENDBRANCH   1  18
BRANCH   1  31
ATOM     31  C   UNL     1       7.677   7.257  18.178  0.00  0.00    +0.000 C 
BRANCH  31  32
ATOM     32  O   UNL     1       7.755   8.459  17.415  0.00  0.00    +0.000 OA
ATOM     33  H   UNL     1       8.706   8.656  17.308  0.00  0.00    +0.000 HD
ENDBRANCH  31  32
ENDBRANCH   1  31
TORSDOF 10
ENDMDL
