MODEL 1
REMARK VINA RESULT:      -9.2      0.000      0.000
REMARK  Name = 
REMARK  6 active torsions:
REMARK  status: ('A' for Active; 'I' for Inactive)
REMARK    1  A    between atoms: C_1  and  C_2
REMARK    2  A    between atoms: C_4  and  C_5
REMARK    3  A    between atoms: N_7  and  C_8
REMARK    4  A    between atoms: C_11  and  C_12
REMARK    5  A    between atoms: C_13  and  N_14
REMARK    6  A    between atoms: C_19  and  C_20
REMARK                            x       y       z     vdW  Elec       q    Type
REMARK                         _______ _______ _______ _____ _____    ______ ____
ROOT
ATOM      1  C   UNL     1       7.775   6.831  18.179  0.00  0.00    +0.000 A 
ATOM      2  C   UNL     1       7.781   6.602  16.804  0.00  0.00    +0.000 A 
ATOM      3  C   UNL     1       6.925   5.680  16.235  0.00  0.00    +0.000 A 
ATOM      4  C   UNL     1       6.032   4.929  17.013  0.00  0.00    +0.000 A 
ATOM      5  C   UNL     1       5.119   4.026  16.234  0.00  0.00    +0.000 C 
ATOM      6  C   UNL     1       6.100   5.049  18.430  0.00  0.00    +0.000 A 
ATOM      7  C   UNL     1       6.958   6.035  18.971  0.00  0.00    +0.000 A 
ENDROOT
BRANCH   6   8
ATOM      8  N   UNL     1       5.270   4.294  19.309  0.00  0.00    +0.000 N 
ATOM      9  C   UNL     1       3.931   4.617  19.664  0.00  0.00    +0.000 A 
ATOM     10  N   UNL     1       3.311   3.806  20.528  0.00  0.00    +0.000 NA
ATOM     11  C   UNL     1       2.153   4.256  21.063  0.00  0.00    +0.000 A 
ATOM     12  C   UNL     1       1.616   5.489  20.798  0.00  0.00    +0.000 A 
ATOM     13  C   UNL     1       2.301   6.253  19.878  0.00  0.00    +0.000 A 
ATOM     14  N   UNL     1       3.430   5.801  19.305  0.00  0.00    +0.000 NA
ATOM     15  H   UNL     1       5.724   4.076  20.181  0.00  0.00    +0.000 HD
BRANCH  13  16
ATOM     16  C   UNL     1       1.913   7.624  19.533  0.00  0.00    +0.000 A 
ATOM     17  C   UNL     1       2.098   8.169  18.256  0.00  0.00    +0.000 A 
ATOM     18  C   UNL     1       1.706   9.474  17.980  0.00  0.00    +0.000 A 
ATOM     19  C   UNL     1       1.129  10.212  18.995  0.00  0.00    +0.000 A 
ATOM     20  N   UNL     1       0.907   9.733  20.238  0.00  0.00    +0.000 NA
ATOM     21  C   UNL     1       1.296   8.455  20.472  0.00  0.00    +0.000 A 
ENDBRANCH  13  16
ENDBRANCH   6   8
BRANCH   1  24
ATOM     22  C   UNL     1       8.470   9.193  18.372  0.00  0.00    +0.000 C 
ATOM     23  O   UNL     1       7.703   9.639  17.538  0.00  0.00    +0.000 OA
ATOM     24  N   UNL     1       8.570   7.850  18.759  0.00  0.00    +0.000 N 
ATOM     25  H   UNL     1       9.077   7.611  19.600  0.00  0.00    +0.000 HD
BRANCH  22  29
ATOM     26  C   UNL     1      12.121  12.681  18.703  0.00  0.00    +0.000 C 
ATOM     27  C   UNL     1      11.002  11.865  19.275  0.00  0.00    +0.000 A 
ATOM     28  C   UNL     1      10.331  10.919  18.497  0.00  0.00    +0.000 A 
ATOM     29  C   UNL     1       9.301  10.195  19.090  0.00  0.00    +0.000 A 
ATOM     30  C   UNL     1       8.961  10.455  20.422  0.00  0.00    +0.000 A 
ATOM     31  C   UNL     1       9.676  11.411  21.115  0.00  0.00    +0.000 A 
ATOM     32  N   UNL     1      10.691  12.111  20.569  0.00  0.00    +0.000 NA
ENDBRANCH  22  29
ENDBRANCH   1  24
TORSDOF 4
ENDMDL
MODEL 2
REMARK VINA RESULT:      -9.2      0.686      1.053
REMARK  Name = 
REMARK  6 active torsions:
REMARK  status: ('A' for Active; 'I' for Inactive)
REMARK    1  A    between atoms: C_1  and  C_2
REMARK    2  A    between atoms: C_4  and  C_5
REMARK    3  A    between atoms: N_7  and  C_8
REMARK    4  A    between atoms: C_11  and  C_12
REMARK    5  A    between atoms: C_13  and  N_14
REMARK    6  A    between atoms: C_19  and  C_20
REMARK                            x       y       z     vdW  Elec       q    Type
REMARK                         _______ _______ _______ _____ _____    ______ ____
ROOT
ATOM      1  C   UNL     1       7.770   6.818  18.151  0.00  0.00    +0.000 A 
ATOM      2  C   UNL     1       7.665   6.782  16.762  0.00  0.00    +0.000 A 
ATOM      3  C   UNL     1       6.829   5.878  16.138  0.00  0.00    +0.000 A 
ATOM      4  C   UNL     1       6.067   4.955  16.869  0.00  0.00    +0.000 A 
ATOM      5  C   UNL     1       5.153   4.094  16.045  0.00  0.00    +0.000 C 
ATOM      6  C   UNL     1       6.256   4.884  18.278  0.00  0.00    +0.000 A 
ATOM      7  C   UNL     1       7.087   5.855  18.884  0.00  0.00    +0.000 A 
ENDROOT
BRANCH   6   8
ATOM      8  N   UNL     1       5.567   3.949  19.103  0.00  0.00    +0.000 N 
ATOM      9  C   UNL     1       4.240   4.099  19.594  0.00  0.00    +0.000 A 
ATOM     10  N   UNL     1       3.763   3.129  20.382  0.00  0.00    +0.000 NA
ATOM     11  C   UNL     1       2.621   3.397  21.056  0.00  0.00    +0.000 A 
ATOM     12  C   UNL     1       1.965   4.600  21.000  0.00  0.00    +0.000 A 
ATOM     13  C   UNL     1       2.506   5.535  20.145  0.00  0.00    +0.000 A 
ATOM     14  N   UNL     1       3.616   5.267  19.436  0.00  0.00    +0.000 NA
ATOM     15  H   UNL     1       6.109   3.663  19.903  0.00  0.00    +0.000 HD
BRANCH  13  16
ATOM     16  C   UNL     1       1.980   6.899  20.019  0.00  0.00    +0.000 A 
ATOM     17  C   UNL     1       1.280   7.543  21.048  0.00  0.00    +0.000 A 
ATOM     18  C   UNL     1       0.808   8.839  20.878  0.00  0.00    +0.000 A 
ATOM     19  C   UNL     1       1.051   9.472  19.675  0.00  0.00    +0.000 A 
ATOM     20  N   UNL     1       1.736   8.909  18.657  0.00  0.00    +0.000 NA
ATOM     21  C   UNL     1       2.188   7.645  18.856  0.00  0.00    +0.000 A 
ENDBRANCH  13  16
ENDBRANCH   6   8
BRANCH   1  24
ATOM     22  C   UNL     1       8.509   9.159  18.425  0.00  0.00    +0.000 C 
ATOM     23  O   UNL     1       7.827   9.631  17.534  0.00  0.00    +0.000 OA
ATOM     24  N   UNL     1       8.540   7.811  18.806  0.00  0.00    +0.000 N 
ATOM     25  H   UNL     1       8.967   7.552  19.685  0.00  0.00    +0.000 HD
BRANCH  22  29
ATOM     26  C   UNL     1      12.248  12.497  19.114  0.00  0.00    +0.000 C 
ATOM     27  C   UNL     1      11.043  11.733  19.571  0.00  0.00    +0.000 A 
ATOM     28  C   UNL     1      10.417  10.808  18.733  0.00  0.00    +0.000 A 
ATOM     29  C   UNL     1       9.303  10.132  19.220  0.00  0.00    +0.000 A 
ATOM     30  C   UNL     1       8.838  10.418  20.508  0.00  0.00    +0.000 A 
ATOM     31  C   UNL     1       9.518  11.350  21.267  0.00  0.00    +0.000 A 
ATOM     32  N   UNL     1      10.612  12.003  20.826  0.00  0.00    +0.000 NA
ENDBRANCH  22  29
ENDBRANCH   1  24
TORSDOF 4
ENDMDL
MODEL 3
REMARK VINA RESULT:      -8.9      0.313      1.190
REMARK  Name = 
REMARK  6 active torsions:
REMARK  status: ('A' for Active; 'I' for Inactive)
REMARK    1  A    between atoms: C_1  and  C_2
REMARK    2  A    between atoms: C_4  and  C_5
REMARK    3  A    between atoms: N_7  and  C_8
REMARK    4  A    between atoms: C_11  and  C_12
REMARK    5  A    between atoms: C_13  and  N_14
REMARK    6  A    between atoms: C_19  and  C_20
REMARK                            x       y       z     vdW  Elec       q    Type
REMARK                         _______ _______ _______ _____ _____    ______ ____
ROOT
ATOM      1  C   UNL     1       7.784   6.825  18.189  0.00  0.00    +0.000 A 
ATOM      2  C   UNL     1       7.830   6.576  16.818  0.00  0.00    +0.000 A 
ATOM      3  C   UNL     1       7.014   5.623  16.244  0.00  0.00    +0.000 A 
ATOM      4  C   UNL     1       6.121   4.860  17.011  0.00  0.00    +0.000 A 
ATOM      5  C   UNL     1       5.252   3.921  16.224  0.00  0.00    +0.000 C 
ATOM      6  C   UNL     1       6.150   5.003  18.427  0.00  0.00    +0.000 A 
ATOM      7  C   UNL     1       6.967   6.020  18.973  0.00  0.00    +0.000 A 
ENDROOT
BRANCH   6   8
ATOM      8  N   UNL     1       5.318   4.239  19.296  0.00  0.00    +0.000 N 
ATOM      9  C   UNL     1       3.975   4.555  19.645  0.00  0.00    +0.000 A 
ATOM     10  N   UNL     1       3.354   3.736  20.501  0.00  0.00    +0.000 NA
ATOM     11  C   UNL     1       2.190   4.177  21.032  0.00  0.00    +0.000 A 
ATOM     12  C   UNL     1       1.650   5.409  20.769  0.00  0.00    +0.000 A 
ATOM     13  C   UNL     1       2.336   6.181  19.857  0.00  0.00    +0.000 A 
ATOM     14  N   UNL     1       3.471   5.737  19.289  0.00  0.00    +0.000 NA
ATOM     15  H   UNL     1       5.768   4.019  20.170  0.00  0.00    +0.000 HD
BRANCH  13  16
ATOM     16  C   UNL     1       1.944   7.553  19.517  0.00  0.00    +0.000 A 
ATOM     17  C   UNL     1       2.120   8.100  18.240  0.00  0.00    +0.000 A 
ATOM     18  C   UNL     1       1.724   9.405  17.970  0.00  0.00    +0.000 A 
ATOM     19  C   UNL     1       1.152  10.140  18.989  0.00  0.00    +0.000 A 
ATOM     20  N   UNL     1       0.939   9.659  20.232  0.00  0.00    +0.000 NA
ATOM     21  C   UNL     1       1.332   8.381  20.462  0.00  0.00    +0.000 A 
ENDBRANCH  13  16
ENDBRANCH   6   8
BRANCH   1  24
ATOM     22  C   UNL     1       8.422   9.205  18.353  0.00  0.00    +0.000 C 
ATOM     23  O   UNL     1       7.675   9.616  17.483  0.00  0.00    +0.000 OA
ATOM     24  N   UNL     1       8.537   7.874  18.773  0.00  0.00    +0.000 N 
ATOM     25  H   UNL     1       9.019   7.665  19.636  0.00  0.00    +0.000 HD
BRANCH  22  29
ATOM     26  C   UNL     1       9.407  12.272  22.255  0.00  0.00    +0.000 C 
ATOM     27  C   UNL     1       9.715  11.684  20.912  0.00  0.00    +0.000 A 
ATOM     28  C   UNL     1       8.862  10.747  20.324  0.00  0.00    +0.000 A 
ATOM     29  C   UNL     1       9.207  10.241  19.075  0.00  0.00    +0.000 A 
ATOM     30  C   UNL     1      10.396  10.662  18.471  0.00  0.00    +0.000 A 
ATOM     31  C   UNL     1      11.182  11.589  19.126  0.00  0.00    +0.000 A 
ATOM     32  N   UNL     1      10.859  12.110  20.327  0.00  0.00    +0.000 NA
ENDBRANCH  22  29
ENDBRANCH   1  24
TORSDOF 4
ENDMDL
MODEL 4
REMARK VINA RESULT:      -8.5      1.122      1.419
REMARK  Name = 
REMARK  6 active torsions:
REMARK  status: ('A' for Active; 'I' for Inactive)
REMARK    1  A    between atoms: C_1  and  C_2
REMARK    2  A    between atoms: C_4  and  C_5
REMARK    3  A    between atoms: N_7  and  C_8
REMARK    4  A    between atoms: C_11  and  C_12
REMARK    5  A    between atoms: C_13  and  N_14
REMARK    6  A    between atoms: C_19  and  C_20
REMARK                            x       y       z     vdW  Elec       q    Type
REMARK                         _______ _______ _______ _____ _____    ______ ____
ROOT
ATOM      1  C   UNL     1       6.968   6.766  16.968  0.00  0.00    +0.000 A 
ATOM      2  C   UNL     1       7.197   6.200  15.715  0.00  0.00    +0.000 A 
ATOM      3  C   UNL     1       6.691   4.956  15.395  0.00  0.00    +0.000 A 
ATOM      4  C   UNL     1       5.942   4.209  16.315  0.00  0.00    +0.000 A 
ATOM      5  C   UNL     1       5.400   2.912  15.786  0.00  0.00    +0.000 C 
ATOM      6  C   UNL     1       5.806   4.706  17.642  0.00  0.00    +0.000 A 
ATOM      7  C   UNL     1       6.301   6.003  17.918  0.00  0.00    +0.000 A 
ENDROOT
BRANCH   6   8
ATOM      8  N   UNL     1       5.106   4.000  18.663  0.00  0.00    +0.000 N 
ATOM      9  C   UNL     1       3.865   4.391  19.239  0.00  0.00    +0.000 A 
ATOM     10  N   UNL     1       3.367   3.618  20.210  0.00  0.00    +0.000 NA
ATOM     11  C   UNL     1       2.342   4.127  20.930  0.00  0.00    +0.000 A 
ATOM     12  C   UNL     1       1.825   5.383  20.741  0.00  0.00    +0.000 A 
ATOM     13  C   UNL     1       2.375   6.105  19.704  0.00  0.00    +0.000 A 
ATOM     14  N   UNL     1       3.365   5.594  18.952  0.00  0.00    +0.000 NA
ATOM     15  H   UNL     1       5.694   3.767  19.448  0.00  0.00    +0.000 HD
BRANCH  13  16
ATOM     16  C   UNL     1       1.998   7.491  19.409  0.00  0.00    +0.000 A 
ATOM     17  C   UNL     1       2.197   8.084  18.156  0.00  0.00    +0.000 A 
ATOM     18  C   UNL     1       1.815   9.401  17.928  0.00  0.00    +0.000 A 
ATOM     19  C   UNL     1       1.232  10.102  18.965  0.00  0.00    +0.000 A 
ATOM     20  N   UNL     1       0.996   9.577  20.186  0.00  0.00    +0.000 NA
ATOM     21  C   UNL     1       1.376   8.289  20.374  0.00  0.00    +0.000 A 
ENDBRANCH  13  16
ENDBRANCH   6   8
BRANCH   1  24
ATOM     22  C   UNL     1       8.249   8.373  18.337  0.00  0.00    +0.000 C 
ATOM     23  O   UNL     1       8.741   7.558  19.096  0.00  0.00    +0.000 OA
ATOM     24  N   UNL     1       7.389   8.084  17.269  0.00  0.00    +0.000 N 
ATOM     25  H   UNL     1       7.206   8.793  16.572  0.00  0.00    +0.000 HD
BRANCH  22  29
ATOM     26  C   UNL     1      10.882  12.058  20.594  0.00  0.00    +0.000 C 
ATOM     27  C   UNL     1       9.933  11.543  19.555  0.00  0.00    +0.000 A 
ATOM     28  C   UNL     1       9.570  10.195  19.518  0.00  0.00    +0.000 A 
ATOM     29  C   UNL     1       8.685   9.782  18.528  0.00  0.00    +0.000 A 
ATOM     30  C   UNL     1       8.214  10.716  17.598  0.00  0.00    +0.000 A 
ATOM     31  C   UNL     1       8.628  12.028  17.709  0.00  0.00    +0.000 A 
ATOM     32  N   UNL     1       9.468  12.457  18.671  0.00  0.00    +0.000 NA
ENDBRANCH  22  29
ENDBRANCH   1  24
TORSDOF 4
ENDMDL
MODEL 5
REMARK VINA RESULT:      -8.2      1.252      1.483
REMARK  Name = 
REMARK  6 active torsions:
REMARK  status: ('A' for Active; 'I' for Inactive)
REMARK    1  A    between atoms: C_1  and  C_2
REMARK    2  A    between atoms: C_4  and  C_5
REMARK    3  A    between atoms: N_7  and  C_8
REMARK    4  A    between atoms: C_11  and  C_12
REMARK    5  A    between atoms: C_13  and  N_14
REMARK    6  A    between atoms: C_19  and  C_20
REMARK                            x       y       z     vdW  Elec       q    Type
REMARK                         _______ _______ _______ _____ _____    ______ ____
ROOT
ATOM      1  C   UNL     1       6.923   6.701  16.916  0.00  0.00    +0.000 A 
ATOM      2  C   UNL     1       7.150   6.112  15.673  0.00  0.00    +0.000 A 
ATOM      3  C   UNL     1       6.643   4.863  15.378  0.00  0.00    +0.000 A 
ATOM      4  C   UNL     1       5.896   4.133  16.314  0.00  0.00    +0.000 A 
ATOM      5  C   UNL     1       5.353   2.826  15.811  0.00  0.00    +0.000 C 
ATOM      6  C   UNL     1       5.763   4.655  17.632  0.00  0.00    +0.000 A 
ATOM      7  C   UNL     1       6.259   5.956  17.881  0.00  0.00    +0.000 A 
ENDROOT
BRANCH   6   8
ATOM      8  N   UNL     1       5.066   3.968  18.667  0.00  0.00    +0.000 N 
ATOM      9  C   UNL     1       3.833   4.377  19.248  0.00  0.00    +0.000 A 
ATOM     10  N   UNL     1       3.336   3.621  20.233  0.00  0.00    +0.000 NA
ATOM     11  C   UNL     1       2.321   4.149  20.955  0.00  0.00    +0.000 A 
ATOM     12  C   UNL     1       1.814   5.407  20.754  0.00  0.00    +0.000 A 
ATOM     13  C   UNL     1       2.362   6.110  19.703  0.00  0.00    +0.000 A 
ATOM     14  N   UNL     1       3.341   5.581  18.950  0.00  0.00    +0.000 NA
ATOM     15  H   UNL     1       5.658   3.740  19.450  0.00  0.00    +0.000 HD
BRANCH  13  16
ATOM     16  C   UNL     1       1.994   7.496  19.394  0.00  0.00    +0.000 A 
ATOM     17  C   UNL     1       2.193   8.073  18.133  0.00  0.00    +0.000 A 
ATOM     18  C   UNL     1       1.820   9.389  17.891  0.00  0.00    +0.000 A 
ATOM     19  C   UNL     1       1.247  10.108  18.922  0.00  0.00    +0.000 A 
ATOM     20  N   UNL     1       1.013   9.599  20.150  0.00  0.00    +0.000 NA
ATOM     21  C   UNL     1       1.383   8.310  20.352  0.00  0.00    +0.000 A 
ENDBRANCH  13  16
ENDBRANCH   6   8
BRANCH   1  24
ATOM     22  C   UNL     1       8.208   8.334  18.251  0.00  0.00    +0.000 C 
ATOM     23  O   UNL     1       8.701   7.533  19.024  0.00  0.00    +0.000 OA
ATOM     24  N   UNL     1       7.345   8.025  17.191  0.00  0.00    +0.000 N 
ATOM     25  H   UNL     1       7.161   8.721  16.481  0.00  0.00    +0.000 HD
BRANCH  22  29
ATOM     26  C   UNL     1       8.098  13.283  17.202  0.00  0.00    +0.000 C 
ATOM     27  C   UNL     1       8.600  12.093  17.961  0.00  0.00    +0.000 A 
ATOM     28  C   UNL     1       8.136  10.807  17.672  0.00  0.00    +0.000 A 
ATOM     29  C   UNL     1       8.644   9.746  18.415  0.00  0.00    +0.000 A 
ATOM     30  C   UNL     1       9.570  10.003  19.431  0.00  0.00    +0.000 A 
ATOM     31  C   UNL     1       9.970  11.306  19.650  0.00  0.00    +0.000 A 
ATOM     32  N   UNL     1       9.509  12.349  18.930  0.00  0.00    +0.000 NA
ENDBRANCH  22  29
ENDBRANCH   1  24
TORSDOF 4
ENDMDL
MODEL 6
REMARK VINA RESULT:      -7.9      2.656      7.315
REMARK  Name = 
REMARK  6 active torsions:
REMARK  status: ('A' for Active; 'I' for Inactive)
REMARK    1  A    between atoms: C_1  and  C_2
REMARK    2  A    between atoms: C_4  and  C_5
REMARK    3  A    between atoms: N_7  and  C_8
REMARK    4  A    between atoms: C_11  and  C_12
REMARK    5  A    between atoms: C_13  and  N_14
REMARK    6  A    between atoms: C_19  and  C_20
REMARK                            x       y       z     vdW  Elec       q    Type
REMARK                         _______ _______ _______ _____ _____    ______ ____
ROOT
ATOM      1  C   UNL     1       1.994   5.201  20.244  0.00  0.00    +0.000 A 
ATOM      2  C   UNL     1       2.263   4.223  21.200  0.00  0.00    +0.000 A 
ATOM      3  C   UNL     1       2.923   3.060  20.858  0.00  0.00    +0.000 A 
ATOM      4  C   UNL     1       3.335   2.809  19.541  0.00  0.00    +0.000 A 
ATOM      5  C   UNL     1       4.106   1.534  19.352  0.00  0.00    +0.000 C 
ATOM      6  C   UNL     1       2.957   3.731  18.524  0.00  0.00    +0.000 A 
ATOM      7  C   UNL     1       2.320   4.930  18.921  0.00  0.00    +0.000 A 
ENDROOT
BRANCH   6   8
ATOM      8  N   UNL     1       3.284   3.541  17.151  0.00  0.00    +0.000 N 
ATOM      9  C   UNL     1       4.491   3.959  16.522  0.00  0.00    +0.000 A 
ATOM     10  N   UNL     1       4.615   3.721  15.212  0.00  0.00    +0.000 NA
ATOM     11  C   UNL     1       5.629   4.348  14.572  0.00  0.00    +0.000 A 
ATOM     12  C   UNL     1       6.491   5.224  15.180  0.00  0.00    +0.000 A 
ATOM     13  C   UNL     1       6.312   5.393  16.536  0.00  0.00    +0.000 A 
ATOM     14  N   UNL     1       5.336   4.743  17.193  0.00  0.00    +0.000 NA
ATOM     15  H   UNL     1       2.551   3.844  16.531  0.00  0.00    +0.000 HD
BRANCH  13  16
ATOM     16  C   UNL     1       7.093   6.348  17.330  0.00  0.00    +0.000 A 
ATOM     17  C   UNL     1       7.250   7.691  16.967  0.00  0.00    +0.000 A 
ATOM     18  C   UNL     1       7.996   8.555  17.760  0.00  0.00    +0.000 A 
ATOM     19  C   UNL     1       8.570   8.056  18.912  0.00  0.00    +0.000 A 
ATOM     20  N   UNL     1       8.435   6.777  19.323  0.00  0.00    +0.000 NA
ATOM     21  C   UNL     1       7.698   5.961  18.529  0.00  0.00    +0.000 A 
ENDBRANCH  13  16
ENDBRANCH   6   8
BRANCH   1  24
ATOM     22  C   UNL     1       1.757   7.644  19.967  0.00  0.00    +0.000 C 
ATOM     23  O   UNL     1       2.546   7.763  19.048  0.00  0.00    +0.000 OA
ATOM     24  N   UNL     1       1.415   6.444  20.604  0.00  0.00    +0.000 N 
ATOM     25  H   UNL     1       0.602   6.413  21.204  0.00  0.00    +0.000 HD
BRANCH  22  29
ATOM     26  C   UNL     1      -0.945  10.506  23.147  0.00  0.00    +0.000 C 
ATOM     27  C   UNL     1      -0.212  10.271  21.862  0.00  0.00    +0.000 A 
ATOM     28  C   UNL     1       0.378   9.035  21.586  0.00  0.00    +0.000 A 
ATOM     29  C   UNL     1       1.043   8.883  20.374  0.00  0.00    +0.000 A 
ATOM     30  C   UNL     1       1.121   9.969  19.495  0.00  0.00    +0.000 A 
ATOM     31  C   UNL     1       0.511  11.156  19.851  0.00  0.00    +0.000 A 
ATOM     32  N   UNL     1      -0.157  11.322  21.010  0.00  0.00    +0.000 NA
ENDBRANCH  22  29
ENDBRANCH   1  24
TORSDOF 4
ENDMDL
MODEL 7
REMARK VINA RESULT:      -7.8      3.913      8.352
REMARK  Name = 
REMARK  6 active torsions:
REMARK  status: ('A' for Active; 'I' for Inactive)
REMARK    1  A    between atoms: C_1  and  C_2
REMARK    2  A    between atoms: C_4  and  C_5
REMARK    3  A    between atoms: N_7  and  C_8
REMARK    4  A    between atoms: C_11  and  C_12
REMARK    5  A    between atoms: C_13  and  N_14
REMARK    6  A    between atoms: C_19  and  C_20
REMARK                            x       y       z     vdW  Elec       q    Type
REMARK                         _______ _______ _______ _____ _____    ______ ____
ROOT
ATOM      1  C   UNL     1       9.423  10.316  19.184  0.00  0.00    +0.000 A 
ATOM      2  C   UNL     1       9.970  11.039  18.125  0.00  0.00    +0.000 A 
ATOM      3  C   UNL     1      10.472  12.310  18.320  0.00  0.00    +0.000 A 
ATOM      4  C   UNL     1      10.440  12.928  19.579  0.00  0.00    +0.000 A 
ATOM      5  C   UNL     1      11.095  14.278  19.638  0.00  0.00    +0.000 C 
ATOM      6  C   UNL     1       9.770  12.263  20.644  0.00  0.00    +0.000 A 
ATOM      7  C   UNL     1       9.308  10.946  20.416  0.00  0.00    +0.000 A 
ENDROOT
BRANCH   6   8
ATOM      8  N   UNL     1       9.640  12.828  21.946  0.00  0.00    +0.000 N 
ATOM      9  C   UNL     1       8.581  13.673  22.381  0.00  0.00    +0.000 A 
ATOM     10  N   UNL     1       8.638  14.135  23.635  0.00  0.00    +0.000 NA
ATOM     11  C   UNL     1       7.788  15.137  23.954  0.00  0.00    +0.000 A 
ATOM     12  C   UNL     1       6.918  15.714  23.066  0.00  0.00    +0.000 A 
ATOM     13  C   UNL     1       6.901  15.163  21.803  0.00  0.00    +0.000 A 
ATOM     14  N   UNL     1       7.710  14.138  21.483  0.00  0.00    +0.000 NA
ATOM     15  H   UNL     1      10.482  13.286  22.257  0.00  0.00    +0.000 HD
BRANCH  13  16
ATOM     16  C   UNL     1       6.089  15.703  20.708  0.00  0.00    +0.000 A 
ATOM     17  C   UNL     1       5.019  15.003  20.136  0.00  0.00    +0.000 A 
ATOM     18  C   UNL     1       4.277  15.564  19.104  0.00  0.00    +0.000 A 
ATOM     19  C   UNL     1       4.621  16.827  18.662  0.00  0.00    +0.000 A 
ATOM     20  N   UNL     1       5.628  17.556  19.188  0.00  0.00    +0.000 NA
ATOM     21  C   UNL     1       6.329  16.982  20.197  0.00  0.00    +0.000 A 
ENDBRANCH  13  16
ENDBRANCH   6   8
BRANCH   1  24
ATOM     22  C   UNL     1       8.048   8.593  18.068  0.00  0.00    +0.000 C 
ATOM     23  O   UNL     1       7.495   9.338  17.280  0.00  0.00    +0.000 OA
ATOM     24  N   UNL     1       9.005   8.972  19.019  0.00  0.00    +0.000 N 
ATOM     25  H   UNL     1       9.559   8.261  19.477  0.00  0.00    +0.000 HD
BRANCH  22  29
ATOM     26  C   UNL     1       6.482   4.500  15.540  0.00  0.00    +0.000 C 
ATOM     27  C   UNL     1       7.016   5.190  16.758  0.00  0.00    +0.000 A 
ATOM     28  C   UNL     1       7.229   6.570  16.767  0.00  0.00    +0.000 A 
ATOM     29  C   UNL     1       7.727   7.149  17.930  0.00  0.00    +0.000 A 
ATOM     30  C   UNL     1       8.018   6.333  19.029  0.00  0.00    +0.000 A 
ATOM     31  C   UNL     1       7.779   4.977  18.931  0.00  0.00    +0.000 A 
ATOM     32  N   UNL     1       7.278   4.396  17.822  0.00  0.00    +0.000 NA
ENDBRANCH  22  29
ENDBRANCH   1  24
TORSDOF 4
ENDMDL
MODEL 8
REMARK VINA RESULT:      -7.7      2.726      7.253
REMARK  Name = 
REMARK  6 active torsions:
REMARK  status: ('A' for Active; 'I' for Inactive)
REMARK    1  A    between atoms: C_1  and  C_2
REMARK    2  A    between atoms: C_4  and  C_5
REMARK    3  A    between atoms: N_7  and  C_8
REMARK    4  A    between atoms: C_11  and  C_12
REMARK    5  A    between atoms: C_13  and  N_14
REMARK    6  A    between atoms: C_19  and  C_20
REMARK                            x       y       z     vdW  Elec       q    Type
REMARK                         _______ _______ _______ _____ _____    ______ ____
ROOT
ATOM      1  C   UNL     1       2.005   5.068  20.352  0.00  0.00    +0.000 A 
ATOM      2  C   UNL     1       2.302   4.068  21.276  0.00  0.00    +0.000 A 
ATOM      3  C   UNL     1       2.957   2.916  20.889  0.00  0.00    +0.000 A 
ATOM      4  C   UNL     1       3.335   2.699  19.556  0.00  0.00    +0.000 A 
ATOM      5  C   UNL     1       4.106   1.432  19.315  0.00  0.00    +0.000 C 
ATOM      6  C   UNL     1       2.927   3.643  18.572  0.00  0.00    +0.000 A 
ATOM      7  C   UNL     1       2.296   4.830  19.015  0.00  0.00    +0.000 A 
ENDROOT
BRANCH   6   8
ATOM      8  N   UNL     1       3.218   3.489  17.186  0.00  0.00    +0.000 N 
ATOM      9  C   UNL     1       4.412   3.914  16.539  0.00  0.00    +0.000 A 
ATOM     10  N   UNL     1       4.502   3.710  15.220  0.00  0.00    +0.000 NA
ATOM     11  C   UNL     1       5.504   4.347  14.572  0.00  0.00    +0.000 A 
ATOM     12  C   UNL     1       6.388   5.200  15.181  0.00  0.00    +0.000 A 
ATOM     13  C   UNL     1       6.245   5.334  16.545  0.00  0.00    +0.000 A 
ATOM     14  N   UNL     1       5.280   4.673  17.209  0.00  0.00    +0.000 NA
ATOM     15  H   UNL     1       2.472   3.814  16.593  0.00  0.00    +0.000 HD
BRANCH  13  16
ATOM     16  C   UNL     1       7.052   6.261  17.344  0.00  0.00    +0.000 A 
ATOM     17  C   UNL     1       7.283   7.590  16.967  0.00  0.00    +0.000 A 
ATOM     18  C   UNL     1       8.051   8.429  17.766  0.00  0.00    +0.000 A 
ATOM     19  C   UNL     1       8.574   7.919  18.937  0.00  0.00    +0.000 A 
ATOM     20  N   UNL     1       8.369   6.653  19.362  0.00  0.00    +0.000 NA
ATOM     21  C   UNL     1       7.611   5.863  18.562  0.00  0.00    +0.000 A 
ENDBRANCH  13  16
ENDBRANCH   6   8
BRANCH   1  24
ATOM     22  C   UNL     1       1.794   7.523  20.179  0.00  0.00    +0.000 C 
ATOM     23  O   UNL     1       2.599   7.674  19.279  0.00  0.00    +0.000 OA
ATOM     24  N   UNL     1       1.431   6.299  20.756  0.00  0.00    +0.000 N 
ATOM     25  H   UNL     1       0.609   6.249  21.341  0.00  0.00    +0.000 HD
BRANCH  22  29
ATOM     26  C   UNL     1      -0.691  11.869  19.451  0.00  0.00    +0.000 C 
ATOM     27  C   UNL     1      -0.113  10.795  20.320  0.00  0.00    +0.000 A 
ATOM     28  C   UNL     1       0.574   9.713  19.765  0.00  0.00    +0.000 A 
ATOM     29  C   UNL     1       1.085   8.750  20.629  0.00  0.00    +0.000 A 
ATOM     30  C   UNL     1       0.873   8.883  22.005  0.00  0.00    +0.000 A 
ATOM     31  C   UNL     1       0.179   9.984  22.466  0.00  0.00    +0.000 A 
ATOM     32  N   UNL     1      -0.309  10.941  21.651  0.00  0.00    +0.000 NA
ENDBRANCH  22  29
ENDBRANCH   1  24
TORSDOF 4
ENDMDL
MODEL 9
REMARK VINA RESULT:      -7.6      5.015      9.462
REMARK  Name = 
REMARK  6 active torsions:
REMARK  status: ('A' for Active; 'I' for Inactive)
REMARK    1  A    between atoms: C_1  and  C_2
REMARK    2  A    between atoms: C_4  and  C_5
REMARK    3  A    between atoms: N_7  and  C_8
REMARK    4  A    between atoms: C_11  and  C_12
REMARK    5  A    between atoms: C_13  and  N_14
REMARK    6  A    between atoms: C_19  and  C_20
REMARK                            x       y       z     vdW  Elec       q    Type
REMARK                         _______ _______ _______ _____ _____    ______ ____
ROOT
ATOM      1  C   UNL     1       0.611   9.668  19.860  0.00  0.00    +0.000 A 
ATOM      2  C   UNL     1       0.111  10.060  18.619  0.00  0.00    +0.000 A 
ATOM      3  C   UNL     1      -0.281  11.364  18.394  0.00  0.00    +0.000 A 
ATOM      4  C   UNL     1      -0.207  12.339  19.400  0.00  0.00    +0.000 A 
ATOM      5  C   UNL     1      -0.600  13.723  18.970  0.00  0.00    +0.000 C 
ATOM      6  C   UNL     1       0.176  11.934  20.710  0.00  0.00    +0.000 A 
ATOM      7  C   UNL     1       0.612  10.600  20.890  0.00  0.00    +0.000 A 
ENDROOT
BRANCH   6   8
ATOM      8  N   UNL     1       0.235  12.837  21.810  0.00  0.00    +0.000 N 
ATOM      9  C   UNL     1      -0.853  13.177  22.662  0.00  0.00    +0.000 A 
ATOM     10  N   UNL     1      -0.619  14.068  23.632  0.00  0.00    +0.000 NA
ATOM     11  C   UNL     1      -1.701  14.584  24.259  0.00  0.00    +0.000 A 
ATOM     12  C   UNL     1      -2.996  14.273  23.931  0.00  0.00    +0.000 A 
ATOM     13  C   UNL     1      -3.150  13.327  22.941  0.00  0.00    +0.000 A 
ATOM     14  N   UNL     1      -2.083  12.774  22.339  0.00  0.00    +0.000 NA
ATOM     15  H   UNL     1       0.659  13.718  21.568  0.00  0.00    +0.000 HD
BRANCH  13  16
ATOM     16  C   UNL     1      -4.460  12.932  22.412  0.00  0.00    +0.000 A 
ATOM     17  C   UNL     1      -4.675  12.627  21.062  0.00  0.00    +0.000 A 
ATOM     18  C   UNL     1      -5.936  12.252  20.615  0.00  0.00    +0.000 A 
ATOM     19  C   UNL     1      -6.964  12.184  21.535  0.00  0.00    +0.000 A 
ATOM     20  N   UNL     1      -6.811  12.447  22.850  0.00  0.00    +0.000 NA
ATOM     21  C   UNL     1      -5.567  12.805  23.255  0.00  0.00    +0.000 A 
ENDBRANCH  13  16
ENDBRANCH   6   8
BRANCH   1  24
ATOM     22  C   UNL     1       2.059   7.773  19.215  0.00  0.00    +0.000 C 
ATOM     23  O   UNL     1       2.557   8.298  18.236  0.00  0.00    +0.000 OA
ATOM     24  N   UNL     1       1.118   8.361  20.070  0.00  0.00    +0.000 N 
ATOM     25  H   UNL     1       0.926   7.936  20.967  0.00  0.00    +0.000 HD
BRANCH  22  29
ATOM     26  C   UNL     1       1.911   3.317  21.608  0.00  0.00    +0.000 C 
ATOM     27  C   UNL     1       2.524   4.299  20.656  0.00  0.00    +0.000 A 
ATOM     28  C   UNL     1       1.956   5.559  20.458  0.00  0.00    +0.000 A 
ATOM     29  C   UNL     1       2.576   6.423  19.561  0.00  0.00    +0.000 A 
ATOM     30  C   UNL     1       3.718   5.994  18.876  0.00  0.00    +0.000 A 
ATOM     31  C   UNL     1       4.209   4.729  19.132  0.00  0.00    +0.000 A 
ATOM     32  N   UNL     1       3.639   3.882  20.012  0.00  0.00    +0.000 NA
ENDBRANCH  22  29
ENDBRANCH   1  24
TORSDOF 4
ENDMDL
