MODEL 1
REMARK VINA RESULT:      -8.0      0.000      0.000
REMARK  Name = 
REMARK  13 active torsions:
REMARK  status: ('A' for Active; 'I' for Inactive)
REMARK    1  A    between atoms: C_1  and  O_2
REMARK    2  A    between atoms: O_2  and  C_3
REMARK    3  A    between atoms: C_3  and  C_4
REMARK    4  A    between atoms: C_4  and  N_5
REMARK    5  A    between atoms: N_5  and  C_18
REMARK    6  A    between atoms: C_6  and  C_8
REMARK    7  A    between atoms: C_8  and  O_9
REMARK    8  A    between atoms: O_9  and  C_10
REMARK    9  A    between atoms: C_10  and  C_12
REMARK   10  A    between atoms: C_15  and  C_16
REMARK   11  A    between atoms: C_19  and  N_20
REMARK   12  A    between atoms: N_21  and  C_22
REMARK   13  A    between atoms: C_22  and  C_23
REMARK                            x       y       z     vdW  Elec       q    Type
REMARK                         _______ _______ _______ _____ _____    ______ ____
ROOT
ATOM      1  C   UNL     1       2.741   6.151  19.042  0.00  0.00    +0.000 A 
ATOM      2  C   UNL     1       2.499   7.443  18.703  0.00  0.00    +0.000 A 
ATOM      3  N   UNL     1       1.860   8.283  19.625  0.00  0.00    +0.000 N 
ATOM      4  C   UNL     1       1.343   7.819  20.831  0.00  0.00    +0.000 A 
ATOM      5  O   UNL     1       0.754   8.517  21.655  0.00  0.00    +0.000 OA
ATOM      6  N   UNL     1       1.553   6.505  21.115  0.00  0.00    +0.000 N 
ATOM      7  C   UNL     1       2.334   5.662  20.392  0.00  0.00    +0.000 A 
ATOM      8  O   UNL     1       2.705   4.585  20.850  0.00  0.00    +0.000 OA
ATOM      9  H   UNL     1       1.259   6.193  22.028  0.00  0.00    +0.000 HD
ENDROOT
BRANCH   1  10
ATOM     10  N   UNL     1       3.393   5.222  18.196  0.00  0.00    +0.000 N 
ATOM     11  C   UNL     1       4.785   5.262  18.231  0.00  0.00    +0.000 C 
ATOM     12  O   UNL     1       5.384   6.095  18.931  0.00  0.00    +0.000 OA
BRANCH  10  13
ATOM     13  C   UNL     1       2.453   4.250  17.569  0.00  0.00    +0.000 C 
BRANCH  13  14
ATOM     14  C   UNL     1       2.666   2.734  17.610  0.00  0.00    +0.000 C 
BRANCH  14  16
ATOM     15  C   UNL     1       0.684   2.524  18.866  0.00  0.00    +0.000 C 
ATOM     16  O   UNL     1       2.052   2.138  18.749  0.00  0.00    +0.000 OA
ENDBRANCH  14  16
ENDBRANCH  13  14
ENDBRANCH  10  13
BRANCH  11  17
ATOM     17  C   UNL     1       5.658   4.291  17.426  0.00  0.00    +0.000 C 
BRANCH  17  18
ATOM     18  O   UNL     1       5.576   4.405  16.001  0.00  0.00    +0.000 OA
BRANCH  18  19
ATOM     19  C   UNL     1       6.637   5.040  15.428  0.00  0.00    +0.000 C 
ATOM     20  O   UNL     1       7.374   5.816  16.031  0.00  0.00    +0.000 OA
BRANCH  19  21
ATOM     21  C   UNL     1       6.777   4.643  14.045  0.00  0.00    +0.000 A 
ATOM     22  C   UNL     1       7.628   5.030  13.024  0.00  0.00    +0.000 A 
ATOM     23  C   UNL     1       7.278   4.265  11.882  0.00  0.00    +0.000 A 
ATOM     24  C   UNL     1       6.243   3.445  12.271  0.00  0.00    +0.000 A 
ATOM     25  C   UNL     1       5.468   2.385  11.596  0.00  0.00    +0.000 C 
ATOM     26  O   UNL     1       5.916   3.689  13.568  0.00  0.00    +0.000 OA
ENDBRANCH  19  21
ENDBRANCH  18  19
ENDBRANCH  17  18
ENDBRANCH  11  17
ENDBRANCH   1  10
BRANCH   2  27
ATOM     27  N   UNL     1       2.875   7.932  17.460  0.00  0.00    +0.000 N 
ATOM     28  H   UNL     1       2.094   8.248  16.884  0.00  0.00    +0.000 HD
ATOM     29  H   UNL     1       3.518   7.336  16.956  0.00  0.00    +0.000 HD
ENDBRANCH   2  27
BRANCH   3  30
ATOM     30  C   UNL     1       1.611   9.700  19.323  0.00  0.00    +0.000 C 
BRANCH  30  31
ATOM     31  C   UNL     1       0.188  10.034  18.896  0.00  0.00    +0.000 A 
ATOM     32  C   UNL     1      -0.553  10.970  19.637  0.00  0.00    +0.000 A 
ATOM     33  C   UNL     1      -1.809  11.405  19.198  0.00  0.00    +0.000 A 
ATOM     34  C   UNL     1      -2.342  10.914  18.009  0.00  0.00    +0.000 A 
ATOM     35  C   UNL     1      -1.625   9.982  17.264  0.00  0.00    +0.000 A 
ATOM     36  C   UNL     1      -0.368   9.549  17.701  0.00  0.00    +0.000 A 
ENDBRANCH  30  31
ENDBRANCH   3  30
TORSDOF 11
ENDMDL
MODEL 2
REMARK VINA RESULT:      -7.7      1.077      1.465
REMARK  Name = 
REMARK  13 active torsions:
REMARK  status: ('A' for Active; 'I' for Inactive)
REMARK    1  A    between atoms: C_1  and  O_2
REMARK    2  A    between atoms: O_2  and  C_3
REMARK    3  A    between atoms: C_3  and  C_4
REMARK    4  A    between atoms: C_4  and  N_5
REMARK    5  A    between atoms: N_5  and  C_18
REMARK    6  A    between atoms: C_6  and  C_8
REMARK    7  A    between atoms: C_8  and  O_9
REMARK    8  A    between atoms: O_9  and  C_10
REMARK    9  A    between atoms: C_10  and  C_12
REMARK   10  A    between atoms: C_15  and  C_16
REMARK   11  A    between atoms: C_19  and  N_20
REMARK   12  A    between atoms: N_21  and  C_22
REMARK   13  A    between atoms: C_22  and  C_23
REMARK                            x       y       z     vdW  Elec       q    Type
REMARK                         _______ _______ _______ _____ _____    ______ ____
ROOT
ATOM      1  C   UNL     1       2.518   6.325  19.291  0.00  0.00    +0.000 A 
ATOM      2  C   UNL     1       2.334   7.603  18.869  0.00  0.00    +0.000 A 
ATOM      3  N   UNL     1       1.662   8.507  19.702  0.00  0.00    +0.000 N 
ATOM      4  C   UNL     1       1.056   8.123  20.895  0.00  0.00    +0.000 A 
ATOM      5  O   UNL     1       0.436   8.880  21.641  0.00  0.00    +0.000 OA
ATOM      6  N   UNL     1       1.211   6.821  21.261  0.00  0.00    +0.000 N 
ATOM      7  C   UNL     1       2.012   5.922  20.636  0.00  0.00    +0.000 A 
ATOM      8  O   UNL     1       2.323   4.862  21.174  0.00  0.00    +0.000 OA
ATOM      9  H   UNL     1       0.851   6.568  22.169  0.00  0.00    +0.000 HD
ENDROOT
BRANCH   1  10
ATOM     10  N   UNL     1       3.196   5.336  18.540  0.00  0.00    +0.000 N 
ATOM     11  C   UNL     1       4.537   5.156  18.869  0.00  0.00    +0.000 C 
ATOM     12  O   UNL     1       5.084   5.859  19.733  0.00  0.00    +0.000 OA
BRANCH  10  13
ATOM     13  C   UNL     1       2.283   4.546  17.665  0.00  0.00    +0.000 C 
BRANCH  13  14
ATOM     14  C   UNL     1       1.596   3.255  18.122  0.00  0.00    +0.000 C 
BRANCH  14  16
ATOM     15  C   UNL     1       3.137   1.587  18.748  0.00  0.00    +0.000 C 
ATOM     16  O   UNL     1       2.308   2.094  17.705  0.00  0.00    +0.000 OA
ENDBRANCH  14  16
ENDBRANCH  13  14
ENDBRANCH  10  13
BRANCH  11  17
ATOM     17  C   UNL     1       5.413   4.089  18.200  0.00  0.00    +0.000 C 
BRANCH  17  18
ATOM     18  O   UNL     1       6.803   4.406  18.071  0.00  0.00    +0.000 OA
BRANCH  18  19
ATOM     19  C   UNL     1       7.073   5.379  17.155  0.00  0.00    +0.000 C 
ATOM     20  O   UNL     1       7.475   6.501  17.452  0.00  0.00    +0.000 OA
BRANCH  19  21
ATOM     21  C   UNL     1       6.849   4.888  15.814  0.00  0.00    +0.000 A 
ATOM     22  C   UNL     1       6.002   3.932  15.278  0.00  0.00    +0.000 A 
ATOM     23  C   UNL     1       6.240   3.907  13.880  0.00  0.00    +0.000 A 
ATOM     24  C   UNL     1       7.208   4.856  13.637  0.00  0.00    +0.000 A 
ATOM     25  C   UNL     1       7.858   5.365  12.414  0.00  0.00    +0.000 C 
ATOM     26  O   UNL     1       7.600   5.431  14.805  0.00  0.00    +0.000 OA
ENDBRANCH  19  21
ENDBRANCH  18  19
ENDBRANCH  17  18
ENDBRANCH  11  17
ENDBRANCH   1  10
BRANCH   2  27
ATOM     27  N   UNL     1       2.802   8.014  17.629  0.00  0.00    +0.000 N 
ATOM     28  H   UNL     1       2.451   8.925  17.334  0.00  0.00    +0.000 HD
ATOM     29  H   UNL     1       2.731   7.312  16.905  0.00  0.00    +0.000 HD
ENDBRANCH   2  27
BRANCH   3  30
ATOM     30  C   UNL     1       1.473   9.912  19.310  0.00  0.00    +0.000 C 
BRANCH  30  31
ATOM     31  C   UNL     1       0.076  10.268  18.821  0.00  0.00    +0.000 A 
ATOM     32  C   UNL     1      -0.579  11.388  19.359  0.00  0.00    +0.000 A 
ATOM     33  C   UNL     1      -1.802  11.828  18.838  0.00  0.00    +0.000 A 
ATOM     34  C   UNL     1      -2.388  11.156  17.769  0.00  0.00    +0.000 A 
ATOM     35  C   UNL     1      -1.756  10.040  17.226  0.00  0.00    +0.000 A 
ATOM     36  C   UNL     1      -0.533   9.602  17.744  0.00  0.00    +0.000 A 
ENDBRANCH  30  31
ENDBRANCH   3  30
TORSDOF 11
ENDMDL
MODEL 3
REMARK VINA RESULT:      -7.7      0.805      1.246
REMARK  Name = 
REMARK  13 active torsions:
REMARK  status: ('A' for Active; 'I' for Inactive)
REMARK    1  A    between atoms: C_1  and  O_2
REMARK    2  A    between atoms: O_2  and  C_3
REMARK    3  A    between atoms: C_3  and  C_4
REMARK    4  A    between atoms: C_4  and  N_5
REMARK    5  A    between atoms: N_5  and  C_18
REMARK    6  A    between atoms: C_6  and  C_8
REMARK    7  A    between atoms: C_8  and  O_9
REMARK    8  A    between atoms: O_9  and  C_10
REMARK    9  A    between atoms: C_10  and  C_12
REMARK   10  A    between atoms: C_15  and  C_16
REMARK   11  A    between atoms: C_19  and  N_20
REMARK   12  A    between atoms: N_21  and  C_22
REMARK   13  A    between atoms: C_22  and  C_23
REMARK                            x       y       z     vdW  Elec       q    Type
REMARK                         _______ _______ _______ _____ _____    ______ ____
ROOT
ATOM      1  C   UNL     1       2.327   6.745  18.946  0.00  0.00    +0.000 A 
ATOM      2  C   UNL     1       2.060   8.046  18.663  0.00  0.00    +0.000 A 
ATOM      3  N   UNL     1       1.570   8.879  19.677  0.00  0.00    +0.000 N 
ATOM      4  C   UNL     1       1.220   8.402  20.938  0.00  0.00    +0.000 A 
ATOM      5  O   UNL     1       0.764   9.095  21.846  0.00  0.00    +0.000 OA
ATOM      6  N   UNL     1       1.447   7.081  21.171  0.00  0.00    +0.000 N 
ATOM      7  C   UNL     1       2.106   6.240  20.333  0.00  0.00    +0.000 A 
ATOM      8  O   UNL     1       2.521   5.151  20.720  0.00  0.00    +0.000 OA
ATOM      9  H   UNL     1       1.280   6.759  22.112  0.00  0.00    +0.000 HD
ENDROOT
BRANCH   1  10
ATOM     10  N   UNL     1       2.840   5.822  18.005  0.00  0.00    +0.000 N 
ATOM     11  C   UNL     1       4.206   5.922  17.756  0.00  0.00    +0.000 C 
ATOM     12  O   UNL     1       4.893   6.800  18.303  0.00  0.00    +0.000 OA
BRANCH  10  13
ATOM     13  C   UNL     1       1.840   4.791  17.601  0.00  0.00    +0.000 C 
BRANCH  13  14
ATOM     14  C   UNL     1       1.758   3.406  18.249  0.00  0.00    +0.000 C 
BRANCH  14  16
ATOM     15  C   UNL     1       3.459   1.792  18.026  0.00  0.00    +0.000 C 
ATOM     16  O   UNL     1       2.318   2.393  17.419  0.00  0.00    +0.000 OA
ENDBRANCH  14  16
ENDBRANCH  13  14
ENDBRANCH  10  13
BRANCH  11  17
ATOM     17  C   UNL     1       4.945   4.967  16.809  0.00  0.00    +0.000 C 
BRANCH  17  18
ATOM     18  O   UNL     1       5.879   5.571  15.909  0.00  0.00    +0.000 OA
BRANCH  18  19
ATOM     19  C   UNL     1       6.931   4.771  15.573  0.00  0.00    +0.000 C 
ATOM     20  O   UNL     1       7.734   4.324  16.388  0.00  0.00    +0.000 OA
BRANCH  19  21
ATOM     21  C   UNL     1       6.935   4.511  14.151  0.00  0.00    +0.000 A 
ATOM     22  C   UNL     1       7.659   5.027  13.090  0.00  0.00    +0.000 A 
ATOM     23  C   UNL     1       7.215   4.358  11.921  0.00  0.00    +0.000 A 
ATOM     24  C   UNL     1       6.254   3.462  12.334  0.00  0.00    +0.000 A 
ATOM     25  C   UNL     1       5.446   2.437  11.643  0.00  0.00    +0.000 C 
ATOM     26  O   UNL     1       6.060   3.570  13.675  0.00  0.00    +0.000 OA
ENDBRANCH  19  21
ENDBRANCH  18  19
ENDBRANCH  17  18
ENDBRANCH  11  17
ENDBRANCH   1  10
BRANCH   2  27
ATOM     27  N   UNL     1       2.266   8.550  17.387  0.00  0.00    +0.000 N 
ATOM     28  H   UNL     1       1.469   9.061  17.009  0.00  0.00    +0.000 HD
ATOM     29  H   UNL     1       2.649   7.881  16.733  0.00  0.00    +0.000 HD
ENDBRANCH   2  27
BRANCH   3  30
ATOM     30  C   UNL     1       1.305  10.304  19.434  0.00  0.00    +0.000 C 
BRANCH  30  31
ATOM     31  C   UNL     1      -0.106  10.631  18.963  0.00  0.00    +0.000 A 
ATOM     32  C   UNL     1      -0.658   9.916  17.886  0.00  0.00    +0.000 A 
ATOM     33  C   UNL     1      -1.996  10.090  17.515  0.00  0.00    +0.000 A 
ATOM     34  C   UNL     1      -2.806  10.979  18.216  0.00  0.00    +0.000 A 
ATOM     35  C   UNL     1      -2.276  11.701  19.282  0.00  0.00    +0.000 A 
ATOM     36  C   UNL     1      -0.939  11.525  19.656  0.00  0.00    +0.000 A 
ENDBRANCH  30  31
ENDBRANCH   3  30
TORSDOF 11
ENDMDL
MODEL 4
REMARK VINA RESULT:      -7.4      1.180      1.520
REMARK  Name = 
REMARK  13 active torsions:
REMARK  status: ('A' for Active; 'I' for Inactive)
REMARK    1  A    between atoms: C_1  and  O_2
REMARK    2  A    between atoms: O_2  and  C_3
REMARK    3  A    between atoms: C_3  and  C_4
REMARK    4  A    between atoms: C_4  and  N_5
REMARK    5  A    between atoms: N_5  and  C_18
REMARK    6  A    between atoms: C_6  and  C_8
REMARK    7  A    between atoms: C_8  and  O_9
REMARK    8  A    between atoms: O_9  and  C_10
REMARK    9  A    between atoms: C_10  and  C_12
REMARK   10  A    between atoms: C_15  and  C_16
REMARK   11  A    between atoms: C_19  and  N_20
REMARK   12  A    between atoms: N_21  and  C_22
REMARK   13  A    between atoms: C_22  and  C_23
REMARK                            x       y       z     vdW  Elec       q    Type
REMARK                         _______ _______ _______ _____ _____    ______ ____
ROOT
ATOM      1  C   UNL     1       2.243   7.005  18.947  0.00  0.00    +0.000 A 
ATOM      2  C   UNL     1       1.887   8.288  18.675  0.00  0.00    +0.000 A 
ATOM      3  N   UNL     1       1.388   9.092  19.707  0.00  0.00    +0.000 N 
ATOM      4  C   UNL     1       1.118   8.599  20.981  0.00  0.00    +0.000 A 
ATOM      5  O   UNL     1       0.656   9.266  21.906  0.00  0.00    +0.000 OA
ATOM      6  N   UNL     1       1.433   7.295  21.205  0.00  0.00    +0.000 N 
ATOM      7  C   UNL     1       2.108   6.492  20.342  0.00  0.00    +0.000 A 
ATOM      8  O   UNL     1       2.602   5.431  20.712  0.00  0.00    +0.000 OA
ATOM      9  H   UNL     1       1.322   6.965  22.152  0.00  0.00    +0.000 HD
ENDROOT
BRANCH   1  10
ATOM     10  N   UNL     1       2.773   6.112  17.987  0.00  0.00    +0.000 N 
ATOM     11  C   UNL     1       4.073   6.388  17.571  0.00  0.00    +0.000 C 
ATOM     12  O   UNL     1       4.683   7.382  17.997  0.00  0.00    +0.000 OA
BRANCH  10  13
ATOM     13  C   UNL     1       1.893   4.933  17.745  0.00  0.00    +0.000 C 
BRANCH  13  14
ATOM     14  C   UNL     1       2.387   3.486  17.848  0.00  0.00    +0.000 C 
BRANCH  14  16
ATOM     15  C   UNL     1       0.783   2.534  19.287  0.00  0.00    +0.000 C 
ATOM     16  O   UNL     1       1.310   2.561  17.963  0.00  0.00    +0.000 OA
ENDBRANCH  14  16
ENDBRANCH  13  14
ENDBRANCH  10  13
BRANCH  11  17
ATOM     17  C   UNL     1       4.829   5.495  16.579  0.00  0.00    +0.000 C 
BRANCH  17  18
ATOM     18  O   UNL     1       5.673   4.492  17.152  0.00  0.00    +0.000 OA
BRANCH  18  19
ATOM     19  C   UNL     1       6.939   4.470  16.646  0.00  0.00    +0.000 C 
ATOM     20  O   UNL     1       7.951   4.460  17.342  0.00  0.00    +0.000 OA
BRANCH  19  21
ATOM     21  C   UNL     1       6.906   4.428  15.201  0.00  0.00    +0.000 A 
ATOM     22  C   UNL     1       6.170   3.694  14.286  0.00  0.00    +0.000 A 
ATOM     23  C   UNL     1       6.583   4.111  12.994  0.00  0.00    +0.000 A 
ATOM     24  C   UNL     1       7.537   5.085  13.192  0.00  0.00    +0.000 A 
ATOM     25  C   UNL     1       8.317   5.952  12.287  0.00  0.00    +0.000 C 
ATOM     26  O   UNL     1       7.757   5.260  14.522  0.00  0.00    +0.000 OA
ENDBRANCH  19  21
ENDBRANCH  18  19
ENDBRANCH  17  18
ENDBRANCH  11  17
ENDBRANCH   1  10
BRANCH   2  27
ATOM     27  N   UNL     1       2.012   8.799  17.391  0.00  0.00    +0.000 N 
ATOM     28  H   UNL     1       1.447   8.314  16.694  0.00  0.00    +0.000 HD
ATOM     29  H   UNL     1       2.967   8.943  17.092  0.00  0.00    +0.000 HD
ENDBRANCH   2  27
BRANCH   3  30
ATOM     30  C   UNL     1       1.028  10.498  19.474  0.00  0.00    +0.000 C 
BRANCH  30  31
ATOM     31  C   UNL     1      -0.439  10.747  19.147  0.00  0.00    +0.000 A 
ATOM     32  C   UNL     1      -1.154  11.714  19.875  0.00  0.00    +0.000 A 
ATOM     33  C   UNL     1      -2.459  12.069  19.514  0.00  0.00    +0.000 A 
ATOM     34  C   UNL     1      -3.068  11.466  18.418  0.00  0.00    +0.000 A 
ATOM     35  C   UNL     1      -2.378  10.503  17.688  0.00  0.00    +0.000 A 
ATOM     36  C   UNL     1      -1.073  10.149  18.046  0.00  0.00    +0.000 A 
ENDBRANCH  30  31
ENDBRANCH   3  30
TORSDOF 11
ENDMDL
MODEL 5
REMARK VINA RESULT:      -7.3      1.752      2.947
REMARK  Name = 
REMARK  13 active torsions:
REMARK  status: ('A' for Active; 'I' for Inactive)
REMARK    1  A    between atoms: C_1  and  O_2
REMARK    2  A    between atoms: O_2  and  C_3
REMARK    3  A    between atoms: C_3  and  C_4
REMARK    4  A    between atoms: C_4  and  N_5
REMARK    5  A    between atoms: N_5  and  C_18
REMARK    6  A    between atoms: C_6  and  C_8
REMARK    7  A    between atoms: C_8  and  O_9
REMARK    8  A    between atoms: O_9  and  C_10
REMARK    9  A    between atoms: C_10  and  C_12
REMARK   10  A    between atoms: C_15  and  C_16
REMARK   11  A    between atoms: C_19  and  N_20
REMARK   12  A    between atoms: N_21  and  C_22
REMARK   13  A    between atoms: C_22  and  C_23
REMARK                            x       y       z     vdW  Elec       q    Type
REMARK                         _______ _______ _______ _____ _____    ______ ____
ROOT
ATOM      1  C   UNL     1       2.222   6.565  19.243  0.00  0.00    +0.000 A 
ATOM      2  C   UNL     1       2.068   7.839  18.798  0.00  0.00    +0.000 A 
ATOM      3  N   UNL     1       1.529   8.803  19.660  0.00  0.00    +0.000 N 
ATOM      4  C   UNL     1       1.022   8.487  20.918  0.00  0.00    +0.000 A 
ATOM      5  O   UNL     1       0.518   9.298  21.693  0.00  0.00    +0.000 OA
ATOM      6  N   UNL     1       1.141   7.189  21.310  0.00  0.00    +0.000 N 
ATOM      7  C   UNL     1       1.828   6.228  20.642  0.00  0.00    +0.000 A 
ATOM      8  O   UNL     1       2.132   5.169  21.183  0.00  0.00    +0.000 OA
ATOM      9  H   UNL     1       0.857   6.982  22.256  0.00  0.00    +0.000 HD
ENDROOT
BRANCH   1  10
ATOM     10  N   UNL     1       2.770   5.519  18.464  0.00  0.00    +0.000 N 
ATOM     11  C   UNL     1       4.119   5.256  18.687  0.00  0.00    +0.000 C 
ATOM     12  O   UNL     1       4.781   5.938  19.486  0.00  0.00    +0.000 OA
BRANCH  10  13
ATOM     13  C   UNL     1       1.739   4.774  17.686  0.00  0.00    +0.000 C 
BRANCH  13  14
ATOM     14  C   UNL     1       1.441   3.287  17.901  0.00  0.00    +0.000 C 
BRANCH  14  16
ATOM     15  C   UNL     1       1.897   2.171  19.925  0.00  0.00    +0.000 C 
ATOM     16  O   UNL     1       0.989   3.019  19.225  0.00  0.00    +0.000 OA
ENDBRANCH  14  16
ENDBRANCH  13  14
ENDBRANCH  10  13
BRANCH  11  17
ATOM     17  C   UNL     1       4.866   4.120  17.976  0.00  0.00    +0.000 C 
BRANCH  17  18
ATOM     18  O   UNL     1       5.034   4.265  16.562  0.00  0.00    +0.000 OA
BRANCH  18  19
ATOM     19  C   UNL     1       6.326   4.455  16.168  0.00  0.00    +0.000 C 
ATOM     20  O   UNL     1       6.808   3.960  15.152  0.00  0.00    +0.000 OA
BRANCH  19  21
ATOM     21  C   UNL     1       7.013   5.331  17.090  0.00  0.00    +0.000 A 
ATOM     22  C   UNL     1       7.739   5.115  18.249  0.00  0.00    +0.000 A 
ATOM     23  C   UNL     1       8.178   6.385  18.705  0.00  0.00    +0.000 A 
ATOM     24  C   UNL     1       7.707   7.304  17.794  0.00  0.00    +0.000 A 
ATOM     25  C   UNL     1       7.849   8.766  17.649  0.00  0.00    +0.000 C 
ATOM     26  O   UNL     1       6.978   6.677  16.832  0.00  0.00    +0.000 OA
ENDBRANCH  19  21
ENDBRANCH  18  19
ENDBRANCH  17  18
ENDBRANCH  11  17
ENDBRANCH   1  10
BRANCH   2  27
ATOM     27  N   UNL     1       2.435   8.188  17.506  0.00  0.00    +0.000 N 
ATOM     28  H   UNL     1       1.880   7.734  16.780  0.00  0.00    +0.000 HD
ATOM     29  H   UNL     1       3.429   8.139  17.329  0.00  0.00    +0.000 HD
ENDBRANCH   2  27
BRANCH   3  30
ATOM     30  C   UNL     1       1.379  10.204  19.242  0.00  0.00    +0.000 C 
BRANCH  30  31
ATOM     31  C   UNL     1      -0.029  10.612  18.828  0.00  0.00    +0.000 A 
ATOM     32  C   UNL     1      -0.685   9.896  17.812  0.00  0.00    +0.000 A 
ATOM     33  C   UNL     1      -2.025  10.150  17.501  0.00  0.00    +0.000 A 
ATOM     34  C   UNL     1      -2.733  11.122  18.203  0.00  0.00    +0.000 A 
ATOM     35  C   UNL     1      -2.099  11.845  19.209  0.00  0.00    +0.000 A 
ATOM     36  C   UNL     1      -0.760  11.590  19.523  0.00  0.00    +0.000 A 
ENDBRANCH  30  31
ENDBRANCH   3  30
TORSDOF 11
ENDMDL
MODEL 6
REMARK VINA RESULT:      -7.0      3.816     10.131
REMARK  Name = 
REMARK  13 active torsions:
REMARK  status: ('A' for Active; 'I' for Inactive)
REMARK    1  A    between atoms: C_1  and  O_2
REMARK    2  A    between atoms: O_2  and  C_3
REMARK    3  A    between atoms: C_3  and  C_4
REMARK    4  A    between atoms: C_4  and  N_5
REMARK    5  A    between atoms: N_5  and  C_18
REMARK    6  A    between atoms: C_6  and  C_8
REMARK    7  A    between atoms: C_8  and  O_9
REMARK    8  A    between atoms: O_9  and  C_10
REMARK    9  A    between atoms: C_10  and  C_12
REMARK   10  A    between atoms: C_15  and  C_16
REMARK   11  A    between atoms: C_19  and  N_20
REMARK   12  A    between atoms: N_21  and  C_22
REMARK   13  A    between atoms: C_22  and  C_23
REMARK                            x       y       z     vdW  Elec       q    Type
REMARK                         _______ _______ _______ _____ _____    ______ ____
ROOT
ATOM      1  C   UNL     1       1.100   9.542  19.405  0.00  0.00    +0.000 A 
ATOM      2  C   UNL     1       1.447   8.364  19.987  0.00  0.00    +0.000 A 
ATOM      3  N   UNL     1       2.418   7.561  19.375  0.00  0.00    +0.000 N 
ATOM      4  C   UNL     1       2.957   7.853  18.125  0.00  0.00    +0.000 A 
ATOM      5  O   UNL     1       3.791   7.161  17.544  0.00  0.00    +0.000 OA
ATOM      6  N   UNL     1       2.545   9.012  17.544  0.00  0.00    +0.000 N 
ATOM      7  C   UNL     1       1.773   9.956  18.140  0.00  0.00    +0.000 A 
ATOM      8  O   UNL     1       1.676  11.088  17.673  0.00  0.00    +0.000 OA
ATOM      9  H   UNL     1       3.005   9.267  16.683  0.00  0.00    +0.000 HD
ENDROOT
BRANCH   1  10
ATOM     10  N   UNL     1       0.146  10.437  19.944  0.00  0.00    +0.000 N 
ATOM     11  C   UNL     1       0.663  11.435  20.765  0.00  0.00    +0.000 C 
ATOM     12  O   UNL     1       1.876  11.484  21.025  0.00  0.00    +0.000 OA
BRANCH  10  13
ATOM     13  C   UNL     1      -1.217  10.244  19.371  0.00  0.00    +0.000 C 
BRANCH  13  14
ATOM     14  C   UNL     1      -1.742  11.044  18.174  0.00  0.00    +0.000 C 
BRANCH  14  16
ATOM     15  C   UNL     1      -2.732  10.867  16.044  0.00  0.00    +0.000 C 
ATOM     16  O   UNL     1      -1.910  10.228  17.018  0.00  0.00    +0.000 OA
ENDBRANCH  14  16
ENDBRANCH  13  14
ENDBRANCH  10  13
BRANCH  11  17
ATOM     17  C   UNL     1      -0.215  12.527  21.390  0.00  0.00    +0.000 C 
BRANCH  17  18
ATOM     18  O   UNL     1      -0.447  12.419  22.798  0.00  0.00    +0.000 OA
BRANCH  18  19
ATOM     19  C   UNL     1      -1.514  11.638  23.131  0.00  0.00    +0.000 C 
ATOM     20  O   UNL     1      -1.436  10.429  23.334  0.00  0.00    +0.000 OA
BRANCH  19  21
ATOM     21  C   UNL     1      -2.714  12.439  23.237  0.00  0.00    +0.000 A 
ATOM     22  C   UNL     1      -3.073  13.516  24.029  0.00  0.00    +0.000 A 
ATOM     23  C   UNL     1      -4.394  13.878  23.659  0.00  0.00    +0.000 A 
ATOM     24  C   UNL     1      -4.763  13.012  22.655  0.00  0.00    +0.000 A 
ATOM     25  C   UNL     1      -5.965  12.878  21.809  0.00  0.00    +0.000 C 
ATOM     26  O   UNL     1      -3.763  12.122  22.415  0.00  0.00    +0.000 OA
ENDBRANCH  19  21
ENDBRANCH  18  19
ENDBRANCH  17  18
ENDBRANCH  11  17
ENDBRANCH   1  10
BRANCH   2  27
ATOM     27  N   UNL     1       0.849   7.956  21.170  0.00  0.00    +0.000 N 
ATOM     28  H   UNL     1      -0.058   8.389  21.348  0.00  0.00    +0.000 HD
ATOM     29  H   UNL     1       1.460   7.979  21.974  0.00  0.00    +0.000 HD
ENDBRANCH   2  27
BRANCH   3  30
ATOM     30  C   UNL     1       2.858   6.298  19.985  0.00  0.00    +0.000 C 
BRANCH  30  31
ATOM     31  C   UNL     1       2.032   5.074  19.613  0.00  0.00    +0.000 A 
ATOM     32  C   UNL     1       2.155   4.523  18.326  0.00  0.00    +0.000 A 
ATOM     33  C   UNL     1       1.519   3.321  17.992  0.00  0.00    +0.000 A 
ATOM     34  C   UNL     1       0.753   2.649  18.941  0.00  0.00    +0.000 A 
ATOM     35  C   UNL     1       0.615   3.183  20.219  0.00  0.00    +0.000 A 
ATOM     36  C   UNL     1       1.252   4.382  20.554  0.00  0.00    +0.000 A 
ENDBRANCH  30  31
ENDBRANCH   3  30
TORSDOF 11
ENDMDL
MODEL 7
REMARK VINA RESULT:      -7.0      2.324      3.138
REMARK  Name = 
REMARK  13 active torsions:
REMARK  status: ('A' for Active; 'I' for Inactive)
REMARK    1  A    between atoms: C_1  and  O_2
REMARK    2  A    between atoms: O_2  and  C_3
REMARK    3  A    between atoms: C_3  and  C_4
REMARK    4  A    between atoms: C_4  and  N_5
REMARK    5  A    between atoms: N_5  and  C_18
REMARK    6  A    between atoms: C_6  and  C_8
REMARK    7  A    between atoms: C_8  and  O_9
REMARK    8  A    between atoms: O_9  and  C_10
REMARK    9  A    between atoms: C_10  and  C_12
REMARK   10  A    between atoms: C_15  and  C_16
REMARK   11  A    between atoms: C_19  and  N_20
REMARK   12  A    between atoms: N_21  and  C_22
REMARK   13  A    between atoms: C_22  and  C_23
REMARK                            x       y       z     vdW  Elec       q    Type
REMARK                         _______ _______ _______ _____ _____    ______ ____
ROOT
ATOM      1  C   UNL     1       2.525   6.254  19.338  0.00  0.00    +0.000 A 
ATOM      2  C   UNL     1       2.356   7.516  18.866  0.00  0.00    +0.000 A 
ATOM      3  N   UNL     1       1.705   8.464  19.667  0.00  0.00    +0.000 N 
ATOM      4  C   UNL     1       1.106   8.137  20.881  0.00  0.00    +0.000 A 
ATOM      5  O   UNL     1       0.504   8.933  21.600  0.00  0.00    +0.000 OA
ATOM      6  N   UNL     1       1.245   6.850  21.298  0.00  0.00    +0.000 N 
ATOM      7  C   UNL     1       2.027   5.913  20.703  0.00  0.00    +0.000 A 
ATOM      8  O   UNL     1       2.328   4.872  21.281  0.00  0.00    +0.000 OA
ATOM      9  H   UNL     1       0.891   6.638  22.219  0.00  0.00    +0.000 HD
ENDROOT
BRANCH   1  10
ATOM     10  N   UNL     1       3.181   5.226  18.622  0.00  0.00    +0.000 N 
ATOM     11  C   UNL     1       4.524   5.041  18.943  0.00  0.00    +0.000 C 
ATOM     12  O   UNL     1       5.091   5.773  19.770  0.00  0.00    +0.000 OA
BRANCH  10  13
ATOM     13  C   UNL     1       2.248   4.411  17.792  0.00  0.00    +0.000 C 
BRANCH  13  14
ATOM     14  C   UNL     1       1.063   3.639  18.379  0.00  0.00    +0.000 C 
BRANCH  14  16
ATOM     15  C   UNL     1       2.584   1.912  17.877  0.00  0.00    +0.000 C 
ATOM     16  O   UNL     1       1.296   2.233  18.396  0.00  0.00    +0.000 OA
ENDBRANCH  14  16
ENDBRANCH  13  14
ENDBRANCH  10  13
BRANCH  11  17
ATOM     17  C   UNL     1       5.378   3.935  18.309  0.00  0.00    +0.000 C 
BRANCH  17  18
ATOM     18  O   UNL     1       6.211   4.332  17.215  0.00  0.00    +0.000 OA
BRANCH  18  19
ATOM     19  C   UNL     1       7.418   4.846  17.587  0.00  0.00    +0.000 C 
ATOM     20  O   UNL     1       8.390   4.156  17.884  0.00  0.00    +0.000 OA
BRANCH  19  21
ATOM     21  C   UNL     1       7.386   6.291  17.547  0.00  0.00    +0.000 A 
ATOM     22  C   UNL     1       6.593   7.208  16.880  0.00  0.00    +0.000 A 
ATOM     23  C   UNL     1       7.046   8.498  17.258  0.00  0.00    +0.000 A 
ATOM     24  C   UNL     1       8.080   8.298  18.144  0.00  0.00    +0.000 A 
ATOM     25  C   UNL     1       8.935   9.200  18.940  0.00  0.00    +0.000 C 
ATOM     26  O   UNL     1       8.309   6.967  18.301  0.00  0.00    +0.000 OA
ENDBRANCH  19  21
ENDBRANCH  18  19
ENDBRANCH  17  18
ENDBRANCH  11  17
ENDBRANCH   1  10
BRANCH   2  27
ATOM     27  N   UNL     1       2.818   7.869  17.606  0.00  0.00    +0.000 N 
ATOM     28  H   UNL     1       2.634   7.171  16.886  0.00  0.00    +0.000 HD
ATOM     29  H   UNL     1       3.771   8.206  17.592  0.00  0.00    +0.000 HD
ENDBRANCH   2  27
BRANCH   3  30
ATOM     30  C   UNL     1       1.533   9.854  19.220  0.00  0.00    +0.000 C 
BRANCH  30  31
ATOM     31  C   UNL     1       0.125  10.223  18.772  0.00  0.00    +0.000 A 
ATOM     32  C   UNL     1      -0.506  11.345  19.334  0.00  0.00    +0.000 A 
ATOM     33  C   UNL     1      -1.740  11.796  18.851  0.00  0.00    +0.000 A 
ATOM     34  C   UNL     1      -2.360  11.135  17.795  0.00  0.00    +0.000 A 
ATOM     35  C   UNL     1      -1.753  10.017  17.229  0.00  0.00    +0.000 A 
ATOM     36  C   UNL     1      -0.519   9.567  17.710  0.00  0.00    +0.000 A 
ENDBRANCH  30  31
ENDBRANCH   3  30
TORSDOF 11
ENDMDL
MODEL 8
REMARK VINA RESULT:      -7.0      2.027      3.179
REMARK  Name = 
REMARK  13 active torsions:
REMARK  status: ('A' for Active; 'I' for Inactive)
REMARK    1  A    between atoms: C_1  and  O_2
REMARK    2  A    between atoms: O_2  and  C_3
REMARK    3  A    between atoms: C_3  and  C_4
REMARK    4  A    between atoms: C_4  and  N_5
REMARK    5  A    between atoms: N_5  and  C_18
REMARK    6  A    between atoms: C_6  and  C_8
REMARK    7  A    between atoms: C_8  and  O_9
REMARK    8  A    between atoms: O_9  and  C_10
REMARK    9  A    between atoms: C_10  and  C_12
REMARK   10  A    between atoms: C_15  and  C_16
REMARK   11  A    between atoms: C_19  and  N_20
REMARK   12  A    between atoms: N_21  and  C_22
REMARK   13  A    between atoms: C_22  and  C_23
REMARK                            x       y       z     vdW  Elec       q    Type
REMARK                         _______ _______ _______ _____ _____    ______ ____
ROOT
ATOM      1  C   UNL     1       2.415   6.353  19.242  0.00  0.00    +0.000 A 
ATOM      2  C   UNL     1       2.195   7.646  18.890  0.00  0.00    +0.000 A 
ATOM      3  N   UNL     1       1.586   8.510  19.810  0.00  0.00    +0.000 N 
ATOM      4  C   UNL     1       1.076   8.072  21.029  0.00  0.00    +0.000 A 
ATOM      5  O   UNL     1       0.513   8.792  21.851  0.00  0.00    +0.000 OA
ATOM      6  N   UNL     1       1.264   6.757  21.327  0.00  0.00    +0.000 N 
ATOM      7  C   UNL     1       2.018   5.890  20.604  0.00  0.00    +0.000 A 
ATOM      8  O   UNL     1       2.373   4.811  21.071  0.00  0.00    +0.000 OA
ATOM      9  H   UNL     1       0.977   6.463  22.248  0.00  0.00    +0.000 HD
ENDROOT
BRANCH   1  10
ATOM     10  N   UNL     1       3.037   5.401  18.400  0.00  0.00    +0.000 N 
ATOM     11  C   UNL     1       4.417   5.289  18.546  0.00  0.00    +0.000 C 
ATOM     12  O   UNL     1       5.038   6.018  19.336  0.00  0.00    +0.000 OA
BRANCH  10  13
ATOM     13  C   UNL     1       2.057   4.567  17.647  0.00  0.00    +0.000 C 
BRANCH  13  14
ATOM     14  C   UNL     1       2.346   3.127  17.209  0.00  0.00    +0.000 C 
BRANCH  14  16
ATOM     15  C   UNL     1       0.789   2.549  18.880  0.00  0.00    +0.000 C 
ATOM     16  O   UNL     1       1.996   2.182  18.216  0.00  0.00    +0.000 OA
ENDBRANCH  14  16
ENDBRANCH  13  14
ENDBRANCH  10  13
BRANCH  11  17
ATOM     17  C   UNL     1       5.250   4.269  17.758  0.00  0.00    +0.000 C 
BRANCH  17  18
ATOM     18  O   UNL     1       6.619   4.616  17.531  0.00  0.00    +0.000 OA
BRANCH  18  19
ATOM     19  C   UNL     1       6.796   5.736  16.774  0.00  0.00    +0.000 C 
ATOM     20  O   UNL     1       6.408   5.841  15.613  0.00  0.00    +0.000 OA
BRANCH  19  21
ATOM     21  C   UNL     1       7.465   6.764  17.539  0.00  0.00    +0.000 A 
ATOM     22  C   UNL     1       8.207   6.751  18.708  0.00  0.00    +0.000 A 
ATOM     23  C   UNL     1       8.613   8.087  18.955  0.00  0.00    +0.000 A 
ATOM     24  C   UNL     1       8.108   8.840  17.918  0.00  0.00    +0.000 A 
ATOM     25  C   UNL     1       8.206  10.265  17.545  0.00  0.00    +0.000 C 
ATOM     26  O   UNL     1       7.389   8.051  17.075  0.00  0.00    +0.000 OA
ENDBRANCH  19  21
ENDBRANCH  18  19
ENDBRANCH  17  18
ENDBRANCH  11  17
ENDBRANCH   1  10
BRANCH   2  27
ATOM     27  N   UNL     1       2.563   8.112  17.636  0.00  0.00    +0.000 N 
ATOM     28  H   UNL     1       3.572   8.141  17.483  0.00  0.00    +0.000 HD
ATOM     29  H   UNL     1       2.100   8.965  17.357  0.00  0.00    +0.000 HD
ENDBRANCH   2  27
BRANCH   3  30
ATOM     30  C   UNL     1       1.362   9.928  19.493  0.00  0.00    +0.000 C 
BRANCH  30  31
ATOM     31  C   UNL     1      -0.037  10.271  19.000  0.00  0.00    +0.000 A 
ATOM     32  C   UNL     1      -0.774  11.273  19.655  0.00  0.00    +0.000 A 
ATOM     33  C   UNL     1      -2.003  11.712  19.149  0.00  0.00    +0.000 A 
ATOM     34  C   UNL     1      -2.514  11.159  17.978  0.00  0.00    +0.000 A 
ATOM     35  C   UNL     1      -1.801  10.161  17.319  0.00  0.00    +0.000 A 
ATOM     36  C   UNL     1      -0.571   9.724  17.822  0.00  0.00    +0.000 A 
ENDBRANCH  30  31
ENDBRANCH   3  30
TORSDOF 11
ENDMDL
MODEL 9
REMARK VINA RESULT:      -6.9      0.984      1.621
REMARK  Name = 
REMARK  13 active torsions:
REMARK  status: ('A' for Active; 'I' for Inactive)
REMARK    1  A    between atoms: C_1  and  O_2
REMARK    2  A    between atoms: O_2  and  C_3
REMARK    3  A    between atoms: C_3  and  C_4
REMARK    4  A    between atoms: C_4  and  N_5
REMARK    5  A    between atoms: N_5  and  C_18
REMARK    6  A    between atoms: C_6  and  C_8
REMARK    7  A    between atoms: C_8  and  O_9
REMARK    8  A    between atoms: O_9  and  C_10
REMARK    9  A    between atoms: C_10  and  C_12
REMARK   10  A    between atoms: C_15  and  C_16
REMARK   11  A    between atoms: C_19  and  N_20
REMARK   12  A    between atoms: N_21  and  C_22
REMARK   13  A    between atoms: C_22  and  C_23
REMARK                            x       y       z     vdW  Elec       q    Type
REMARK                         _______ _______ _______ _____ _____    ______ ____
ROOT
ATOM      1  C   UNL     1       2.333   6.469  19.259  0.00  0.00    +0.000 A 
ATOM      2  C   UNL     1       2.168   7.744  18.818  0.00  0.00    +0.000 A 
ATOM      3  N   UNL     1       1.629   8.702  19.687  0.00  0.00    +0.000 N 
ATOM      4  C   UNL     1       1.131   8.379  20.946  0.00  0.00    +0.000 A 
ATOM      5  O   UNL     1       0.628   9.185  21.727  0.00  0.00    +0.000 OA
ATOM      6  N   UNL     1       1.261   7.081  21.335  0.00  0.00    +0.000 N 
ATOM      7  C   UNL     1       1.950   6.126  20.659  0.00  0.00    +0.000 A 
ATOM      8  O   UNL     1       2.264   5.067  21.196  0.00  0.00    +0.000 OA
ATOM      9  H   UNL     1       0.984   6.869  22.281  0.00  0.00    +0.000 HD
ENDROOT
BRANCH   1  10
ATOM     10  N   UNL     1       2.883   5.429  18.474  0.00  0.00    +0.000 N 
ATOM     11  C   UNL     1       4.251   5.224  18.631  0.00  0.00    +0.000 C 
ATOM     12  O   UNL     1       4.925   5.950  19.381  0.00  0.00    +0.000 OA
BRANCH  10  13
ATOM     13  C   UNL     1       1.844   4.627  17.766  0.00  0.00    +0.000 C 
BRANCH  13  14
ATOM     14  C   UNL     1       1.624   3.132  18.020  0.00  0.00    +0.000 C 
BRANCH  14  16
ATOM     15  C   UNL     1       1.463   2.176  20.167  0.00  0.00    +0.000 C 
ATOM     16  O   UNL     1       0.782   2.900  19.145  0.00  0.00    +0.000 OA
ENDBRANCH  14  16
ENDBRANCH  13  14
ENDBRANCH  10  13
BRANCH  11  17
ATOM     17  C   UNL     1       5.007   4.103  17.905  0.00  0.00    +0.000 C 
BRANCH  17  18
ATOM     18  O   UNL     1       4.822   4.036  16.488  0.00  0.00    +0.000 OA
BRANCH  18  19
ATOM     19  C   UNL     1       5.204   5.161  15.818  0.00  0.00    +0.000 C 
ATOM     20  O   UNL     1       4.960   6.300  16.206  0.00  0.00    +0.000 OA
BRANCH  19  21
ATOM     21  C   UNL     1       5.949   4.813  14.629  0.00  0.00    +0.000 A 
ATOM     22  C   UNL     1       5.820   3.812  13.682  0.00  0.00    +0.000 A 
ATOM     23  C   UNL     1       6.859   4.001  12.736  0.00  0.00    +0.000 A 
ATOM     24  C   UNL     1       7.558   5.113  13.149  0.00  0.00    +0.000 A 
ATOM     25  C   UNL     1       8.698   5.869  12.596  0.00  0.00    +0.000 C 
ATOM     26  O   UNL     1       7.030   5.592  14.307  0.00  0.00    +0.000 OA
ENDBRANCH  19  21
ENDBRANCH  18  19
ENDBRANCH  17  18
ENDBRANCH  11  17
ENDBRANCH   1  10
BRANCH   2  27
ATOM     27  N   UNL     1       2.526   8.098  17.525  0.00  0.00    +0.000 N 
ATOM     28  H   UNL     1       3.350   8.696  17.472  0.00  0.00    +0.000 HD
ATOM     29  H   UNL     1       1.758   8.436  16.960  0.00  0.00    +0.000 HD
ENDBRANCH   2  27
BRANCH   3  30
ATOM     30  C   UNL     1       1.468  10.103  19.273  0.00  0.00    +0.000 C 
BRANCH  30  31
ATOM     31  C   UNL     1       0.067  10.490  18.818  0.00  0.00    +0.000 A 
ATOM     32  C   UNL     1      -0.533   9.788  17.759  0.00  0.00    +0.000 A 
ATOM     33  C   UNL     1      -1.867  10.020  17.404  0.00  0.00    +0.000 A 
ATOM     34  C   UNL     1      -2.624  10.954  18.105  0.00  0.00    +0.000 A 
ATOM     35  C   UNL     1      -2.045  11.663  19.153  0.00  0.00    +0.000 A 
ATOM     36  C   UNL     1      -0.713  11.430  19.511  0.00  0.00    +0.000 A 
ENDBRANCH  30  31
ENDBRANCH   3  30
TORSDOF 11
ENDMDL
