MODEL 1
REMARK VINA RESULT:      -8.2      0.000      0.000
REMARK  Name = 
REMARK  4 active torsions:
REMARK  status: ('A' for Active; 'I' for Inactive)
REMARK    1  A    between atoms: C_1  and  C_2
REMARK    2  A    between atoms: C_2  and  C_3
REMARK    3  A    between atoms: C_6  and  C_7
REMARK    4  A    between atoms: C_8  and  O_9
REMARK                            x       y       z     vdW  Elec       q    Type
REMARK                         _______ _______ _______ _____ _____    ______ ____
ROOT
ATOM      1  C   UNL     1       3.196   5.407  18.783  0.00  0.00    +0.000 A 
ATOM      2  C   UNL     1       3.040   4.402  19.726  0.00  0.00    +0.000 A 
ATOM      3  C   UNL     1       2.309   4.634  20.898  0.00  0.00    +0.000 A 
ATOM      4  C   UNL     1       1.691   5.882  21.133  0.00  0.00    +0.000 A 
ATOM      5  C   UNL     1       1.799   6.920  20.200  0.00  0.00    +0.000 A 
ATOM      6  C   UNL     1       1.166   8.252  20.301  0.00  0.00    +0.000 A 
ATOM      7  C   UNL     1       1.356   9.151  19.321  0.00  0.00    +0.000 A 
ATOM      8  C   UNL     1       2.203   8.871  18.148  0.00  0.00    +0.000 A 
ATOM      9  O   UNL     1       2.382   9.691  17.255  0.00  0.00    +0.000 OA
ATOM     10  O   UNL     1       2.781   7.630  18.082  0.00  0.00    +0.000 OA
ATOM     11  C   UNL     1       2.573   6.643  19.064  0.00  0.00    +0.000 A 
ATOM     12  C   UNL     1       0.775  10.522  19.280  0.00  0.00    +0.000 C 
ATOM     13  N   UNL     1      -0.287  10.840  20.213  0.00  0.00    +0.000 NA
ATOM     14  C   UNL     1      -0.415  10.006  21.398  0.00  0.00    +0.000 C 
ATOM     15  C   UNL     1       0.312   8.634  21.488  0.00  0.00    +0.000 C 
ATOM     16  H   UNL     1      -1.173  10.939  19.724  0.00  0.00    +0.000 HD
ENDROOT
BRANCH   1  22
ATOM     17  C   UNL     1       7.401   4.467  16.807  0.00  0.00    +0.000 C 
ATOM     18  C   UNL     1       6.257   4.905  15.875  0.00  0.00    +0.000 C 
ATOM     19  C   UNL     1       6.773   4.960  14.431  0.00  0.00    +0.000 C 
ATOM     20  C   UNL     1       5.744   6.290  16.305  0.00  0.00    +0.000 C 
ATOM     21  O   UNL     1       5.085   6.217  17.568  0.00  0.00    +0.000 OA
ATOM     22  C   UNL     1       4.004   5.290  17.511  0.00  0.00    +0.000 C 
ATOM     23  O   UNL     1       4.508   3.967  17.306  0.00  0.00    +0.000 OA
ATOM     24  C   UNL     1       5.097   3.902  15.998  0.00  0.00    +0.000 C 
ENDBRANCH   1  22
BRANCH   2  25
ATOM     25  O   UNL     1       3.572   3.153  19.561  0.00  0.00    +0.000 OA
ATOM     26  H   UNL     1       2.848   2.506  19.693  0.00  0.00    +0.000 HD
ENDBRANCH   2  25
TORSDOF 2
ENDMDL
MODEL 2
REMARK VINA RESULT:      -7.2      3.357      7.731
REMARK  Name = 
REMARK  4 active torsions:
REMARK  status: ('A' for Active; 'I' for Inactive)
REMARK    1  A    between atoms: C_1  and  C_2
REMARK    2  A    between atoms: C_2  and  C_3
REMARK    3  A    between atoms: C_6  and  C_7
REMARK    4  A    between atoms: C_8  and  O_9
REMARK                            x       y       z     vdW  Elec       q    Type
REMARK                         _______ _______ _______ _____ _____    ______ ____
ROOT
ATOM      1  C   UNL     1       0.431  10.819  20.999  0.00  0.00    +0.000 A 
ATOM      2  C   UNL     1      -0.048  10.637  22.287  0.00  0.00    +0.000 A 
ATOM      3  C   UNL     1      -0.002   9.375  22.892  0.00  0.00    +0.000 A 
ATOM      4  C   UNL     1       0.559   8.267  22.218  0.00  0.00    +0.000 A 
ATOM      5  C   UNL     1       1.079   8.405  20.926  0.00  0.00    +0.000 A 
ATOM      6  C   UNL     1       1.732   7.344  20.131  0.00  0.00    +0.000 A 
ATOM      7  C   UNL     1       2.187   7.625  18.899  0.00  0.00    +0.000 A 
ATOM      8  C   UNL     1       2.037   8.958  18.288  0.00  0.00    +0.000 A 
ATOM      9  O   UNL     1       2.448   9.216  17.162  0.00  0.00    +0.000 OA
ATOM     10  O   UNL     1       1.424   9.921  19.045  0.00  0.00    +0.000 OA
ATOM     11  C   UNL     1       0.971   9.682  20.357  0.00  0.00    +0.000 A 
ATOM     12  C   UNL     1       2.875   6.665  17.991  0.00  0.00    +0.000 C 
ATOM     13  N   UNL     1       3.335   5.410  18.549  0.00  0.00    +0.000 NA
ATOM     14  C   UNL     1       2.730   4.963  19.793  0.00  0.00    +0.000 C 
ATOM     15  C   UNL     1       1.894   5.940  20.667  0.00  0.00    +0.000 C 
ATOM     16  H   UNL     1       4.351   5.393  18.597  0.00  0.00    +0.000 HD
ENDROOT
BRANCH   1  22
ATOM     17  C   UNL     1      -1.104  15.300  20.828  0.00  0.00    +0.000 C 
ATOM     18  C   UNL     1      -0.327  14.766  19.611  0.00  0.00    +0.000 C 
ATOM     19  C   UNL     1      -0.236  15.866  18.546  0.00  0.00    +0.000 C 
ATOM     20  C   UNL     1      -1.051  13.535  19.039  0.00  0.00    +0.000 C 
ATOM     21  O   UNL     1      -0.974  12.436  19.945  0.00  0.00    +0.000 OA
ATOM     22  C   UNL     1       0.385  12.118  20.227  0.00  0.00    +0.000 C 
ATOM     23  O   UNL     1       0.999  13.196  20.939  0.00  0.00    +0.000 OA
ATOM     24  C   UNL     1       1.078  14.333  20.064  0.00  0.00    +0.000 C 
ENDBRANCH   1  22
BRANCH   2  25
ATOM     25  O   UNL     1      -0.572  11.663  23.025  0.00  0.00    +0.000 OA
ATOM     26  H   UNL     1      -1.180  11.268  23.685  0.00  0.00    +0.000 HD
ENDBRANCH   2  25
TORSDOF 2
ENDMDL
MODEL 3
REMARK VINA RESULT:      -7.2      3.061      7.254
REMARK  Name = 
REMARK  4 active torsions:
REMARK  status: ('A' for Active; 'I' for Inactive)
REMARK    1  A    between atoms: C_1  and  C_2
REMARK    2  A    between atoms: C_2  and  C_3
REMARK    3  A    between atoms: C_6  and  C_7
REMARK    4  A    between atoms: C_8  and  O_9
REMARK                            x       y       z     vdW  Elec       q    Type
REMARK                         _______ _______ _______ _____ _____    ______ ____
ROOT
ATOM      1  C   UNL     1       2.015   7.825  19.141  0.00  0.00    +0.000 A 
ATOM      2  C   UNL     1       2.647   8.561  18.152  0.00  0.00    +0.000 A 
ATOM      3  C   UNL     1       3.514   7.937  17.246  0.00  0.00    +0.000 A 
ATOM      4  C   UNL     1       3.741   6.544  17.299  0.00  0.00    +0.000 A 
ATOM      5  C   UNL     1       3.107   5.754  18.265  0.00  0.00    +0.000 A 
ATOM      6  C   UNL     1       3.220   4.287  18.402  0.00  0.00    +0.000 A 
ATOM      7  C   UNL     1       2.547   3.659  19.381  0.00  0.00    +0.000 A 
ATOM      8  C   UNL     1       1.711   4.385  20.353  0.00  0.00    +0.000 A 
ATOM      9  O   UNL     1       1.099   3.816  21.250  0.00  0.00    +0.000 OA
ATOM     10  O   UNL     1       1.627   5.745  20.205  0.00  0.00    +0.000 OA
ATOM     11  C   UNL     1       2.280   6.437  19.168  0.00  0.00    +0.000 A 
ATOM     12  C   UNL     1       2.555   2.191  19.632  0.00  0.00    +0.000 C 
ATOM     13  N   UNL     1       3.103   1.327  18.606  0.00  0.00    +0.000 NA
ATOM     14  C   UNL     1       3.998   1.925  17.628  0.00  0.00    +0.000 C 
ATOM     15  C   UNL     1       4.086   3.469  17.470  0.00  0.00    +0.000 C 
ATOM     16  H   UNL     1       2.363   0.789  18.160  0.00  0.00    +0.000 HD
ENDROOT
BRANCH   1  22
ATOM     17  C   UNL     1       0.649  11.651  21.584  0.00  0.00    +0.000 C 
ATOM     18  C   UNL     1      -0.001  10.303  21.948  0.00  0.00    +0.000 C 
ATOM     19  C   UNL     1      -0.991  10.514  23.100  0.00  0.00    +0.000 C 
ATOM     20  C   UNL     1       1.089   9.301  22.363  0.00  0.00    +0.000 C 
ATOM     21  O   UNL     1       1.903   8.946  21.247  0.00  0.00    +0.000 OA
ATOM     22  C   UNL     1       1.103   8.395  20.205  0.00  0.00    +0.000 C 
ATOM     23  O   UNL     1       0.223   9.397  19.686  0.00  0.00    +0.000 OA
ATOM     24  C   UNL     1      -0.723   9.745  20.709  0.00  0.00    +0.000 C 
ENDBRANCH   1  22
BRANCH   2  25
ATOM     25  O   UNL     1       2.454   9.907  18.003  0.00  0.00    +0.000 OA
ATOM     26  H   UNL     1       1.538  10.105  18.290  0.00  0.00    +0.000 HD
ENDBRANCH   2  25
TORSDOF 2
ENDMDL
MODEL 4
REMARK VINA RESULT:      -7.2      0.998      1.523
REMARK  Name = 
REMARK  4 active torsions:
REMARK  status: ('A' for Active; 'I' for Inactive)
REMARK    1  A    between atoms: C_1  and  C_2
REMARK    2  A    between atoms: C_2  and  C_3
REMARK    3  A    between atoms: C_6  and  C_7
REMARK    4  A    between atoms: C_8  and  O_9
REMARK                            x       y       z     vdW  Elec       q    Type
REMARK                         _______ _______ _______ _____ _____    ______ ____
ROOT
ATOM      1  C   UNL     1       3.722   4.296  19.064  0.00  0.00    +0.000 A 
ATOM      2  C   UNL     1       3.479   3.313  20.011  0.00  0.00    +0.000 A 
ATOM      3  C   UNL     1       2.642   3.572  21.104  0.00  0.00    +0.000 A 
ATOM      4  C   UNL     1       2.005   4.823  21.252  0.00  0.00    +0.000 A 
ATOM      5  C   UNL     1       2.200   5.840  20.308  0.00  0.00    +0.000 A 
ATOM      6  C   UNL     1       1.562   7.172  20.319  0.00  0.00    +0.000 A 
ATOM      7  C   UNL     1       1.843   8.049  19.340  0.00  0.00    +0.000 A 
ATOM      8  C   UNL     1       2.795   7.742  18.258  0.00  0.00    +0.000 A 
ATOM      9  O   UNL     1       3.057   8.542  17.366  0.00  0.00    +0.000 OA
ATOM     10  O   UNL     1       3.376   6.502  18.275  0.00  0.00    +0.000 OA
ATOM     11  C   UNL     1       3.076   5.537  19.257  0.00  0.00    +0.000 A 
ATOM     12  C   UNL     1       1.268   9.417  19.213  0.00  0.00    +0.000 C 
ATOM     13  N   UNL     1       0.125   9.755  20.036  0.00  0.00    +0.000 NA
ATOM     14  C   UNL     1      -0.114   8.949  21.222  0.00  0.00    +0.000 C 
ATOM     15  C   UNL     1       0.601   7.581  21.412  0.00  0.00    +0.000 C 
ATOM     16  H   UNL     1      -0.712   9.841  19.464  0.00  0.00    +0.000 HD
ENDROOT
BRANCH   1  22
ATOM     17  C   UNL     1       5.487   6.260  15.127  0.00  0.00    +0.000 C 
ATOM     18  C   UNL     1       5.916   4.819  15.459  0.00  0.00    +0.000 C 
ATOM     19  C   UNL     1       6.860   4.307  14.364  0.00  0.00    +0.000 C 
ATOM     20  C   UNL     1       4.671   3.919  15.546  0.00  0.00    +0.000 C 
ATOM     21  O   UNL     1       3.877   4.261  16.681  0.00  0.00    +0.000 OA
ATOM     22  C   UNL     1       4.646   4.151  17.875  0.00  0.00    +0.000 C 
ATOM     23  O   UNL     1       5.689   5.131  17.875  0.00  0.00    +0.000 OA
ATOM     24  C   UNL     1       6.617   4.807  16.828  0.00  0.00    +0.000 C 
ENDBRANCH   1  22
BRANCH   2  25
ATOM     25  O   UNL     1       4.023   2.062  19.926  0.00  0.00    +0.000 OA
ATOM     26  H   UNL     1       4.971   2.137  20.165  0.00  0.00    +0.000 HD
ENDBRANCH   2  25
TORSDOF 2
ENDMDL
MODEL 5
REMARK VINA RESULT:      -7.2      1.048      1.345
REMARK  Name = 
REMARK  4 active torsions:
REMARK  status: ('A' for Active; 'I' for Inactive)
REMARK    1  A    between atoms: C_1  and  C_2
REMARK    2  A    between atoms: C_2  and  C_3
REMARK    3  A    between atoms: C_6  and  C_7
REMARK    4  A    between atoms: C_8  and  O_9
REMARK                            x       y       z     vdW  Elec       q    Type
REMARK                         _______ _______ _______ _____ _____    ______ ____
ROOT
ATOM      1  C   UNL     1       4.200   5.237  18.584  0.00  0.00    +0.000 A 
ATOM      2  C   UNL     1       4.162   4.111  19.392  0.00  0.00    +0.000 A 
ATOM      3  C   UNL     1       3.314   4.063  20.504  0.00  0.00    +0.000 A 
ATOM      4  C   UNL     1       2.457   5.143  20.813  0.00  0.00    +0.000 A 
ATOM      5  C   UNL     1       2.442   6.293  20.013  0.00  0.00    +0.000 A 
ATOM      6  C   UNL     1       1.567   7.469  20.196  0.00  0.00    +0.000 A 
ATOM      7  C   UNL     1       1.661   8.504  19.344  0.00  0.00    +0.000 A 
ATOM      8  C   UNL     1       2.633   8.525  18.236  0.00  0.00    +0.000 A 
ATOM      9  O   UNL     1       2.725   9.470  17.460  0.00  0.00    +0.000 OA
ATOM     10  O   UNL     1       3.435   7.424  18.093  0.00  0.00    +0.000 OA
ATOM     11  C   UNL     1       3.339   6.300  18.936  0.00  0.00    +0.000 A 
ATOM     12  C   UNL     1       0.840   9.745  19.396  0.00  0.00    +0.000 C 
ATOM     13  N   UNL     1      -0.331   9.752  20.250  0.00  0.00    +0.000 NA
ATOM     14  C   UNL     1      -0.393   8.767  21.318  0.00  0.00    +0.000 C 
ATOM     15  C   UNL     1       0.568   7.545  21.328  0.00  0.00    +0.000 C 
ATOM     16  H   UNL     1      -1.180   9.755  19.689  0.00  0.00    +0.000 HD
ENDROOT
BRANCH   1  22
ATOM     17  C   UNL     1       5.954   3.401  14.581  0.00  0.00    +0.000 C 
ATOM     18  C   UNL     1       6.480   4.779  15.024  0.00  0.00    +0.000 C 
ATOM     19  C   UNL     1       7.530   5.267  14.018  0.00  0.00    +0.000 C 
ATOM     20  C   UNL     1       7.104   4.665  16.425  0.00  0.00    +0.000 C 
ATOM     21  O   UNL     1       6.102   4.401  17.406  0.00  0.00    +0.000 OA
ATOM     22  C   UNL     1       5.112   5.425  17.392  0.00  0.00    +0.000 C 
ATOM     23  O   UNL     1       4.398   5.395  16.152  0.00  0.00    +0.000 OA
ATOM     24  C   UNL     1       5.302   5.765  15.099  0.00  0.00    +0.000 C 
ENDBRANCH   1  22
BRANCH   2  25
ATOM     25  O   UNL     1       4.928   3.006  19.144  0.00  0.00    +0.000 OA
ATOM     26  H   UNL     1       4.395   2.219  19.384  0.00  0.00    +0.000 HD
ENDBRANCH   2  25
TORSDOF 2
ENDMDL
MODEL 6
REMARK VINA RESULT:      -6.9      2.724      4.573
REMARK  Name = 
REMARK  4 active torsions:
REMARK  status: ('A' for Active; 'I' for Inactive)
REMARK    1  A    between atoms: C_1  and  C_2
REMARK    2  A    between atoms: C_2  and  C_3
REMARK    3  A    between atoms: C_6  and  C_7
REMARK    4  A    between atoms: C_8  and  O_9
REMARK                            x       y       z     vdW  Elec       q    Type
REMARK                         _______ _______ _______ _____ _____    ______ ____
ROOT
ATOM      1  C   UNL     1       2.164   7.302  19.342  0.00  0.00    +0.000 A 
ATOM      2  C   UNL     1       2.772   7.499  18.111  0.00  0.00    +0.000 A 
ATOM      3  C   UNL     1       2.661   8.729  17.452  0.00  0.00    +0.000 A 
ATOM      4  C   UNL     1       1.955   9.805  18.036  0.00  0.00    +0.000 A 
ATOM      5  C   UNL     1       1.344   9.663  19.288  0.00  0.00    +0.000 A 
ATOM      6  C   UNL     1       0.619  10.716  20.027  0.00  0.00    +0.000 A 
ATOM      7  C   UNL     1       0.084  10.435  21.227  0.00  0.00    +0.000 A 
ATOM      8  C   UNL     1       0.170   9.093  21.832  0.00  0.00    +0.000 A 
ATOM      9  O   UNL     1      -0.321   8.832  22.925  0.00  0.00    +0.000 OA
ATOM     10  O   UNL     1       0.844   8.135  21.123  0.00  0.00    +0.000 OA
ATOM     11  C   UNL     1       1.457   8.399  19.883  0.00  0.00    +0.000 A 
ATOM     12  C   UNL     1      -0.660  11.394  22.090  0.00  0.00    +0.000 C 
ATOM     13  N   UNL     1      -0.589  12.803  21.760  0.00  0.00    +0.000 NA
ATOM     14  C   UNL     1      -0.198  13.160  20.406  0.00  0.00    +0.000 C 
ATOM     15  C   UNL     1       0.453  12.109  19.463  0.00  0.00    +0.000 C 
ATOM     16  H   UNL     1      -0.040  13.304  22.455  0.00  0.00    +0.000 HD
ENDROOT
BRANCH   1  22
ATOM     17  C   UNL     1       2.399   2.570  19.196  0.00  0.00    +0.000 C 
ATOM     18  C   UNL     1       2.194   3.231  20.571  0.00  0.00    +0.000 C 
ATOM     19  C   UNL     1       2.088   2.142  21.646  0.00  0.00    +0.000 C 
ATOM     20  C   UNL     1       0.910   4.078  20.548  0.00  0.00    +0.000 C 
ATOM     21  O   UNL     1       1.066   5.211  19.695  0.00  0.00    +0.000 OA
ATOM     22  C   UNL     1       2.169   6.005  20.119  0.00  0.00    +0.000 C 
ATOM     23  O   UNL     1       3.388   5.275  19.950  0.00  0.00    +0.000 OA
ATOM     24  C   UNL     1       3.383   4.164  20.860  0.00  0.00    +0.000 C 
ENDBRANCH   1  22
BRANCH   2  25
ATOM     25  O   UNL     1       3.506   6.525  17.493  0.00  0.00    +0.000 OA
ATOM     26  H   UNL     1       4.334   6.940  17.173  0.00  0.00    +0.000 HD
ENDBRANCH   2  25
TORSDOF 2
ENDMDL
MODEL 7
REMARK VINA RESULT:      -6.7      8.951     11.240
REMARK  Name = 
REMARK  4 active torsions:
REMARK  status: ('A' for Active; 'I' for Inactive)
REMARK    1  A    between atoms: C_1  and  C_2
REMARK    2  A    between atoms: C_2  and  C_3
REMARK    3  A    between atoms: C_6  and  C_7
REMARK    4  A    between atoms: C_8  and  O_9
REMARK                            x       y       z     vdW  Elec       q    Type
REMARK                         _______ _______ _______ _____ _____    ______ ____
ROOT
ATOM      1  C   UNL     1       8.318  13.044  21.885  0.00  0.00    +0.000 A 
ATOM      2  C   UNL     1       8.587  11.710  22.152  0.00  0.00    +0.000 A 
ATOM      3  C   UNL     1       9.306  10.933  21.235  0.00  0.00    +0.000 A 
ATOM      4  C   UNL     1       9.797  11.493  20.035  0.00  0.00    +0.000 A 
ATOM      5  C   UNL     1       9.571  12.842  19.732  0.00  0.00    +0.000 A 
ATOM      6  C   UNL     1      10.066  13.561  18.540  0.00  0.00    +0.000 A 
ATOM      7  C   UNL     1       9.772  14.862  18.382  0.00  0.00    +0.000 A 
ATOM      8  C   UNL     1       8.943  15.605  19.348  0.00  0.00    +0.000 A 
ATOM      9  O   UNL     1       8.669  16.792  19.205  0.00  0.00    +0.000 OA
ATOM     10  O   UNL     1       8.494  14.912  20.442  0.00  0.00    +0.000 OA
ATOM     11  C   UNL     1       8.815  13.560  20.668  0.00  0.00    +0.000 A 
ATOM     12  C   UNL     1      10.210  15.717  17.244  0.00  0.00    +0.000 C 
ATOM     13  N   UNL     1      11.246  15.207  16.368  0.00  0.00    +0.000 NA
ATOM     14  C   UNL     1      11.475  13.770  16.359  0.00  0.00    +0.000 C 
ATOM     15  C   UNL     1      10.893  12.866  17.482  0.00  0.00    +0.000 C 
ATOM     16  H   UNL     1      12.111  15.725  16.501  0.00  0.00    +0.000 HD
ENDROOT
BRANCH   1  22
ATOM     17  C   UNL     1       5.659  13.499  25.783  0.00  0.00    +0.000 C 
ATOM     18  C   UNL     1       5.837  14.742  24.893  0.00  0.00    +0.000 C 
ATOM     19  C   UNL     1       5.052  15.914  25.496  0.00  0.00    +0.000 C 
ATOM     20  C   UNL     1       5.326  14.438  23.474  0.00  0.00    +0.000 C 
ATOM     21  O   UNL     1       6.168  13.485  22.826  0.00  0.00    +0.000 OA
ATOM     22  C   UNL     1       7.508  13.964  22.771  0.00  0.00    +0.000 C 
ATOM     23  O   UNL     1       8.046  14.057  24.094  0.00  0.00    +0.000 OA
ATOM     24  C   UNL     1       7.335  15.084  24.803  0.00  0.00    +0.000 C 
ENDBRANCH   1  22
BRANCH   2  25
ATOM     25  O   UNL     1       8.183  11.098  23.306  0.00  0.00    +0.000 OA
ATOM     26  H   UNL     1       7.516  11.678  23.728  0.00  0.00    +0.000 HD
ENDBRANCH   2  25
TORSDOF 2
ENDMDL
MODEL 8
REMARK VINA RESULT:      -6.7      7.131     10.386
REMARK  Name = 
REMARK  4 active torsions:
REMARK  status: ('A' for Active; 'I' for Inactive)
REMARK    1  A    between atoms: C_1  and  C_2
REMARK    2  A    between atoms: C_2  and  C_3
REMARK    3  A    between atoms: C_6  and  C_7
REMARK    4  A    between atoms: C_8  and  O_9
REMARK                            x       y       z     vdW  Elec       q    Type
REMARK                         _______ _______ _______ _____ _____    ______ ____
ROOT
ATOM      1  C   UNL     1      -1.540  12.695  21.000  0.00  0.00    +0.000 A 
ATOM      2  C   UNL     1      -0.220  12.296  21.148  0.00  0.00    +0.000 A 
ATOM      3  C   UNL     1       0.360  11.407  20.235  0.00  0.00    +0.000 A 
ATOM      4  C   UNL     1      -0.372  10.920  19.129  0.00  0.00    +0.000 A 
ATOM      5  C   UNL     1      -1.700  11.313  18.923  0.00  0.00    +0.000 A 
ATOM      6  C   UNL     1      -2.559  10.917  17.788  0.00  0.00    +0.000 A 
ATOM      7  C   UNL     1      -3.820  11.376  17.720  0.00  0.00    +0.000 A 
ATOM      8  C   UNL     1      -4.397  12.250  18.758  0.00  0.00    +0.000 A 
ATOM      9  O   UNL     1      -5.548  12.667  18.701  0.00  0.00    +0.000 OA
ATOM     10  O   UNL     1      -3.579  12.597  19.801  0.00  0.00    +0.000 OA
ATOM     11  C   UNL     1      -2.239  12.174  19.889  0.00  0.00    +0.000 A 
ATOM     12  C   UNL     1      -4.794  11.074  16.634  0.00  0.00    +0.000 C 
ATOM     13  N   UNL     1      -4.292  10.462  15.421  0.00  0.00    +0.000 NA
ATOM     14  C   UNL     1      -3.010   9.780  15.489  0.00  0.00    +0.000 C 
ATOM     15  C   UNL     1      -2.058   9.995  16.700  0.00  0.00    +0.000 C 
ATOM     16  H   UNL     1      -4.326  11.124  14.648  0.00  0.00    +0.000 HD
ENDROOT
BRANCH   1  22
ATOM     17  C   UNL     1      -1.452  15.182  25.035  0.00  0.00    +0.000 C 
ATOM     18  C   UNL     1      -2.772  15.153  24.244  0.00  0.00    +0.000 C 
ATOM     19  C   UNL     1      -3.831  15.970  24.996  0.00  0.00    +0.000 C 
ATOM     20  C   UNL     1      -3.244  13.697  24.084  0.00  0.00    +0.000 C 
ATOM     21  O   UNL     1      -2.367  12.973  23.223  0.00  0.00    +0.000 OA
ATOM     22  C   UNL     1      -2.287  13.605  21.949  0.00  0.00    +0.000 C 
ATOM     23  O   UNL     1      -1.663  14.885  22.080  0.00  0.00    +0.000 OA
ATOM     24  C   UNL     1      -2.530  15.739  22.842  0.00  0.00    +0.000 C 
ENDBRANCH   1  22
BRANCH   2  25
ATOM     25  O   UNL     1       0.572  12.748  22.167  0.00  0.00    +0.000 OA
ATOM     26  H   UNL     1       1.167  12.013  22.424  0.00  0.00    +0.000 HD
ENDBRANCH   2  25
TORSDOF 2
ENDMDL
MODEL 9
REMARK VINA RESULT:      -6.7      9.420     11.744
REMARK  Name = 
REMARK  4 active torsions:
REMARK  status: ('A' for Active; 'I' for Inactive)
REMARK    1  A    between atoms: C_1  and  C_2
REMARK    2  A    between atoms: C_2  and  C_3
REMARK    3  A    between atoms: C_6  and  C_7
REMARK    4  A    between atoms: C_8  and  O_9
REMARK                            x       y       z     vdW  Elec       q    Type
REMARK                         _______ _______ _______ _____ _____    ______ ____
ROOT
ATOM      1  C   UNL     1       8.950  14.092  22.792  0.00  0.00    +0.000 A 
ATOM      2  C   UNL     1       9.265  15.401  23.123  0.00  0.00    +0.000 A 
ATOM      3  C   UNL     1      10.184  16.127  22.357  0.00  0.00    +0.000 A 
ATOM      4  C   UNL     1      10.789  15.557  21.215  0.00  0.00    +0.000 A 
ATOM      5  C   UNL     1      10.486  14.247  20.825  0.00  0.00    +0.000 A 
ATOM      6  C   UNL     1      11.010  13.549  19.632  0.00  0.00    +0.000 A 
ATOM      7  C   UNL     1      10.626  12.287  19.382  0.00  0.00    +0.000 A 
ATOM      8  C   UNL     1       9.713  11.549  20.274  0.00  0.00    +0.000 A 
ATOM      9  O   UNL     1       9.364  10.395  20.050  0.00  0.00    +0.000 OA
ATOM     10  O   UNL     1       9.246  12.218  21.374  0.00  0.00    +0.000 OA
ATOM     11  C   UNL     1       9.588  13.556  21.651  0.00  0.00    +0.000 A 
ATOM     12  C   UNL     1      11.058  11.465  18.217  0.00  0.00    +0.000 C 
ATOM     13  N   UNL     1      11.728  12.137  17.122  0.00  0.00    +0.000 NA
ATOM     14  C   UNL     1      12.333  13.431  17.392  0.00  0.00    +0.000 C 
ATOM     15  C   UNL     1      11.979  14.220  18.685  0.00  0.00    +0.000 C 
ATOM     16  H   UNL     1      11.127  12.166  16.301  0.00  0.00    +0.000 HD
ENDROOT
BRANCH   1  22
ATOM     17  C   UNL     1       6.005  13.653  26.480  0.00  0.00    +0.000 C 
ATOM     18  C   UNL     1       6.265  12.401  25.622  0.00  0.00    +0.000 C 
ATOM     19  C   UNL     1       5.479  11.218  26.201  0.00  0.00    +0.000 C 
ATOM     20  C   UNL     1       7.770  12.083  25.618  0.00  0.00    +0.000 C 
ATOM     21  O   UNL     1       8.498  13.085  24.909  0.00  0.00    +0.000 OA
ATOM     22  C   UNL     1       8.017  13.195  23.573  0.00  0.00    +0.000 C 
ATOM     23  O   UNL     1       6.672  13.683  23.578  0.00  0.00    +0.000 OA
ATOM     24  C   UNL     1       5.828  12.685  24.174  0.00  0.00    +0.000 C 
ENDBRANCH   1  22
BRANCH   2  25
ATOM     25  O   UNL     1       8.697  16.043  24.189  0.00  0.00    +0.000 OA
ATOM     26  H   UNL     1       9.365  16.665  24.547  0.00  0.00    +0.000 HD
ENDBRANCH   2  25
TORSDOF 2
ENDMDL
