MODEL 1
REMARK VINA RESULT:      -7.9      0.000      0.000
REMARK  Name = 
REMARK  12 active torsions:
REMARK  status: ('A' for Active; 'I' for Inactive)
REMARK    1  A    between atoms: C_1  and  O_2
REMARK    2  A    between atoms: O_2  and  C_3
REMARK    3  A    between atoms: C_6  and  S_7
REMARK    4  A    between atoms: S_7  and  N_10
REMARK    5  A    between atoms: N_10  and  C_11
REMARK    6  A    between atoms: N_10  and  C_25
REMARK    7  A    between atoms: C_11  and  C_12
REMARK    8  A    between atoms: C_17  and  C_18
REMARK    9  A    between atoms: C_20  and  C_21
REMARK   10  A    between atoms: C_20  and  C_22
REMARK   11  A    between atoms: C_32  and  O_33
REMARK   12  A    between atoms: O_33  and  C_34
REMARK                            x       y       z     vdW  Elec       q    Type
REMARK                         _______ _______ _______ _____ _____    ______ ____
ROOT
ATOM      1  N   UNL     1       3.805   4.921  19.568  0.00  0.00    +0.000 N 
ENDROOT
BRANCH   1   2
ATOM      2  C   UNL     1       2.566   4.205  19.521  0.00  0.00    +0.000 A 
ATOM      3  C   UNL     1       1.998   3.809  20.725  0.00  0.00    +0.000 A 
ATOM      4  C   UNL     1       0.819   3.070  20.720  0.00  0.00    +0.000 A 
ATOM      5  C   UNL     1       0.213   2.720  19.512  0.00  0.00    +0.000 A 
ATOM      6  C   UNL     1       0.775   3.136  18.305  0.00  0.00    +0.000 A 
ATOM      7  C   UNL     1       1.951   3.888  18.311  0.00  0.00    +0.000 A 
ENDBRANCH   1   2
BRANCH   1   8
ATOM      8  S   UNL     1       5.235   4.016  19.377  0.00  0.00    +0.000 S 
ATOM      9  O   UNL     1       4.912   2.600  19.315  0.00  0.00    +0.000 OA
ATOM     10  O   UNL     1       6.160   4.517  20.371  0.00  0.00    +0.000 OA
BRANCH   8  14
ATOM     11  C   UNL     1       6.942   4.995  15.229  0.00  0.00    +0.000 A 
ATOM     12  C   UNL     1       6.001   3.959  15.419  0.00  0.00    +0.000 A 
ATOM     13  C   UNL     1       5.460   3.695  16.683  0.00  0.00    +0.000 A 
ATOM     14  C   UNL     1       5.859   4.453  17.766  0.00  0.00    +0.000 A 
ATOM     15  C   UNL     1       6.725   5.544  17.587  0.00  0.00    +0.000 A 
ATOM     16  C   UNL     1       7.286   5.805  16.318  0.00  0.00    +0.000 A 
BRANCH  11  18
ATOM     17  C   UNL     1       6.879   4.356  12.922  0.00  0.00    +0.000 C 
ATOM     18  O   UNL     1       7.135   5.340  13.917  0.00  0.00    +0.000 OA
ENDBRANCH  11  18
BRANCH  16  19
ATOM     19  O   UNL     1       7.916   7.019  16.244  0.00  0.00    +0.000 OA
ATOM     20  C   UNL     1       7.758   7.908  17.343  0.00  0.00    +0.000 C 
ENDBRANCH  16  19
ENDBRANCH   8  14
ENDBRANCH   1   8
BRANCH   1  21
ATOM     21  C   UNL     1       3.787   6.360  19.781  0.00  0.00    +0.000 C 
BRANCH  21  22
ATOM     22  C   UNL     1       2.616   7.297  19.557  0.00  0.00    +0.000 A 
ATOM     23  C   UNL     1       1.656   7.788  20.500  0.00  0.00    +0.000 A 
ATOM     24  C   UNL     1       0.814   8.879  20.143  0.00  0.00    +0.000 A 
ATOM     25  C   UNL     1       0.932   9.328  18.838  0.00  0.00    +0.000 A 
ATOM     26  C   UNL     1       1.569   8.670  17.840  0.00  0.00    +0.000 A 
ATOM     27  C   UNL     1       2.528   7.768  18.202  0.00  0.00    +0.000 A 
ATOM     28  C   UNL     1       3.544   7.544  17.117  0.00  0.00    +0.000 C 
ATOM     29  O   UNL     1       0.819  10.640  18.508  0.00  0.00    +0.000 OA
ATOM     30  C   UNL     1      -0.302  11.329  19.027  0.00  0.00    +0.000 C 
ATOM     31  C   UNL     1       0.253  12.768  19.049  0.00  0.00    +0.000 C 
ATOM     32  C   UNL     1      -1.354  11.139  17.922  0.00  0.00    +0.000 C 
ATOM     33  C   UNL     1      -0.711  10.769  20.388  0.00  0.00    +0.000 C 
ATOM     34  C   UNL     1      -0.177   9.646  20.929  0.00  0.00    +0.000 C 
ENDBRANCH  21  22
ENDBRANCH   1  21
TORSDOF 7
ENDMDL
MODEL 2
REMARK VINA RESULT:      -7.7      1.378      1.822
REMARK  Name = 
REMARK  12 active torsions:
REMARK  status: ('A' for Active; 'I' for Inactive)
REMARK    1  A    between atoms: C_1  and  O_2
REMARK    2  A    between atoms: O_2  and  C_3
REMARK    3  A    between atoms: C_6  and  S_7
REMARK    4  A    between atoms: S_7  and  N_10
REMARK    5  A    between atoms: N_10  and  C_11
REMARK    6  A    between atoms: N_10  and  C_25
REMARK    7  A    between atoms: C_11  and  C_12
REMARK    8  A    between atoms: C_17  and  C_18
REMARK    9  A    between atoms: C_20  and  C_21
REMARK   10  A    between atoms: C_20  and  C_22
REMARK   11  A    between atoms: C_32  and  O_33
REMARK   12  A    between atoms: O_33  and  C_34
REMARK                            x       y       z     vdW  Elec       q    Type
REMARK                         _______ _______ _______ _____ _____    ______ ____
ROOT
ATOM      1  N   UNL     1       3.229   4.209  18.630  0.00  0.00    +0.000 N 
ENDROOT
BRANCH   1   2
ATOM      2  C   UNL     1       2.589   3.576  19.743  0.00  0.00    +0.000 A 
ATOM      3  C   UNL     1       1.202   3.499  19.738  0.00  0.00    +0.000 A 
ATOM      4  C   UNL     1       0.541   2.934  20.823  0.00  0.00    +0.000 A 
ATOM      5  C   UNL     1       1.263   2.454  21.916  0.00  0.00    +0.000 A 
ATOM      6  C   UNL     1       2.657   2.514  21.910  0.00  0.00    +0.000 A 
ATOM      7  C   UNL     1       3.322   3.070  20.816  0.00  0.00    +0.000 A 
ENDBRANCH   1   2
BRANCH   1   8
ATOM      8  S   UNL     1       3.479   3.265  17.235  0.00  0.00    +0.000 S 
ATOM      9  O   UNL     1       2.360   3.438  16.323  0.00  0.00    +0.000 OA
ATOM     10  O   UNL     1       3.849   1.948  17.705  0.00  0.00    +0.000 OA
BRANCH   8  14
ATOM     11  C   UNL     1       7.181   4.955  15.108  0.00  0.00    +0.000 A 
ATOM     12  C   UNL     1       6.100   4.398  14.388  0.00  0.00    +0.000 A 
ATOM     13  C   UNL     1       4.961   3.921  15.046  0.00  0.00    +0.000 A 
ATOM     14  C   UNL     1       4.894   3.985  16.424  0.00  0.00    +0.000 A 
ATOM     15  C   UNL     1       5.916   4.612  17.155  0.00  0.00    +0.000 A 
ATOM     16  C   UNL     1       7.074   5.081  16.498  0.00  0.00    +0.000 A 
BRANCH  11  18
ATOM     17  C   UNL     1       8.053   5.429  12.928  0.00  0.00    +0.000 C 
ATOM     18  O   UNL     1       8.065   5.658  14.332  0.00  0.00    +0.000 OA
ENDBRANCH  11  18
BRANCH  16  19
ATOM     19  O   UNL     1       7.866   5.868  17.292  0.00  0.00    +0.000 OA
ATOM     20  C   UNL     1       7.423   7.194  17.550  0.00  0.00    +0.000 C 
ENDBRANCH  16  19
ENDBRANCH   8  14
ENDBRANCH   1   8
BRANCH   1  21
ATOM     21  C   UNL     1       3.636   5.601  18.742  0.00  0.00    +0.000 C 
BRANCH  21  22
ATOM     22  C   UNL     1       2.727   6.805  18.888  0.00  0.00    +0.000 A 
ATOM     23  C   UNL     1       1.883   7.176  19.985  0.00  0.00    +0.000 A 
ATOM     24  C   UNL     1       1.333   8.488  20.037  0.00  0.00    +0.000 A 
ATOM     25  C   UNL     1       1.590   9.292  18.939  0.00  0.00    +0.000 A 
ATOM     26  C   UNL     1       2.082   8.861  17.753  0.00  0.00    +0.000 A 
ATOM     27  C   UNL     1       2.791   7.694  17.760  0.00  0.00    +0.000 A 
ATOM     28  C   UNL     1       3.756   7.601  16.611  0.00  0.00    +0.000 C 
ATOM     29  O   UNL     1       1.799  10.629  19.051  0.00  0.00    +0.000 OA
ATOM     30  C   UNL     1       0.858  11.354  19.817  0.00  0.00    +0.000 C 
ATOM     31  C   UNL     1       1.737  12.540  20.269  0.00  0.00    +0.000 C 
ATOM     32  C   UNL     1      -0.178  11.780  18.763  0.00  0.00    +0.000 C 
ATOM     33  C   UNL     1       0.290  10.498  20.947  0.00  0.00    +0.000 C 
ATOM     34  C   UNL     1       0.529   9.170  21.074  0.00  0.00    +0.000 C 
ENDBRANCH  21  22
ENDBRANCH   1  21
TORSDOF 7
ENDMDL
MODEL 3
REMARK VINA RESULT:      -7.5      0.880      1.123
REMARK  Name = 
REMARK  12 active torsions:
REMARK  status: ('A' for Active; 'I' for Inactive)
REMARK    1  A    between atoms: C_1  and  O_2
REMARK    2  A    between atoms: O_2  and  C_3
REMARK    3  A    between atoms: C_6  and  S_7
REMARK    4  A    between atoms: S_7  and  N_10
REMARK    5  A    between atoms: N_10  and  C_11
REMARK    6  A    between atoms: N_10  and  C_25
REMARK    7  A    between atoms: C_11  and  C_12
REMARK    8  A    between atoms: C_17  and  C_18
REMARK    9  A    between atoms: C_20  and  C_21
REMARK   10  A    between atoms: C_20  and  C_22
REMARK   11  A    between atoms: C_32  and  O_33
REMARK   12  A    between atoms: O_33  and  C_34
REMARK                            x       y       z     vdW  Elec       q    Type
REMARK                         _______ _______ _______ _____ _____    ______ ____
ROOT
ATOM      1  N   UNL     1       4.000   5.121  19.396  0.00  0.00    +0.000 N 
ENDROOT
BRANCH   1   2
ATOM      2  C   UNL     1       2.798   4.357  19.546  0.00  0.00    +0.000 A 
ATOM      3  C   UNL     1       2.393   4.031  20.834  0.00  0.00    +0.000 A 
ATOM      4  C   UNL     1       1.257   3.250  21.021  0.00  0.00    +0.000 A 
ATOM      5  C   UNL     1       0.533   2.787  19.921  0.00  0.00    +0.000 A 
ATOM      6  C   UNL     1       0.930   3.133  18.630  0.00  0.00    +0.000 A 
ATOM      7  C   UNL     1       2.063   3.927  18.443  0.00  0.00    +0.000 A 
ENDBRANCH   1   2
BRANCH   1   8
ATOM      8  S   UNL     1       5.435   4.261  19.080  0.00  0.00    +0.000 S 
ATOM      9  O   UNL     1       5.259   2.866  19.447  0.00  0.00    +0.000 OA
ATOM     10  O   UNL     1       6.505   5.045  19.658  0.00  0.00    +0.000 OA
BRANCH   8  14
ATOM     11  C   UNL     1       5.952   4.155  14.519  0.00  0.00    +0.000 A 
ATOM     12  C   UNL     1       4.821   3.594  15.151  0.00  0.00    +0.000 A 
ATOM     13  C   UNL     1       4.656   3.667  16.539  0.00  0.00    +0.000 A 
ATOM     14  C   UNL     1       5.622   4.287  17.307  0.00  0.00    +0.000 A 
ATOM     15  C   UNL     1       6.711   4.928  16.695  0.00  0.00    +0.000 A 
ATOM     16  C   UNL     1       6.890   4.845  15.297  0.00  0.00    +0.000 A 
BRANCH  11  18
ATOM     17  C   UNL     1       5.458   3.142  12.405  0.00  0.00    +0.000 C 
ATOM     18  O   UNL     1       5.823   4.290  13.161  0.00  0.00    +0.000 OA
ENDBRANCH  11  18
BRANCH  16  19
ATOM     19  O   UNL     1       7.848   5.700  14.822  0.00  0.00    +0.000 OA
ATOM     20  C   UNL     1       8.291   5.510  13.484  0.00  0.00    +0.000 C 
ENDBRANCH  16  19
ENDBRANCH   8  14
ENDBRANCH   1   8
BRANCH   1  21
ATOM     21  C   UNL     1       3.942   6.569  19.524  0.00  0.00    +0.000 C 
BRANCH  21  22
ATOM     22  C   UNL     1       2.715   7.447  19.377  0.00  0.00    +0.000 A 
ATOM     23  C   UNL     1       1.794   7.892  20.381  0.00  0.00    +0.000 A 
ATOM     24  C   UNL     1       0.878   8.939  20.080  0.00  0.00    +0.000 A 
ATOM     25  C   UNL     1       0.888   9.390  18.770  0.00  0.00    +0.000 A 
ATOM     26  C   UNL     1       1.491   8.761  17.733  0.00  0.00    +0.000 A 
ATOM     27  C   UNL     1       2.516   7.909  18.031  0.00  0.00    +0.000 A 
ATOM     28  C   UNL     1       3.469   7.733  16.882  0.00  0.00    +0.000 C 
ATOM     29  O   UNL     1       0.689  10.694  18.449  0.00  0.00    +0.000 OA
ATOM     30  C   UNL     1      -0.428  11.327  19.040  0.00  0.00    +0.000 C 
ATOM     31  C   UNL     1       0.055  12.792  19.026  0.00  0.00    +0.000 C 
ATOM     32  C   UNL     1      -1.540  11.083  18.006  0.00  0.00    +0.000 C 
ATOM     33  C   UNL     1      -0.720  10.752  20.425  0.00  0.00    +0.000 C 
ATOM     34  C   UNL     1      -0.097   9.658  20.929  0.00  0.00    +0.000 C 
ENDBRANCH  21  22
ENDBRANCH   1  21
TORSDOF 7
ENDMDL
MODEL 4
REMARK VINA RESULT:      -7.3      1.338      1.620
REMARK  Name = 
REMARK  12 active torsions:
REMARK  status: ('A' for Active; 'I' for Inactive)
REMARK    1  A    between atoms: C_1  and  O_2
REMARK    2  A    between atoms: O_2  and  C_3
REMARK    3  A    between atoms: C_6  and  S_7
REMARK    4  A    between atoms: S_7  and  N_10
REMARK    5  A    between atoms: N_10  and  C_11
REMARK    6  A    between atoms: N_10  and  C_25
REMARK    7  A    between atoms: C_11  and  C_12
REMARK    8  A    between atoms: C_17  and  C_18
REMARK    9  A    between atoms: C_20  and  C_21
REMARK   10  A    between atoms: C_20  and  C_22
REMARK   11  A    between atoms: C_32  and  O_33
REMARK   12  A    between atoms: O_33  and  C_34
REMARK                            x       y       z     vdW  Elec       q    Type
REMARK                         _______ _______ _______ _____ _____    ______ ____
ROOT
ATOM      1  N   UNL     1       3.802   5.390  19.159  0.00  0.00    +0.000 N 
ENDROOT
BRANCH   1   2
ATOM      2  C   UNL     1       2.709   4.563  19.574  0.00  0.00    +0.000 A 
ATOM      3  C   UNL     1       2.586   4.279  20.928  0.00  0.00    +0.000 A 
ATOM      4  C   UNL     1       1.567   3.440  21.365  0.00  0.00    +0.000 A 
ATOM      5  C   UNL     1       0.676   2.878  20.449  0.00  0.00    +0.000 A 
ATOM      6  C   UNL     1       0.789   3.181  19.092  0.00  0.00    +0.000 A 
ATOM      7  C   UNL     1       1.804   4.033  18.655  0.00  0.00    +0.000 A 
ENDBRANCH   1   2
BRANCH   1   8
ATOM      8  S   UNL     1       5.321   4.642  18.980  0.00  0.00    +0.000 S 
ATOM      9  O   UNL     1       5.256   3.279  19.480  0.00  0.00    +0.000 OA
ATOM     10  O   UNL     1       6.290   5.576  19.512  0.00  0.00    +0.000 OA
BRANCH   8  14
ATOM     11  C   UNL     1       6.021   4.136  14.471  0.00  0.00    +0.000 A 
ATOM     12  C   UNL     1       4.856   3.645  15.101  0.00  0.00    +0.000 A 
ATOM     13  C   UNL     1       4.637   3.839  16.470  0.00  0.00    +0.000 A 
ATOM     14  C   UNL     1       5.579   4.513  17.221  0.00  0.00    +0.000 A 
ATOM     15  C   UNL     1       6.702   5.086  16.602  0.00  0.00    +0.000 A 
ATOM     16  C   UNL     1       6.936   4.881  15.225  0.00  0.00    +0.000 A 
BRANCH  11  18
ATOM     17  C   UNL     1       5.816   2.914  12.421  0.00  0.00    +0.000 C 
ATOM     18  O   UNL     1       5.948   4.155  13.102  0.00  0.00    +0.000 OA
ENDBRANCH  11  18
BRANCH  16  19
ATOM     19  O   UNL     1       7.925   5.681  14.718  0.00  0.00    +0.000 OA
ATOM     20  C   UNL     1       8.157   5.628  13.316  0.00  0.00    +0.000 C 
ENDBRANCH  16  19
ENDBRANCH   8  14
ENDBRANCH   1   8
BRANCH   1  21
ATOM     21  C   UNL     1       3.570   6.807  18.921  0.00  0.00    +0.000 C 
BRANCH  21  22
ATOM     22  C   UNL     1       2.400   7.633  19.419  0.00  0.00    +0.000 A 
ATOM     23  C   UNL     1       1.752   7.608  20.696  0.00  0.00    +0.000 A 
ATOM     24  C   UNL     1       0.863   8.661  21.054  0.00  0.00    +0.000 A 
ATOM     25  C   UNL     1       0.616   9.602  20.068  0.00  0.00    +0.000 A 
ATOM     26  C   UNL     1       0.935   9.462  18.758  0.00  0.00    +0.000 A 
ATOM     27  C   UNL     1       1.942   8.592  18.452  0.00  0.00    +0.000 A 
ATOM     28  C   UNL     1       2.608   8.922  17.144  0.00  0.00    +0.000 C 
ATOM     29  O   UNL     1       0.437  10.918  20.347  0.00  0.00    +0.000 OA
ATOM     30  C   UNL     1      -0.480  11.227  21.377  0.00  0.00    +0.000 C 
ATOM     31  C   UNL     1       0.083  12.586  21.840  0.00  0.00    +0.000 C 
ATOM     32  C   UNL     1      -1.804  11.387  20.613  0.00  0.00    +0.000 C 
ATOM     33  C   UNL     1      -0.499  10.134  22.445  0.00  0.00    +0.000 C 
ATOM     34  C   UNL     1       0.146   8.948  22.316  0.00  0.00    +0.000 C 
ENDBRANCH  21  22
ENDBRANCH   1  21
TORSDOF 7
ENDMDL
MODEL 5
REMARK VINA RESULT:      -7.0      4.144      9.733
REMARK  Name = 
REMARK  12 active torsions:
REMARK  status: ('A' for Active; 'I' for Inactive)
REMARK    1  A    between atoms: C_1  and  O_2
REMARK    2  A    between atoms: O_2  and  C_3
REMARK    3  A    between atoms: C_6  and  S_7
REMARK    4  A    between atoms: S_7  and  N_10
REMARK    5  A    between atoms: N_10  and  C_11
REMARK    6  A    between atoms: N_10  and  C_25
REMARK    7  A    between atoms: C_11  and  C_12
REMARK    8  A    between atoms: C_17  and  C_18
REMARK    9  A    between atoms: C_20  and  C_21
REMARK   10  A    between atoms: C_20  and  C_22
REMARK   11  A    between atoms: C_32  and  O_33
REMARK   12  A    between atoms: O_33  and  C_34
REMARK                            x       y       z     vdW  Elec       q    Type
REMARK                         _______ _______ _______ _____ _____    ______ ____
ROOT
ATOM      1  N   UNL     1       0.266  12.849  20.612  0.00  0.00    +0.000 N 
ENDROOT
BRANCH   1   2
ATOM      2  C   UNL     1       1.371  13.552  20.034  0.00  0.00    +0.000 A 
ATOM      3  C   UNL     1       2.161  14.325  20.875  0.00  0.00    +0.000 A 
ATOM      4  C   UNL     1       3.215  15.061  20.344  0.00  0.00    +0.000 A 
ATOM      5  C   UNL     1       3.474  15.032  18.973  0.00  0.00    +0.000 A 
ATOM      6  C   UNL     1       2.692  14.238  18.133  0.00  0.00    +0.000 A 
ATOM      7  C   UNL     1       1.642  13.490  18.668  0.00  0.00    +0.000 A 
ENDBRANCH   1   2
BRANCH   1   8
ATOM      8  S   UNL     1      -1.272  13.568  20.477  0.00  0.00    +0.000 S 
ATOM      9  O   UNL     1      -1.140  14.899  19.908  0.00  0.00    +0.000 OA
ATOM     10  O   UNL     1      -1.917  13.376  21.758  0.00  0.00    +0.000 OA
BRANCH   8  14
ATOM     11  C   UNL     1      -3.497  11.196  17.236  0.00  0.00    +0.000 A 
ATOM     12  C   UNL     1      -2.100  11.397  17.182  0.00  0.00    +0.000 A 
ATOM     13  C   UNL     1      -1.428  12.089  18.196  0.00  0.00    +0.000 A 
ATOM     14  C   UNL     1      -2.143  12.595  19.263  0.00  0.00    +0.000 A 
ATOM     15  C   UNL     1      -3.517  12.334  19.384  0.00  0.00    +0.000 A 
ATOM     16  C   UNL     1      -4.203  11.649  18.357  0.00  0.00    +0.000 A 
BRANCH  11  18
ATOM     17  C   UNL     1      -3.487  10.284  15.021  0.00  0.00    +0.000 C 
ATOM     18  O   UNL     1      -3.958  10.246  16.363  0.00  0.00    +0.000 OA
ENDBRANCH  11  18
BRANCH  16  19
ATOM     19  O   UNL     1      -5.468  11.266  18.713  0.00  0.00    +0.000 OA
ATOM     20  C   UNL     1      -6.018  11.835  19.895  0.00  0.00    +0.000 C 
ENDBRANCH  16  19
ENDBRANCH   8  14
ENDBRANCH   1   8
BRANCH   1  21
ATOM     21  C   UNL     1       0.503  11.580  21.284  0.00  0.00    +0.000 C 
BRANCH  21  22
ATOM     22  C   UNL     1       0.798  10.246  20.627  0.00  0.00    +0.000 A 
ATOM     23  C   UNL     1       1.263   9.973  19.300  0.00  0.00    +0.000 A 
ATOM     24  C   UNL     1       1.748   8.673  18.979  0.00  0.00    +0.000 A 
ATOM     25  C   UNL     1       1.637   7.724  19.982  0.00  0.00    +0.000 A 
ATOM     26  C   UNL     1       0.896   7.861  21.107  0.00  0.00    +0.000 A 
ATOM     27  C   UNL     1       0.614   9.133  21.517  0.00  0.00    +0.000 A 
ATOM     28  C   UNL     1       0.336   9.212  22.993  0.00  0.00    +0.000 C 
ATOM     29  O   UNL     1       2.572   6.760  20.176  0.00  0.00    +0.000 OA
ATOM     30  C   UNL     1       2.976   6.031  19.033  0.00  0.00    +0.000 C 
ATOM     31  C   UNL     1       4.394   5.609  19.471  0.00  0.00    +0.000 C 
ATOM     32  C   UNL     1       2.001   4.842  19.030  0.00  0.00    +0.000 C 
ATOM     33  C   UNL     1       2.915   6.898  17.776  0.00  0.00    +0.000 C 
ATOM     34  C   UNL     1       2.372   8.140  17.748  0.00  0.00    +0.000 C 
ENDBRANCH  21  22
ENDBRANCH   1  21
TORSDOF 7
ENDMDL
MODEL 6
REMARK VINA RESULT:      -6.9      4.221     10.601
REMARK  Name = 
REMARK  12 active torsions:
REMARK  status: ('A' for Active; 'I' for Inactive)
REMARK    1  A    between atoms: C_1  and  O_2
REMARK    2  A    between atoms: O_2  and  C_3
REMARK    3  A    between atoms: C_6  and  S_7
REMARK    4  A    between atoms: S_7  and  N_10
REMARK    5  A    between atoms: N_10  and  C_11
REMARK    6  A    between atoms: N_10  and  C_25
REMARK    7  A    between atoms: C_11  and  C_12
REMARK    8  A    between atoms: C_17  and  C_18
REMARK    9  A    between atoms: C_20  and  C_21
REMARK   10  A    between atoms: C_20  and  C_22
REMARK   11  A    between atoms: C_32  and  O_33
REMARK   12  A    between atoms: O_33  and  C_34
REMARK                            x       y       z     vdW  Elec       q    Type
REMARK                         _______ _______ _______ _____ _____    ______ ____
ROOT
ATOM      1  N   UNL     1      -0.209  11.769  21.004  0.00  0.00    +0.000 N 
ENDROOT
BRANCH   1   2
ATOM      2  C   UNL     1       0.501  12.809  20.322  0.00  0.00    +0.000 A 
ATOM      3  C   UNL     1       1.880  12.867  20.482  0.00  0.00    +0.000 A 
ATOM      4  C   UNL     1       2.600  13.890  19.875  0.00  0.00    +0.000 A 
ATOM      5  C   UNL     1       1.944  14.859  19.116  0.00  0.00    +0.000 A 
ATOM      6  C   UNL     1       0.562  14.787  18.940  0.00  0.00    +0.000 A 
ATOM      7  C   UNL     1      -0.160  13.754  19.539  0.00  0.00    +0.000 A 
ENDBRANCH   1   2
BRANCH   1   8
ATOM      8  S   UNL     1      -0.735  12.096  22.590  0.00  0.00    +0.000 S 
ATOM      9  O   UNL     1      -0.122  13.326  23.063  0.00  0.00    +0.000 OA
ATOM     10  O   UNL     1      -0.571  10.861  23.327  0.00  0.00    +0.000 OA
BRANCH   8  14
ATOM     11  C   UNL     1      -5.261  12.797  22.281  0.00  0.00    +0.000 A 
ATOM     12  C   UNL     1      -4.609  12.696  23.529  0.00  0.00    +0.000 A 
ATOM     13  C   UNL     1      -3.223  12.520  23.611  0.00  0.00    +0.000 A 
ATOM     14  C   UNL     1      -2.479  12.433  22.450  0.00  0.00    +0.000 A 
ATOM     15  C   UNL     1      -3.091  12.619  21.200  0.00  0.00    +0.000 A 
ATOM     16  C   UNL     1      -4.491  12.781  21.111  0.00  0.00    +0.000 A 
BRANCH  11  18
ATOM     17  C   UNL     1      -7.177  13.295  23.631  0.00  0.00    +0.000 C 
ATOM     18  O   UNL     1      -6.542  13.280  22.358  0.00  0.00    +0.000 OA
ENDBRANCH  11  18
BRANCH  16  19
ATOM     19  O   UNL     1      -4.913  13.181  19.872  0.00  0.00    +0.000 OA
ATOM     20  C   UNL     1      -5.625  12.234  19.084  0.00  0.00    +0.000 C 
ENDBRANCH  16  19
ENDBRANCH   8  14
ENDBRANCH   1   8
BRANCH   1  21
ATOM     21  C   UNL     1      -0.440  10.503  20.325  0.00  0.00    +0.000 C 
BRANCH  21  22
ATOM     22  C   UNL     1       0.567   9.389  20.113  0.00  0.00    +0.000 A 
ATOM     23  C   UNL     1       0.854   8.258  20.945  0.00  0.00    +0.000 A 
ATOM     24  C   UNL     1       1.629   7.183  20.426  0.00  0.00    +0.000 A 
ATOM     25  C   UNL     1       2.137   7.367  19.150  0.00  0.00    +0.000 A 
ATOM     26  C   UNL     1       2.173   8.548  18.488  0.00  0.00    +0.000 A 
ATOM     27  C   UNL     1       1.273   9.503  18.867  0.00  0.00    +0.000 A 
ATOM     28  C   UNL     1       0.979  10.484  17.767  0.00  0.00    +0.000 C 
ATOM     29  O   UNL     1       2.249   6.350  18.259  0.00  0.00    +0.000 OA
ATOM     30  C   UNL     1       2.866   5.166  18.725  0.00  0.00    +0.000 C 
ATOM     31  C   UNL     1       2.215   4.135  17.780  0.00  0.00    +0.000 C 
ATOM     32  C   UNL     1       4.347   5.400  18.382  0.00  0.00    +0.000 C 
ATOM     33  C   UNL     1       2.592   4.950  20.212  0.00  0.00    +0.000 C 
ATOM     34  C   UNL     1       1.991   5.871  21.005  0.00  0.00    +0.000 C 
ENDBRANCH  21  22
ENDBRANCH   1  21
TORSDOF 7
ENDMDL
MODEL 7
REMARK VINA RESULT:      -6.9      3.503      9.313
REMARK  Name = 
REMARK  12 active torsions:
REMARK  status: ('A' for Active; 'I' for Inactive)
REMARK    1  A    between atoms: C_1  and  O_2
REMARK    2  A    between atoms: O_2  and  C_3
REMARK    3  A    between atoms: C_6  and  S_7
REMARK    4  A    between atoms: S_7  and  N_10
REMARK    5  A    between atoms: N_10  and  C_11
REMARK    6  A    between atoms: N_10  and  C_25
REMARK    7  A    between atoms: C_11  and  C_12
REMARK    8  A    between atoms: C_17  and  C_18
REMARK    9  A    between atoms: C_20  and  C_21
REMARK   10  A    between atoms: C_20  and  C_22
REMARK   11  A    between atoms: C_32  and  O_33
REMARK   12  A    between atoms: O_33  and  C_34
REMARK                            x       y       z     vdW  Elec       q    Type
REMARK                         _______ _______ _______ _____ _____    ______ ____
ROOT
ATOM      1  N   UNL     1       0.510   9.659  20.155  0.00  0.00    +0.000 N 
ENDROOT
BRANCH   1   2
ATOM      2  C   UNL     1      -0.436  10.382  19.360  0.00  0.00    +0.000 A 
ATOM      3  C   UNL     1      -1.604   9.730  18.986  0.00  0.00    +0.000 A 
ATOM      4  C   UNL     1      -2.526  10.382  18.173  0.00  0.00    +0.000 A 
ATOM      5  C   UNL     1      -2.277  11.681  17.728  0.00  0.00    +0.000 A 
ATOM      6  C   UNL     1      -1.113  12.341  18.121  0.00  0.00    +0.000 A 
ATOM      7  C   UNL     1      -0.194  11.692  18.946  0.00  0.00    +0.000 A 
ENDBRANCH   1   2
BRANCH   1   8
ATOM      8  S   UNL     1       0.238   9.610  21.835  0.00  0.00    +0.000 S 
ATOM      9  O   UNL     1       1.511   9.530  22.533  0.00  0.00    +0.000 OA
ATOM     10  O   UNL     1      -0.780   8.604  22.045  0.00  0.00    +0.000 OA
BRANCH   8  14
ATOM     11  C   UNL     1      -1.671  13.678  22.775  0.00  0.00    +0.000 A 
ATOM     12  C   UNL     1      -2.290  12.464  23.145  0.00  0.00    +0.000 A 
ATOM     13  C   UNL     1      -1.680  11.231  22.887  0.00  0.00    +0.000 A 
ATOM     14  C   UNL     1      -0.455  11.199  22.249  0.00  0.00    +0.000 A 
ATOM     15  C   UNL     1       0.220  12.393  21.950  0.00  0.00    +0.000 A 
ATOM     16  C   UNL     1      -0.397  13.639  22.195  0.00  0.00    +0.000 A 
BRANCH  11  18
ATOM     17  C   UNL     1      -1.802  15.116  24.687  0.00  0.00    +0.000 C 
ATOM     18  O   UNL     1      -2.218  14.786  23.367  0.00  0.00    +0.000 OA
ENDBRANCH  11  18
BRANCH  16  19
ATOM     19  O   UNL     1       0.459  14.700  22.075  0.00  0.00    +0.000 OA
ATOM     20  C   UNL     1       1.677  14.485  21.373  0.00  0.00    +0.000 C 
ENDBRANCH  16  19
ENDBRANCH   8  14
ENDBRANCH   1   8
BRANCH   1  21
ATOM     21  C   UNL     1       1.643   9.018  19.504  0.00  0.00    +0.000 C 
BRANCH  21  22
ATOM     22  C   UNL     1       2.094   7.581  19.673  0.00  0.00    +0.000 A 
ATOM     23  C   UNL     1       1.724   6.628  20.677  0.00  0.00    +0.000 A 
ATOM     24  C   UNL     1       2.039   5.252  20.489  0.00  0.00    +0.000 A 
ATOM     25  C   UNL     1       2.785   4.953  19.361  0.00  0.00    +0.000 A 
ATOM     26  C   UNL     1       3.436   5.860  18.593  0.00  0.00    +0.000 A 
ATOM     27  C   UNL     1       2.982   7.147  18.629  0.00  0.00    +0.000 A 
ATOM     28  C   UNL     1       3.328   7.914  17.383  0.00  0.00    +0.000 C 
ATOM     29  O   UNL     1       2.601   3.813  18.649  0.00  0.00    +0.000 OA
ATOM     30  C   UNL     1       2.562   2.607  19.385  0.00  0.00    +0.000 C 
ATOM     31  C   UNL     1       1.703   1.742  18.439  0.00  0.00    +0.000 C 
ATOM     32  C   UNL     1       4.034   2.163  19.384  0.00  0.00    +0.000 C 
ATOM     33  C   UNL     1       1.974   2.829  20.777  0.00  0.00    +0.000 C 
ATOM     34  C   UNL     1       1.700   4.054  21.289  0.00  0.00    +0.000 C 
ENDBRANCH  21  22
ENDBRANCH   1  21
TORSDOF 7
ENDMDL
MODEL 8
REMARK VINA RESULT:      -6.9      0.844      1.736
REMARK  Name = 
REMARK  12 active torsions:
REMARK  status: ('A' for Active; 'I' for Inactive)
REMARK    1  A    between atoms: C_1  and  O_2
REMARK    2  A    between atoms: O_2  and  C_3
REMARK    3  A    between atoms: C_6  and  S_7
REMARK    4  A    between atoms: S_7  and  N_10
REMARK    5  A    between atoms: N_10  and  C_11
REMARK    6  A    between atoms: N_10  and  C_25
REMARK    7  A    between atoms: C_11  and  C_12
REMARK    8  A    between atoms: C_17  and  C_18
REMARK    9  A    between atoms: C_20  and  C_21
REMARK   10  A    between atoms: C_20  and  C_22
REMARK   11  A    between atoms: C_32  and  O_33
REMARK   12  A    between atoms: O_33  and  C_34
REMARK                            x       y       z     vdW  Elec       q    Type
REMARK                         _______ _______ _______ _____ _____    ______ ____
ROOT
ATOM      1  N   UNL     1       4.028   5.025  19.301  0.00  0.00    +0.000 N 
ENDROOT
BRANCH   1   2
ATOM      2  C   UNL     1       2.813   4.272  19.373  0.00  0.00    +0.000 A 
ATOM      3  C   UNL     1       2.344   3.914  20.630  0.00  0.00    +0.000 A 
ATOM      4  C   UNL     1       1.192   3.141  20.740  0.00  0.00    +0.000 A 
ATOM      5  C   UNL     1       0.515   2.720  19.594  0.00  0.00    +0.000 A 
ATOM      6  C   UNL     1       0.977   3.099  18.334  0.00  0.00    +0.000 A 
ATOM      7  C   UNL     1       2.125   3.884  18.224  0.00  0.00    +0.000 A 
ENDBRANCH   1   2
BRANCH   1   8
ATOM      8  S   UNL     1       5.464   4.160  19.003  0.00  0.00    +0.000 S 
ATOM      9  O   UNL     1       5.186   2.734  19.016  0.00  0.00    +0.000 OA
ATOM     10  O   UNL     1       6.461   4.724  19.887  0.00  0.00    +0.000 OA
BRANCH   8  14
ATOM     11  C   UNL     1       6.575   5.359  14.712  0.00  0.00    +0.000 A 
ATOM     12  C   UNL     1       7.333   5.789  15.823  0.00  0.00    +0.000 A 
ATOM     13  C   UNL     1       7.007   5.386  17.123  0.00  0.00    +0.000 A 
ATOM     14  C   UNL     1       5.918   4.561  17.326  0.00  0.00    +0.000 A 
ATOM     15  C   UNL     1       5.202   4.050  16.232  0.00  0.00    +0.000 A 
ATOM     16  C   UNL     1       5.517   4.465  14.920  0.00  0.00    +0.000 A 
BRANCH  11  18
ATOM     17  C   UNL     1       8.611   5.559  13.467  0.00  0.00    +0.000 C 
ATOM     18  O   UNL     1       7.189   5.564  13.504  0.00  0.00    +0.000 OA
ENDBRANCH  11  18
BRANCH  16  19
ATOM     19  O   UNL     1       4.901   3.717  13.952  0.00  0.00    +0.000 OA
ATOM     20  C   UNL     1       5.663   3.382  12.799  0.00  0.00    +0.000 C 
ENDBRANCH  16  19
ENDBRANCH   8  14
ENDBRANCH   1   8
BRANCH   1  21
ATOM     21  C   UNL     1       3.983   6.467  19.491  0.00  0.00    +0.000 C 
BRANCH  21  22
ATOM     22  C   UNL     1       2.771   7.366  19.346  0.00  0.00    +0.000 A 
ATOM     23  C   UNL     1       1.838   7.796  20.345  0.00  0.00    +0.000 A 
ATOM     24  C   UNL     1       0.942   8.864  20.057  0.00  0.00    +0.000 A 
ATOM     25  C   UNL     1       0.982   9.350  18.761  0.00  0.00    +0.000 A 
ATOM     26  C   UNL     1       1.595   8.742  17.717  0.00  0.00    +0.000 A 
ATOM     27  C   UNL     1       2.603   7.868  18.010  0.00  0.00    +0.000 A 
ATOM     28  C   UNL     1       3.574   7.709  16.874  0.00  0.00    +0.000 C 
ATOM     29  O   UNL     1       0.807  10.665  18.472  0.00  0.00    +0.000 OA
ATOM     30  C   UNL     1      -0.312  11.298  19.060  0.00  0.00    +0.000 C 
ATOM     31  C   UNL     1       0.191  12.756  19.096  0.00  0.00    +0.000 C 
ATOM     32  C   UNL     1      -1.408  11.098  18.000  0.00  0.00    +0.000 C 
ATOM     33  C   UNL     1      -0.638  10.689  20.423  0.00  0.00    +0.000 C 
ATOM     34  C   UNL     1      -0.038   9.573  20.908  0.00  0.00    +0.000 C 
ENDBRANCH  21  22
ENDBRANCH   1  21
TORSDOF 7
ENDMDL
MODEL 9
REMARK VINA RESULT:      -6.9      3.515      9.558
REMARK  Name = 
REMARK  12 active torsions:
REMARK  status: ('A' for Active; 'I' for Inactive)
REMARK    1  A    between atoms: C_1  and  O_2
REMARK    2  A    between atoms: O_2  and  C_3
REMARK    3  A    between atoms: C_6  and  S_7
REMARK    4  A    between atoms: S_7  and  N_10
REMARK    5  A    between atoms: N_10  and  C_11
REMARK    6  A    between atoms: N_10  and  C_25
REMARK    7  A    between atoms: C_11  and  C_12
REMARK    8  A    between atoms: C_17  and  C_18
REMARK    9  A    between atoms: C_20  and  C_21
REMARK   10  A    between atoms: C_20  and  C_22
REMARK   11  A    between atoms: C_32  and  O_33
REMARK   12  A    between atoms: O_33  and  C_34
REMARK                            x       y       z     vdW  Elec       q    Type
REMARK                         _______ _______ _______ _____ _____    ______ ____
ROOT
ATOM      1  N   UNL     1       0.533   9.732  20.101  0.00  0.00    +0.000 N 
ENDROOT
BRANCH   1   2
ATOM      2  C   UNL     1      -0.404  10.458  19.298  0.00  0.00    +0.000 A 
ATOM      3  C   UNL     1      -1.584   9.820  18.939  0.00  0.00    +0.000 A 
ATOM      4  C   UNL     1      -2.498  10.475  18.120  0.00  0.00    +0.000 A 
ATOM      5  C   UNL     1      -2.230  11.763  17.654  0.00  0.00    +0.000 A 
ATOM      6  C   UNL     1      -1.054  12.409  18.034  0.00  0.00    +0.000 A 
ATOM      7  C   UNL     1      -0.142  11.757  18.865  0.00  0.00    +0.000 A 
ENDBRANCH   1   2
BRANCH   1   8
ATOM      8  S   UNL     1       0.259   9.698  21.781  0.00  0.00    +0.000 S 
ATOM      9  O   UNL     1       1.530   9.739  22.484  0.00  0.00    +0.000 OA
ATOM     10  O   UNL     1      -0.674   8.616  22.011  0.00  0.00    +0.000 OA
BRANCH   8  14
ATOM     11  C   UNL     1      -1.750  13.677  22.883  0.00  0.00    +0.000 A 
ATOM     12  C   UNL     1      -0.482  13.632  22.262  0.00  0.00    +0.000 A 
ATOM     13  C   UNL     1       0.103  12.414  21.897  0.00  0.00    +0.000 A 
ATOM     14  C   UNL     1      -0.565  11.233  22.156  0.00  0.00    +0.000 A 
ATOM     15  C   UNL     1      -1.863  11.256  22.691  0.00  0.00    +0.000 A 
ATOM     16  C   UNL     1      -2.452  12.480  23.076  0.00  0.00    +0.000 A 
BRANCH  11  18
ATOM     17  C   UNL     1      -2.260  15.693  21.695  0.00  0.00    +0.000 C 
ATOM     18  O   UNL     1      -2.325  14.921  22.888  0.00  0.00    +0.000 OA
ENDBRANCH  11  18
BRANCH  16  19
ATOM     19  O   UNL     1      -3.787  12.374  23.358  0.00  0.00    +0.000 OA
ATOM     20  C   UNL     1      -4.704  12.833  22.372  0.00  0.00    +0.000 C 
ENDBRANCH  16  19
ENDBRANCH   8  14
ENDBRANCH   1   8
BRANCH   1  21
ATOM     21  C   UNL     1       1.660   9.073  19.457  0.00  0.00    +0.000 C 
BRANCH  21  22
ATOM     22  C   UNL     1       2.092   7.631  19.632  0.00  0.00    +0.000 A 
ATOM     23  C   UNL     1       1.727   6.694  20.653  0.00  0.00    +0.000 A 
ATOM     24  C   UNL     1       2.016   5.312  20.474  0.00  0.00    +0.000 A 
ATOM     25  C   UNL     1       2.735   4.989  19.335  0.00  0.00    +0.000 A 
ATOM     26  C   UNL     1       3.384   5.877  18.544  0.00  0.00    +0.000 A 
ATOM     27  C   UNL     1       2.951   7.172  18.576  0.00  0.00    +0.000 A 
ATOM     28  C   UNL     1       3.285   7.920  17.315  0.00  0.00    +0.000 C 
ATOM     29  O   UNL     1       2.518   3.845  18.639  0.00  0.00    +0.000 OA
ATOM     30  C   UNL     1       2.474   2.647  19.388  0.00  0.00    +0.000 C 
ATOM     31  C   UNL     1       1.583   1.787  18.469  0.00  0.00    +0.000 C 
ATOM     32  C   UNL     1       3.939   2.180  19.363  0.00  0.00    +0.000 C 
ATOM     33  C   UNL     1       1.917   2.893  20.790  0.00  0.00    +0.000 C 
ATOM     34  C   UNL     1       1.673   4.128  21.293  0.00  0.00    +0.000 C 
ENDBRANCH  21  22
ENDBRANCH   1  21
TORSDOF 7
ENDMDL
