MODEL 1
REMARK VINA RESULT:      -7.2      0.000      0.000
REMARK  Name = 
REMARK  12 active torsions:
REMARK  status: ('A' for Active; 'I' for Inactive)
REMARK    1  A    between atoms: N_5  and  C_6
REMARK    2  A    between atoms: C_8  and  C_9
REMARK    3  A    between atoms: C_9  and  O_10
REMARK    4  A    between atoms: O_10  and  P_11
REMARK    5  A    between atoms: P_11  and  O_13
REMARK    6  A    between atoms: P_11  and  C_14
REMARK    7  A    between atoms: C_14  and  C_15
REMARK    8  A    between atoms: C_15  and  N_16
REMARK    9  A    between atoms: C_18  and  O_19
REMARK   10  A    between atoms: C_20  and  O_21
REMARK   11  A    between atoms: C_23  and  O_24
REMARK   12  A    between atoms: C_25  and  O_26
REMARK                            x       y       z     vdW  Elec       q    Type
REMARK                         _______ _______ _______ _____ _____    ______ ____
ROOT
ATOM      1  C   UNL     1       7.405   5.089  16.950  0.00  0.00    +0.000 C 
ATOM      2  O   UNL     1       6.974   4.341  18.106  0.00  0.00    +0.000 OA
ATOM      3  C   UNL     1       6.668   5.252  19.184  0.00  0.00    +0.000 C 
ATOM      4  C   UNL     1       7.143   6.633  18.741  0.00  0.00    +0.000 C 
ATOM      5  C   UNL     1       7.058   6.562  17.225  0.00  0.00    +0.000 C 
ENDROOT
BRANCH   1  10
ATOM      6  O   UNL     1       4.852   3.555  12.373  0.00  0.00    +0.000 OA
ATOM      7  C   UNL     1       5.455   3.843  13.400  0.00  0.00    +0.000 A 
ATOM      8  C   UNL     1       4.967   3.407  14.713  0.00  0.00    +0.000 A 
ATOM      9  C   UNL     1       5.625   3.795  15.807  0.00  0.00    +0.000 A 
ATOM     10  N   UNL     1       6.767   4.572  15.741  0.00  0.00    +0.000 N 
ATOM     11  C   UNL     1       7.299   4.978  14.521  0.00  0.00    +0.000 A 
ATOM     12  O   UNL     1       8.323   5.647  14.401  0.00  0.00    +0.000 OA
ATOM     13  N   UNL     1       6.605   4.574  13.409  0.00  0.00    +0.000 N 
ATOM     14  H   UNL     1       6.965   4.879  12.520  0.00  0.00    +0.000 HD
ENDBRANCH   1  10
BRANCH   4  15
ATOM     15  O   UNL     1       8.511   6.839  19.145  0.00  0.00    +0.000 OA
ATOM     16  H   UNL     1       8.860   6.008  19.531  0.00  0.00    +0.000 HD
ENDBRANCH   4  15
BRANCH   5  17
ATOM     17  O   UNL     1       7.920   7.501  16.596  0.00  0.00    +0.000 OA
ATOM     18  H   UNL     1       8.758   7.516  17.100  0.00  0.00    +0.000 HD
ENDBRANCH   5  17
BRANCH   3  19
ATOM     19  C   UNL     1       5.169   5.178  19.516  0.00  0.00    +0.000 C 
BRANCH  19  20
ATOM     20  O   UNL     1       4.322   5.625  18.457  0.00  0.00    +0.000 OA
BRANCH  20  21
ATOM     21  P   UNL     1       2.806   6.055  18.811  0.00  0.00    +0.000 P 
ATOM     22  O   UNL     1       2.564   7.528  18.749  0.00  0.00    +0.000 OA
BRANCH  21  23
ATOM     23  O   UNL     1       2.001   5.273  17.662  0.00  0.00    +0.000 OA
ATOM     24  H   UNL     1       1.030   5.343  17.726  0.00  0.00    +0.000 HD
ENDBRANCH  21  23
BRANCH  21  25
ATOM     25  C   UNL     1       2.326   5.231  20.332  0.00  0.00    +0.000 C 
BRANCH  25  26
ATOM     26  C   UNL     1       1.337   4.103  20.063  0.00  0.00    +0.000 C 
BRANCH  26  27
ATOM     27  N   UNL     1       1.870   2.734  20.005  0.00  0.00    +0.000 NA
ATOM     28  C   UNL     1       3.102   2.630  20.820  0.00  0.00    +0.000 C 
ATOM     29  C   UNL     1       4.226   2.220  19.873  0.00  0.00    +0.000 C 
ATOM     30  C   UNL     1       3.476   1.392  18.832  0.00  0.00    +0.000 C 
ATOM     31  C   UNL     1       2.191   2.213  18.664  0.00  0.00    +0.000 C 
BRANCH  29  32
ATOM     32  O   UNL     1       5.265   1.511  20.529  0.00  0.00    +0.000 OA
ATOM     33  H   UNL     1       4.936   1.215  21.395  0.00  0.00    +0.000 HD
ENDBRANCH  29  32
BRANCH  30  34
ATOM     34  O   UNL     1       4.193   1.240  17.614  0.00  0.00    +0.000 OA
ATOM     35  H   UNL     1       3.848   1.878  16.968  0.00  0.00    +0.000 HD
ENDBRANCH  30  34
ENDBRANCH  26  27
ENDBRANCH  25  26
ENDBRANCH  21  25
ENDBRANCH  20  21
ENDBRANCH  19  20
ENDBRANCH   3  19
TORSDOF 12
ENDMDL
MODEL 2
REMARK VINA RESULT:      -7.1      1.039      1.273
REMARK  Name = 
REMARK  12 active torsions:
REMARK  status: ('A' for Active; 'I' for Inactive)
REMARK    1  A    between atoms: N_5  and  C_6
REMARK    2  A    between atoms: C_8  and  C_9
REMARK    3  A    between atoms: C_9  and  O_10
REMARK    4  A    between atoms: O_10  and  P_11
REMARK    5  A    between atoms: P_11  and  O_13
REMARK    6  A    between atoms: P_11  and  C_14
REMARK    7  A    between atoms: C_14  and  C_15
REMARK    8  A    between atoms: C_15  and  N_16
REMARK    9  A    between atoms: C_18  and  O_19
REMARK   10  A    between atoms: C_20  and  O_21
REMARK   11  A    between atoms: C_23  and  O_24
REMARK   12  A    between atoms: C_25  and  O_26
REMARK                            x       y       z     vdW  Elec       q    Type
REMARK                         _______ _______ _______ _____ _____    ______ ____
ROOT
ATOM      1  C   UNL     1       7.408   5.044  16.931  0.00  0.00    +0.000 C 
ATOM      2  O   UNL     1       6.930   4.306  18.075  0.00  0.00    +0.000 OA
ATOM      3  C   UNL     1       6.603   5.226  19.140  0.00  0.00    +0.000 C 
ATOM      4  C   UNL     1       7.112   6.598  18.707  0.00  0.00    +0.000 C 
ATOM      5  C   UNL     1       7.075   6.523  17.190  0.00  0.00    +0.000 C 
ENDROOT
BRANCH   1  10
ATOM      6  O   UNL     1       4.966   3.526  12.288  0.00  0.00    +0.000 OA
ATOM      7  C   UNL     1       5.544   3.811  13.329  0.00  0.00    +0.000 A 
ATOM      8  C   UNL     1       5.039   3.351  14.628  0.00  0.00    +0.000 A 
ATOM      9  C   UNL     1       5.670   3.736  15.739  0.00  0.00    +0.000 A 
ATOM     10  N   UNL     1       6.801   4.531  15.704  0.00  0.00    +0.000 N 
ATOM     11  C   UNL     1       7.349   4.961  14.499  0.00  0.00    +0.000 A 
ATOM     12  O   UNL     1       8.364   5.648  14.406  0.00  0.00    +0.000 OA
ATOM     13  N   UNL     1       6.682   4.559  13.369  0.00  0.00    +0.000 N 
ATOM     14  H   UNL     1       7.054   4.881  12.491  0.00  0.00    +0.000 HD
ENDBRANCH   1  10
BRANCH   4  15
ATOM     15  O   UNL     1       8.470   6.786  19.154  0.00  0.00    +0.000 OA
ATOM     16  H   UNL     1       8.535   6.525  20.097  0.00  0.00    +0.000 HD
ENDBRANCH   4  15
BRANCH   5  17
ATOM     17  O   UNL     1       7.970   7.447  16.586  0.00  0.00    +0.000 OA
ATOM     18  H   UNL     1       8.319   8.024  17.293  0.00  0.00    +0.000 HD
ENDBRANCH   5  17
BRANCH   3  19
ATOM     19  C   UNL     1       5.094   5.175  19.424  0.00  0.00    +0.000 C 
BRANCH  19  20
ATOM     20  O   UNL     1       4.389   6.344  19.005  0.00  0.00    +0.000 OA
BRANCH  20  21
ATOM     21  P   UNL     1       2.795   6.239  18.765  0.00  0.00    +0.000 P 
ATOM     22  O   UNL     1       1.996   6.179  20.027  0.00  0.00    +0.000 OA
BRANCH  21  23
ATOM     23  O   UNL     1       2.527   7.602  17.958  0.00  0.00    +0.000 OA
ATOM     24  H   UNL     1       3.315   8.164  17.837  0.00  0.00    +0.000 HD
ENDBRANCH  21  23
BRANCH  21  25
ATOM     25  C   UNL     1       2.489   4.942  17.564  0.00  0.00    +0.000 C 
BRANCH  25  26
ATOM     26  C   UNL     1       1.389   3.999  18.034  0.00  0.00    +0.000 C 
BRANCH  26  27
ATOM     27  N   UNL     1       1.803   2.753  18.697  0.00  0.00    +0.000 NA
ATOM     28  C   UNL     1       1.600   2.860  20.159  0.00  0.00    +0.000 C 
ATOM     29  C   UNL     1       2.969   2.686  20.810  0.00  0.00    +0.000 C 
ATOM     30  C   UNL     1       3.672   1.757  19.823  0.00  0.00    +0.000 C 
ATOM     31  C   UNL     1       3.198   2.331  18.481  0.00  0.00    +0.000 C 
BRANCH  29  32
ATOM     32  O   UNL     1       2.888   2.166  22.128  0.00  0.00    +0.000 OA
ATOM     33  H   UNL     1       3.197   1.244  22.114  0.00  0.00    +0.000 HD
ENDBRANCH  29  32
BRANCH  30  34
ATOM     34  O   UNL     1       5.088   1.767  19.956  0.00  0.00    +0.000 OA
ATOM     35  H   UNL     1       5.410   2.668  19.786  0.00  0.00    +0.000 HD
ENDBRANCH  30  34
ENDBRANCH  26  27
ENDBRANCH  25  26
ENDBRANCH  21  25
ENDBRANCH  20  21
ENDBRANCH  19  20
ENDBRANCH   3  19
TORSDOF 12
ENDMDL
MODEL 3
REMARK VINA RESULT:      -6.9      4.885      7.201
REMARK  Name = 
REMARK  12 active torsions:
REMARK  status: ('A' for Active; 'I' for Inactive)
REMARK    1  A    between atoms: N_5  and  C_6
REMARK    2  A    between atoms: C_8  and  C_9
REMARK    3  A    between atoms: C_9  and  O_10
REMARK    4  A    between atoms: O_10  and  P_11
REMARK    5  A    between atoms: P_11  and  O_13
REMARK    6  A    between atoms: P_11  and  C_14
REMARK    7  A    between atoms: C_14  and  C_15
REMARK    8  A    between atoms: C_15  and  N_16
REMARK    9  A    between atoms: C_18  and  O_19
REMARK   10  A    between atoms: C_20  and  O_21
REMARK   11  A    between atoms: C_23  and  O_24
REMARK   12  A    between atoms: C_25  and  O_26
REMARK                            x       y       z     vdW  Elec       q    Type
REMARK                         _______ _______ _______ _____ _____    ______ ____
ROOT
ATOM      1  C   UNL     1       2.873   4.691  18.322  0.00  0.00    +0.000 C 
ATOM      2  O   UNL     1       2.049   5.870  18.196  0.00  0.00    +0.000 OA
ATOM      3  C   UNL     1       1.614   6.296  19.506  0.00  0.00    +0.000 C 
ATOM      4  C   UNL     1       2.011   5.192  20.482  0.00  0.00    +0.000 C 
ATOM      5  C   UNL     1       3.217   4.552  19.814  0.00  0.00    +0.000 C 
ENDROOT
BRANCH   1  10
ATOM      6  O   UNL     1       7.538   4.995  15.500  0.00  0.00    +0.000 OA
ATOM      7  C   UNL     1       6.460   4.935  16.078  0.00  0.00    +0.000 A 
ATOM      8  C   UNL     1       5.747   6.152  16.483  0.00  0.00    +0.000 A 
ATOM      9  C   UNL     1       4.605   6.034  17.162  0.00  0.00    +0.000 A 
ATOM     10  N   UNL     1       4.057   4.804  17.473  0.00  0.00    +0.000 N 
ATOM     11  C   UNL     1       4.667   3.617  17.078  0.00  0.00    +0.000 A 
ATOM     12  O   UNL     1       4.215   2.497  17.305  0.00  0.00    +0.000 OA
ATOM     13  N   UNL     1       5.844   3.759  16.385  0.00  0.00    +0.000 N 
ATOM     14  H   UNL     1       6.307   2.909  16.112  0.00  0.00    +0.000 HD
ENDBRANCH   1  10
BRANCH   4  15
ATOM     15  O   UNL     1       0.947   4.227  20.598  0.00  0.00    +0.000 OA
ATOM     16  H   UNL     1       0.197   4.508  20.033  0.00  0.00    +0.000 HD
ENDBRANCH   4  15
BRANCH   5  17
ATOM     17  O   UNL     1       3.425   3.216  20.253  0.00  0.00    +0.000 OA
ATOM     18  H   UNL     1       2.548   2.792  20.330  0.00  0.00    +0.000 HD
ENDBRANCH   5  17
BRANCH   3  19
ATOM     19  C   UNL     1       2.216   7.672  19.831  0.00  0.00    +0.000 C 
BRANCH  19  20
ATOM     20  O   UNL     1       1.831   8.183  21.108  0.00  0.00    +0.000 OA
BRANCH  20  21
ATOM     21  P   UNL     1       0.543   9.154  21.192  0.00  0.00    +0.000 P 
ATOM     22  O   UNL     1      -0.670   8.501  21.770  0.00  0.00    +0.000 OA
BRANCH  21  23
ATOM     23  O   UNL     1       1.108  10.310  22.154  0.00  0.00    +0.000 OA
ATOM     24  H   UNL     1       1.613  11.008  21.697  0.00  0.00    +0.000 HD
ENDBRANCH  21  23
BRANCH  21  25
ATOM     25  C   UNL     1       0.336   9.958  19.602  0.00  0.00    +0.000 C 
BRANCH  25  26
ATOM     26  C   UNL     1      -1.132  10.020  19.198  0.00  0.00    +0.000 C 
BRANCH  26  27
ATOM     27  N   UNL     1      -1.476  10.828  18.019  0.00  0.00    +0.000 NA
ATOM     28  C   UNL     1      -2.662  11.667  18.303  0.00  0.00    +0.000 C 
ATOM     29  C   UNL     1      -3.744  11.257  17.308  0.00  0.00    +0.000 C 
ATOM     30  C   UNL     1      -2.915  10.830  16.099  0.00  0.00    +0.000 C 
ATOM     31  C   UNL     1      -1.757  10.085  16.777  0.00  0.00    +0.000 C 
BRANCH  29  32
ATOM     32  O   UNL     1      -4.661  12.304  17.032  0.00  0.00    +0.000 OA
ATOM     33  H   UNL     1      -4.985  12.659  17.877  0.00  0.00    +0.000 HD
ENDBRANCH  29  32
BRANCH  30  34
ATOM     34  O   UNL     1      -3.635  10.010  15.187  0.00  0.00    +0.000 OA
ATOM     35  H   UNL     1      -4.293   9.494  15.684  0.00  0.00    +0.000 HD
ENDBRANCH  30  34
ENDBRANCH  26  27
ENDBRANCH  25  26
ENDBRANCH  21  25
ENDBRANCH  20  21
ENDBRANCH  19  20
ENDBRANCH   3  19
TORSDOF 12
ENDMDL
MODEL 4
REMARK VINA RESULT:      -6.8      2.476      6.601
REMARK  Name = 
REMARK  12 active torsions:
REMARK  status: ('A' for Active; 'I' for Inactive)
REMARK    1  A    between atoms: N_5  and  C_6
REMARK    2  A    between atoms: C_8  and  C_9
REMARK    3  A    between atoms: C_9  and  O_10
REMARK    4  A    between atoms: O_10  and  P_11
REMARK    5  A    between atoms: P_11  and  O_13
REMARK    6  A    between atoms: P_11  and  C_14
REMARK    7  A    between atoms: C_14  and  C_15
REMARK    8  A    between atoms: C_15  and  N_16
REMARK    9  A    between atoms: C_18  and  O_19
REMARK   10  A    between atoms: C_20  and  O_21
REMARK   11  A    between atoms: C_23  and  O_24
REMARK   12  A    between atoms: C_25  and  O_26
REMARK                            x       y       z     vdW  Elec       q    Type
REMARK                         _______ _______ _______ _____ _____    ______ ____
ROOT
ATOM      1  C   UNL     1       2.224   4.965  19.531  0.00  0.00    +0.000 C 
ATOM      2  O   UNL     1       3.387   4.579  20.292  0.00  0.00    +0.000 OA
ATOM      3  C   UNL     1       3.853   3.289  19.840  0.00  0.00    +0.000 C 
ATOM      4  C   UNL     1       2.787   2.745  18.892  0.00  0.00    +0.000 C 
ATOM      5  C   UNL     1       2.139   4.002  18.336  0.00  0.00    +0.000 C 
ENDROOT
BRANCH   1  10
ATOM      6  O   UNL     1       2.162  10.181  17.914  0.00  0.00    +0.000 OA
ATOM      7  C   UNL     1       2.234   9.021  18.299  0.00  0.00    +0.000 A 
ATOM      8  C   UNL     1       2.877   7.988  17.478  0.00  0.00    +0.000 A 
ATOM      9  C   UNL     1       2.879   6.727  17.913  0.00  0.00    +0.000 A 
ATOM     10  N   UNL     1       2.321   6.366  19.126  0.00  0.00    +0.000 N 
ATOM     11  C   UNL     1       1.737   7.310  19.965  0.00  0.00    +0.000 A 
ATOM     12  O   UNL     1       1.247   7.052  21.062  0.00  0.00    +0.000 OA
ATOM     13  N   UNL     1       1.739   8.600  19.496  0.00  0.00    +0.000 N 
ATOM     14  H   UNL     1       1.300   9.290  20.083  0.00  0.00    +0.000 HD
ENDBRANCH   1  10
BRANCH   4  15
ATOM     15  O   UNL     1       1.814   1.978  19.628  0.00  0.00    +0.000 OA
ATOM     16  H   UNL     1       1.206   2.592  20.093  0.00  0.00    +0.000 HD
ENDBRANCH   4  15
BRANCH   5  17
ATOM     17  O   UNL     1       0.821   3.759  17.862  0.00  0.00    +0.000 OA
ATOM     18  H   UNL     1       0.742   2.801  17.686  0.00  0.00    +0.000 HD
ENDBRANCH   5  17
BRANCH   3  19
ATOM     19  C   UNL     1       5.245   3.431  19.207  0.00  0.00    +0.000 C 
BRANCH  19  20
ATOM     20  O   UNL     1       5.521   4.742  18.712  0.00  0.00    +0.000 OA
BRANCH  20  21
ATOM     21  P   UNL     1       7.052   5.259  18.711  0.00  0.00    +0.000 P 
ATOM     22  O   UNL     1       7.594   5.546  20.073  0.00  0.00    +0.000 OA
BRANCH  21  23
ATOM     23  O   UNL     1       7.787   4.003  18.032  0.00  0.00    +0.000 OA
ATOM     24  H   UNL     1       8.761   4.049  18.039  0.00  0.00    +0.000 HD
ENDBRANCH  21  23
BRANCH  21  25
ATOM     25  C   UNL     1       7.203   6.573  17.498  0.00  0.00    +0.000 C 
BRANCH  25  26
ATOM     26  C   UNL     1       6.351   6.291  16.266  0.00  0.00    +0.000 C 
BRANCH  26  27
ATOM     27  N   UNL     1       6.621   5.049  15.526  0.00  0.00    +0.000 NA
ATOM     28  C   UNL     1       7.557   5.313  14.409  0.00  0.00    +0.000 C 
ATOM     29  C   UNL     1       6.826   4.943  13.122  0.00  0.00    +0.000 C 
ATOM     30  C   UNL     1       5.904   3.821  13.594  0.00  0.00    +0.000 C 
ATOM     31  C   UNL     1       5.449   4.360  14.957  0.00  0.00    +0.000 C 
BRANCH  29  32
ATOM     32  O   UNL     1       7.709   4.558  12.080  0.00  0.00    +0.000 OA
ATOM     33  H   UNL     1       7.503   5.088  11.292  0.00  0.00    +0.000 HD
ENDBRANCH  29  32
BRANCH  30  34
ATOM     34  O   UNL     1       4.817   3.580  12.709  0.00  0.00    +0.000 OA
ATOM     35  H   UNL     1       4.327   4.411  12.583  0.00  0.00    +0.000 HD
ENDBRANCH  30  34
ENDBRANCH  26  27
ENDBRANCH  25  26
ENDBRANCH  21  25
ENDBRANCH  20  21
ENDBRANCH  19  20
ENDBRANCH   3  19
TORSDOF 12
ENDMDL
MODEL 5
REMARK VINA RESULT:      -6.8      0.838      1.281
REMARK  Name = 
REMARK  12 active torsions:
REMARK  status: ('A' for Active; 'I' for Inactive)
REMARK    1  A    between atoms: N_5  and  C_6
REMARK    2  A    between atoms: C_8  and  C_9
REMARK    3  A    between atoms: C_9  and  O_10
REMARK    4  A    between atoms: O_10  and  P_11
REMARK    5  A    between atoms: P_11  and  O_13
REMARK    6  A    between atoms: P_11  and  C_14
REMARK    7  A    between atoms: C_14  and  C_15
REMARK    8  A    between atoms: C_15  and  N_16
REMARK    9  A    between atoms: C_18  and  O_19
REMARK   10  A    between atoms: C_20  and  O_21
REMARK   11  A    between atoms: C_23  and  O_24
REMARK   12  A    between atoms: C_25  and  O_26
REMARK                            x       y       z     vdW  Elec       q    Type
REMARK                         _______ _______ _______ _____ _____    ______ ____
ROOT
ATOM      1  C   UNL     1       7.319   5.156  16.688  0.00  0.00    +0.000 C 
ATOM      2  O   UNL     1       6.863   4.241  17.706  0.00  0.00    +0.000 OA
ATOM      3  C   UNL     1       6.473   4.984  18.882  0.00  0.00    +0.000 C 
ATOM      4  C   UNL     1       6.917   6.427  18.657  0.00  0.00    +0.000 C 
ATOM      5  C   UNL     1       6.905   6.565  17.144  0.00  0.00    +0.000 C 
ENDROOT
BRANCH   1  10
ATOM      6  O   UNL     1       5.278   3.375  11.946  0.00  0.00    +0.000 OA
ATOM      7  C   UNL     1       5.718   3.833  12.993  0.00  0.00    +0.000 A 
ATOM      8  C   UNL     1       7.057   4.429  13.057  0.00  0.00    +0.000 A 
ATOM      9  C   UNL     1       7.515   4.861  14.233  0.00  0.00    +0.000 A 
ATOM     10  N   UNL     1       6.758   4.792  15.388  0.00  0.00    +0.000 N 
ATOM     11  C   UNL     1       5.465   4.277  15.378  0.00  0.00    +0.000 A 
ATOM     12  O   UNL     1       4.738   4.212  16.367  0.00  0.00    +0.000 OA
ATOM     13  N   UNL     1       5.015   3.832  14.160  0.00  0.00    +0.000 N 
ATOM     14  H   UNL     1       4.090   3.437  14.142  0.00  0.00    +0.000 HD
ENDBRANCH   1  10
BRANCH   4  15
ATOM     15  O   UNL     1       8.255   6.617  19.156  0.00  0.00    +0.000 OA
ATOM     16  H   UNL     1       8.602   7.473  18.825  0.00  0.00    +0.000 HD
ENDBRANCH   4  15
BRANCH   5  17
ATOM     17  O   UNL     1       7.760   7.608  16.695  0.00  0.00    +0.000 OA
ATOM     18  H   UNL     1       7.408   8.449  17.047  0.00  0.00    +0.000 HD
ENDBRANCH   5  17
BRANCH   3  19
ATOM     19  C   UNL     1       4.964   4.819  19.123  0.00  0.00    +0.000 C 
BRANCH  19  20
ATOM     20  O   UNL     1       4.322   6.007  19.587  0.00  0.00    +0.000 OA
BRANCH  20  21
ATOM     21  P   UNL     1       2.714   6.111  19.468  0.00  0.00    +0.000 P 
ATOM     22  O   UNL     1       2.201   7.513  19.413  0.00  0.00    +0.000 OA
BRANCH  21  23
ATOM     23  O   UNL     1       2.470   5.335  18.083  0.00  0.00    +0.000 OA
ATOM     24  H   UNL     1       3.057   4.571  17.936  0.00  0.00    +0.000 HD
ENDBRANCH  21  23
BRANCH  21  25
ATOM     25  C   UNL     1       1.986   5.042  20.712  0.00  0.00    +0.000 C 
BRANCH  25  26
ATOM     26  C   UNL     1       1.140   3.946  20.076  0.00  0.00    +0.000 C 
BRANCH  26  27
ATOM     27  N   UNL     1       1.752   2.616  19.933  0.00  0.00    +0.000 NA
ATOM     28  C   UNL     1       2.951   2.510  20.794  0.00  0.00    +0.000 C 
ATOM     29  C   UNL     1       4.136   2.240  19.871  0.00  0.00    +0.000 C 
ATOM     30  C   UNL     1       3.479   1.463  18.733  0.00  0.00    +0.000 C 
ATOM     31  C   UNL     1       2.158   2.227  18.571  0.00  0.00    +0.000 C 
BRANCH  29  32
ATOM     32  O   UNL     1       5.184   1.533  20.516  0.00  0.00    +0.000 OA
ATOM     33  H   UNL     1       5.387   0.740  19.992  0.00  0.00    +0.000 HD
ENDBRANCH  29  32
BRANCH  30  34
ATOM     34  O   UNL     1       4.255   1.450  17.541  0.00  0.00    +0.000 OA
ATOM     35  H   UNL     1       4.798   2.256  17.515  0.00  0.00    +0.000 HD
ENDBRANCH  30  34
ENDBRANCH  26  27
ENDBRANCH  25  26
ENDBRANCH  21  25
ENDBRANCH  20  21
ENDBRANCH  19  20
ENDBRANCH   3  19
TORSDOF 12
ENDMDL
MODEL 6
REMARK VINA RESULT:      -6.8      4.749      7.283
REMARK  Name = 
REMARK  12 active torsions:
REMARK  status: ('A' for Active; 'I' for Inactive)
REMARK    1  A    between atoms: N_5  and  C_6
REMARK    2  A    between atoms: C_8  and  C_9
REMARK    3  A    between atoms: C_9  and  O_10
REMARK    4  A    between atoms: O_10  and  P_11
REMARK    5  A    between atoms: P_11  and  O_13
REMARK    6  A    between atoms: P_11  and  C_14
REMARK    7  A    between atoms: C_14  and  C_15
REMARK    8  A    between atoms: C_15  and  N_16
REMARK    9  A    between atoms: C_18  and  O_19
REMARK   10  A    between atoms: C_20  and  O_21
REMARK   11  A    between atoms: C_23  and  O_24
REMARK   12  A    between atoms: C_25  and  O_26
REMARK                            x       y       z     vdW  Elec       q    Type
REMARK                         _______ _______ _______ _____ _____    ______ ____
ROOT
ATOM      1  C   UNL     1       2.710   4.358  18.635  0.00  0.00    +0.000 C 
ATOM      2  O   UNL     1       1.940   5.578  18.695  0.00  0.00    +0.000 OA
ATOM      3  C   UNL     1       1.489   5.797  20.049  0.00  0.00    +0.000 C 
ATOM      4  C   UNL     1       1.814   4.527  20.832  0.00  0.00    +0.000 C 
ATOM      5  C   UNL     1       3.010   3.954  20.088  0.00  0.00    +0.000 C 
ENDROOT
BRANCH   1  10
ATOM      6  O   UNL     1       7.459   4.940  16.001  0.00  0.00    +0.000 OA
ATOM      7  C   UNL     1       6.364   4.825  16.538  0.00  0.00    +0.000 A 
ATOM      8  C   UNL     1       5.656   5.993  17.076  0.00  0.00    +0.000 A 
ATOM      9  C   UNL     1       4.493   5.809  17.704  0.00  0.00    +0.000 A 
ATOM     10  N   UNL     1       3.920   4.558  17.839  0.00  0.00    +0.000 N 
ATOM     11  C   UNL     1       4.525   3.422  17.311  0.00  0.00    +0.000 A 
ATOM     12  O   UNL     1       4.051   2.290  17.380  0.00  0.00    +0.000 OA
ATOM     13  N   UNL     1       5.723   3.631  16.675  0.00  0.00    +0.000 N 
ATOM     14  H   UNL     1       6.183   2.815  16.307  0.00  0.00    +0.000 HD
ENDBRANCH   1  10
BRANCH   4  15
ATOM     15  O   UNL     1       0.708   3.606  20.763  0.00  0.00    +0.000 OA
ATOM     16  H   UNL     1       0.981   2.748  21.153  0.00  0.00    +0.000 HD
ENDBRANCH   4  15
BRANCH   5  17
ATOM     17  O   UNL     1       3.150   2.556  20.298  0.00  0.00    +0.000 OA
ATOM     18  H   UNL     1       3.609   2.431  21.151  0.00  0.00    +0.000 HD
ENDBRANCH   5  17
BRANCH   3  19
ATOM     19  C   UNL     1       2.140   7.069  20.613  0.00  0.00    +0.000 C 
BRANCH  19  20
ATOM     20  O   UNL     1       1.459   8.272  20.255  0.00  0.00    +0.000 OA
BRANCH  20  21
ATOM     21  P   UNL     1       0.648   9.070  21.402  0.00  0.00    +0.000 P 
ATOM     22  O   UNL     1      -0.522   8.318  21.950  0.00  0.00    +0.000 OA
BRANCH  21  23
ATOM     23  O   UNL     1       1.802   9.256  22.504  0.00  0.00    +0.000 OA
ATOM     24  H   UNL     1       2.626   8.770  22.316  0.00  0.00    +0.000 HD
ENDBRANCH  21  23
BRANCH  21  25
ATOM     25  C   UNL     1       0.323  10.733  20.812  0.00  0.00    +0.000 C 
BRANCH  25  26
ATOM     26  C   UNL     1       0.552  10.842  19.309  0.00  0.00    +0.000 C 
BRANCH  26  27
ATOM     27  N   UNL     1      -0.507  11.474  18.507  0.00  0.00    +0.000 NA
ATOM     28  C   UNL     1      -1.303  12.397  19.347  0.00  0.00    +0.000 C 
ATOM     29  C   UNL     1      -2.741  11.886  19.328  0.00  0.00    +0.000 C 
ATOM     30  C   UNL     1      -2.828  11.242  17.946  0.00  0.00    +0.000 C 
ATOM     31  C   UNL     1      -1.456  10.561  17.844  0.00  0.00    +0.000 C 
BRANCH  29  32
ATOM     32  O   UNL     1      -3.692  12.917  19.540  0.00  0.00    +0.000 OA
ATOM     33  H   UNL     1      -3.256  13.773  19.392  0.00  0.00    +0.000 HD
ENDBRANCH  29  32
BRANCH  30  34
ATOM     34  O   UNL     1      -3.907  10.324  17.824  0.00  0.00    +0.000 OA
ATOM     35  H   UNL     1      -3.701   9.530  18.345  0.00  0.00    +0.000 HD
ENDBRANCH  30  34
ENDBRANCH  26  27
ENDBRANCH  25  26
ENDBRANCH  21  25
ENDBRANCH  20  21
ENDBRANCH  19  20
ENDBRANCH   3  19
TORSDOF 12
ENDMDL
MODEL 7
REMARK VINA RESULT:      -6.8      4.046      8.366
REMARK  Name = 
REMARK  12 active torsions:
REMARK  status: ('A' for Active; 'I' for Inactive)
REMARK    1  A    between atoms: N_5  and  C_6
REMARK    2  A    between atoms: C_8  and  C_9
REMARK    3  A    between atoms: C_9  and  O_10
REMARK    4  A    between atoms: O_10  and  P_11
REMARK    5  A    between atoms: P_11  and  O_13
REMARK    6  A    between atoms: P_11  and  C_14
REMARK    7  A    between atoms: C_14  and  C_15
REMARK    8  A    between atoms: C_15  and  N_16
REMARK    9  A    between atoms: C_18  and  O_19
REMARK   10  A    between atoms: C_20  and  O_21
REMARK   11  A    between atoms: C_23  and  O_24
REMARK   12  A    between atoms: C_25  and  O_26
REMARK                            x       y       z     vdW  Elec       q    Type
REMARK                         _______ _______ _______ _____ _____    ______ ____
ROOT
ATOM      1  C   UNL     1       2.772   6.086  19.766  0.00  0.00    +0.000 C 
ATOM      2  O   UNL     1       4.204   6.077  19.588  0.00  0.00    +0.000 OA
ATOM      3  C   UNL     1       4.597   4.867  18.903  0.00  0.00    +0.000 C 
ATOM      4  C   UNL     1       3.361   3.973  18.847  0.00  0.00    +0.000 C 
ATOM      5  C   UNL     1       2.210   4.965  18.877  0.00  0.00    +0.000 C 
ENDROOT
BRANCH   1  10
ATOM      6  O   UNL     1       0.335  10.810  18.514  0.00  0.00    +0.000 OA
ATOM      7  C   UNL     1       0.935   9.783  18.806  0.00  0.00    +0.000 A 
ATOM      8  C   UNL     1       1.753   9.074  17.815  0.00  0.00    +0.000 A 
ATOM      9  C   UNL     1       2.340   7.928  18.164  0.00  0.00    +0.000 A 
ATOM     10  N   UNL     1       2.225   7.401  19.436  0.00  0.00    +0.000 N 
ATOM     11  C   UNL     1       1.499   8.052  20.429  0.00  0.00    +0.000 A 
ATOM     12  O   UNL     1       1.382   7.643  21.582  0.00  0.00    +0.000 OA
ATOM     13  N   UNL     1       0.898   9.225  20.049  0.00  0.00    +0.000 N 
ATOM     14  H   UNL     1       0.350   9.696  20.750  0.00  0.00    +0.000 HD
ENDBRANCH   1  10
BRANCH   4  15
ATOM     15  O   UNL     1       3.308   3.127  20.013  0.00  0.00    +0.000 OA
ATOM     16  H   UNL     1       3.949   3.458  20.678  0.00  0.00    +0.000 HD
ENDBRANCH   4  15
BRANCH   5  17
ATOM     17  O   UNL     1       1.008   4.375  19.355  0.00  0.00    +0.000 OA
ATOM     18  H   UNL     1       1.039   3.423  19.136  0.00  0.00    +0.000 HD
ENDBRANCH   5  17
BRANCH   3  19
ATOM     19  C   UNL     1       5.184   5.217  17.528  0.00  0.00    +0.000 C 
BRANCH  19  20
ATOM     20  O   UNL     1       5.695   6.548  17.440  0.00  0.00    +0.000 OA
BRANCH  20  21
ATOM     21  P   UNL     1       7.292   6.769  17.540  0.00  0.00    +0.000 P 
ATOM     22  O   UNL     1       7.953   5.935  18.590  0.00  0.00    +0.000 OA
BRANCH  21  23
ATOM     23  O   UNL     1       7.744   6.330  16.063  0.00  0.00    +0.000 OA
ATOM     24  H   UNL     1       7.273   5.553  15.707  0.00  0.00    +0.000 HD
ENDBRANCH  21  23
BRANCH  21  25
ATOM     25  C   UNL     1       7.615   8.533  17.600  0.00  0.00    +0.000 C 
BRANCH  25  26
ATOM     26  C   UNL     1       8.638   8.873  18.678  0.00  0.00    +0.000 C 
BRANCH  26  27
ATOM     27  N   UNL     1       8.816  10.292  19.018  0.00  0.00    +0.000 NA
ATOM     28  C   UNL     1       9.125  11.075  17.801  0.00  0.00    +0.000 C 
ATOM     29  C   UNL     1      10.497  11.707  18.017  0.00  0.00    +0.000 C 
ATOM     30  C   UNL     1      10.521  11.900  19.531  0.00  0.00    +0.000 C 
ATOM     31  C   UNL     1       9.862  10.599  20.010  0.00  0.00    +0.000 C 
BRANCH  29  32
ATOM     32  O   UNL     1      10.670  12.909  17.283  0.00  0.00    +0.000 OA
ATOM     33  H   UNL     1      10.112  13.597  17.685  0.00  0.00    +0.000 HD
ENDBRANCH  29  32
BRANCH  30  34
ATOM     34  O   UNL     1      11.833  12.075  20.052  0.00  0.00    +0.000 OA
ATOM     35  H   UNL     1      12.340  11.261  19.899  0.00  0.00    +0.000 HD
ENDBRANCH  30  34
ENDBRANCH  26  27
ENDBRANCH  25  26
ENDBRANCH  21  25
ENDBRANCH  20  21
ENDBRANCH  19  20
ENDBRANCH   3  19
TORSDOF 12
ENDMDL
MODEL 8
REMARK VINA RESULT:      -6.8      4.587      7.193
REMARK  Name = 
REMARK  12 active torsions:
REMARK  status: ('A' for Active; 'I' for Inactive)
REMARK    1  A    between atoms: N_5  and  C_6
REMARK    2  A    between atoms: C_8  and  C_9
REMARK    3  A    between atoms: C_9  and  O_10
REMARK    4  A    between atoms: O_10  and  P_11
REMARK    5  A    between atoms: P_11  and  O_13
REMARK    6  A    between atoms: P_11  and  C_14
REMARK    7  A    between atoms: C_14  and  C_15
REMARK    8  A    between atoms: C_15  and  N_16
REMARK    9  A    between atoms: C_18  and  O_19
REMARK   10  A    between atoms: C_20  and  O_21
REMARK   11  A    between atoms: C_23  and  O_24
REMARK   12  A    between atoms: C_25  and  O_26
REMARK                            x       y       z     vdW  Elec       q    Type
REMARK                         _______ _______ _______ _____ _____    ______ ____
ROOT
ATOM      1  C   UNL     1       3.324   4.165  18.156  0.00  0.00    +0.000 C 
ATOM      2  O   UNL     1       2.217   5.029  18.486  0.00  0.00    +0.000 OA
ATOM      3  C   UNL     1       1.682   4.656  19.775  0.00  0.00    +0.000 C 
ATOM      4  C   UNL     1       2.359   3.346  20.169  0.00  0.00    +0.000 C 
ATOM      5  C   UNL     1       3.692   3.409  19.443  0.00  0.00    +0.000 C 
ENDROOT
BRANCH   1  10
ATOM      6  O   UNL     1       7.742   6.869  16.425  0.00  0.00    +0.000 OA
ATOM      7  C   UNL     1       6.719   6.288  16.765  0.00  0.00    +0.000 A 
ATOM      8  C   UNL     1       5.712   6.953  17.601  0.00  0.00    +0.000 A 
ATOM      9  C   UNL     1       4.642   6.260  17.994  0.00  0.00    +0.000 A 
ATOM     10  N   UNL     1       4.437   4.946  17.617  0.00  0.00    +0.000 N 
ATOM     11  C   UNL     1       5.336   4.279  16.791  0.00  0.00    +0.000 A 
ATOM     12  O   UNL     1       5.194   3.121  16.405  0.00  0.00    +0.000 OA
ATOM     13  N   UNL     1       6.433   5.007  16.402  0.00  0.00    +0.000 N 
ATOM     14  H   UNL     1       7.104   4.530  15.822  0.00  0.00    +0.000 HD
ENDBRANCH   1  10
BRANCH   4  15
ATOM     15  O   UNL     1       1.591   2.227  19.686  0.00  0.00    +0.000 OA
ATOM     16  H   UNL     1       2.181   1.450  19.590  0.00  0.00    +0.000 HD
ENDBRANCH   4  15
BRANCH   5  17
ATOM     17  O   UNL     1       4.249   2.118  19.233  0.00  0.00    +0.000 OA
ATOM     18  H   UNL     1       5.107   2.087  19.701  0.00  0.00    +0.000 HD
ENDBRANCH   5  17
BRANCH   3  19
ATOM     19  C   UNL     1       1.896   5.802  20.777  0.00  0.00    +0.000 C 
BRANCH  19  20
ATOM     20  O   UNL     1       1.786   7.102  20.197  0.00  0.00    +0.000 OA
BRANCH  20  21
ATOM     21  P   UNL     1       0.958   8.235  20.996  0.00  0.00    +0.000 P 
ATOM     22  O   UNL     1      -0.361   7.766  21.518  0.00  0.00    +0.000 OA
BRANCH  21  23
ATOM     23  O   UNL     1       1.983   8.565  22.189  0.00  0.00    +0.000 OA
ATOM     24  H   UNL     1       1.601   9.082  22.922  0.00  0.00    +0.000 HD
ENDBRANCH  21  23
BRANCH  21  25
ATOM     25  C   UNL     1       0.938   9.728  20.001  0.00  0.00    +0.000 C 
BRANCH  25  26
ATOM     26  C   UNL     1       0.893  10.976  20.874  0.00  0.00    +0.000 C 
BRANCH  26  27
ATOM     27  N   UNL     1       0.254  12.175  20.309  0.00  0.00    +0.000 NA
ATOM     28  C   UNL     1      -1.180  12.211  20.676  0.00  0.00    +0.000 C 
ATOM     29  C   UNL     1      -1.971  12.188  19.371  0.00  0.00    +0.000 C 
ATOM     30  C   UNL     1      -1.022  12.906  18.414  0.00  0.00    +0.000 C 
ATOM     31  C   UNL     1       0.333  12.329  18.845  0.00  0.00    +0.000 C 
BRANCH  29  32
ATOM     32  O   UNL     1      -3.242  12.808  19.489  0.00  0.00    +0.000 OA
ATOM     33  H   UNL     1      -3.780  12.554  18.720  0.00  0.00    +0.000 HD
ENDBRANCH  29  32
BRANCH  30  34
ATOM     34  O   UNL     1      -1.314  12.656  17.045  0.00  0.00    +0.000 OA
ATOM     35  H   UNL     1      -1.806  13.415  16.688  0.00  0.00    +0.000 HD
ENDBRANCH  30  34
ENDBRANCH  26  27
ENDBRANCH  25  26
ENDBRANCH  21  25
ENDBRANCH  20  21
ENDBRANCH  19  20
ENDBRANCH   3  19
TORSDOF 12
ENDMDL
MODEL 9
REMARK VINA RESULT:      -6.8      4.887      7.964
REMARK  Name = 
REMARK  12 active torsions:
REMARK  status: ('A' for Active; 'I' for Inactive)
REMARK    1  A    between atoms: N_5  and  C_6
REMARK    2  A    between atoms: C_8  and  C_9
REMARK    3  A    between atoms: C_9  and  O_10
REMARK    4  A    between atoms: O_10  and  P_11
REMARK    5  A    between atoms: P_11  and  O_13
REMARK    6  A    between atoms: P_11  and  C_14
REMARK    7  A    between atoms: C_14  and  C_15
REMARK    8  A    between atoms: C_15  and  N_16
REMARK    9  A    between atoms: C_18  and  O_19
REMARK   10  A    between atoms: C_20  and  O_21
REMARK   11  A    between atoms: C_23  and  O_24
REMARK   12  A    between atoms: C_25  and  O_26
REMARK                            x       y       z     vdW  Elec       q    Type
REMARK                         _______ _______ _______ _____ _____    ______ ____
ROOT
ATOM      1  C   UNL     1       0.429  10.350  20.237  0.00  0.00    +0.000 C 
ATOM      2  O   UNL     1       1.505   9.582  19.658  0.00  0.00    +0.000 OA
ATOM      3  C   UNL     1       1.842   8.486  20.537  0.00  0.00    +0.000 C 
ATOM      4  C   UNL     1       1.077   8.715  21.838  0.00  0.00    +0.000 C 
ATOM      5  C   UNL     1      -0.139   9.512  21.394  0.00  0.00    +0.000 C 
ENDROOT
BRANCH   1  10
ATOM      6  O   UNL     1      -3.618  11.394  16.721  0.00  0.00    +0.000 OA
ATOM      7  C   UNL     1      -2.671  11.190  17.471  0.00  0.00    +0.000 A 
ATOM      8  C   UNL     1      -1.756  10.064  17.250  0.00  0.00    +0.000 A 
ATOM      9  C   UNL     1      -0.774   9.849  18.127  0.00  0.00    +0.000 A 
ATOM     10  N   UNL     1      -0.573  10.670  19.221  0.00  0.00    +0.000 N 
ATOM     11  C   UNL     1      -1.381  11.778  19.456  0.00  0.00    +0.000 A 
ATOM     12  O   UNL     1      -1.235  12.554  20.398  0.00  0.00    +0.000 OA
ATOM     13  N   UNL     1      -2.389  11.977  18.547  0.00  0.00    +0.000 N 
ATOM     14  H   UNL     1      -2.996  12.762  18.717  0.00  0.00    +0.000 HD
ENDBRANCH   1  10
BRANCH   4  15
ATOM     15  O   UNL     1       1.872   9.502  22.747  0.00  0.00    +0.000 OA
ATOM     16  H   UNL     1       2.259  10.260  22.260  0.00  0.00    +0.000 HD
ENDBRANCH   4  15
BRANCH   5  17
ATOM     17  O   UNL     1      -0.699  10.270  22.457  0.00  0.00    +0.000 OA
ATOM     18  H   UNL     1      -0.090  10.204  23.219  0.00  0.00    +0.000 HD
ENDBRANCH   5  17
BRANCH   3  19
ATOM     19  C   UNL     1       1.525   7.151  19.846  0.00  0.00    +0.000 C 
BRANCH  19  20
ATOM     20  O   UNL     1       1.305   6.071  20.754  0.00  0.00    +0.000 OA
BRANCH  20  21
ATOM     21  P   UNL     1       2.083   4.678  20.499  0.00  0.00    +0.000 P 
ATOM     22  O   UNL     1       2.150   3.793  21.701  0.00  0.00    +0.000 OA
BRANCH  21  23
ATOM     23  O   UNL     1       1.170   4.039  19.342  0.00  0.00    +0.000 OA
ATOM     24  H   UNL     1       1.391   4.334  18.439  0.00  0.00    +0.000 HD
ENDBRANCH  21  23
BRANCH  21  25
ATOM     25  C   UNL     1       3.641   5.043  19.687  0.00  0.00    +0.000 C 
BRANCH  25  26
ATOM     26  C   UNL     1       3.809   4.221  18.414  0.00  0.00    +0.000 C 
BRANCH  26  27
ATOM     27  N   UNL     1       4.296   4.921  17.216  0.00  0.00    +0.000 NA
ATOM     28  C   UNL     1       5.383   4.146  16.577  0.00  0.00    +0.000 C 
ATOM     29  C   UNL     1       6.624   5.034  16.586  0.00  0.00    +0.000 C 
ATOM     30  C   UNL     1       6.014   6.431  16.491  0.00  0.00    +0.000 C 
ATOM     31  C   UNL     1       4.800   6.292  17.419  0.00  0.00    +0.000 C 
BRANCH  29  32
ATOM     32  O   UNL     1       7.525   4.730  15.533  0.00  0.00    +0.000 OA
ATOM     33  H   UNL     1       8.403   5.073  15.771  0.00  0.00    +0.000 HD
ENDBRANCH  29  32
BRANCH  30  34
ATOM     34  O   UNL     1       6.904   7.460  16.903  0.00  0.00    +0.000 OA
ATOM     35  H   UNL     1       6.406   8.291  16.978  0.00  0.00    +0.000 HD
ENDBRANCH  30  34
ENDBRANCH  26  27
ENDBRANCH  25  26
ENDBRANCH  21  25
ENDBRANCH  20  21
ENDBRANCH  19  20
ENDBRANCH   3  19
TORSDOF 12
ENDMDL
