MODEL 1
REMARK VINA RESULT:      -7.3      0.000      0.000
REMARK  Name = 
REMARK  4 active torsions:
REMARK  status: ('A' for Active; 'I' for Inactive)
REMARK    1  A    between atoms: C_5  and  N_6
REMARK    2  A    between atoms: C_7  and  S_8
REMARK    3  A    between atoms: N_9  and  C_10
REMARK    4  A    between atoms: C_15  and  N_16
REMARK                            x       y       z     vdW  Elec       q    Type
REMARK                         _______ _______ _______ _____ _____    ______ ____
ROOT
ATOM      1  N   UNL     1       6.667   4.303  16.487  0.00  0.00    +0.000 N 
ATOM      2  C   UNL     1       5.812   5.038  17.267  0.00  0.00    +0.000 C 
ATOM      3  N   UNL     1       4.703   5.556  16.835  0.00  0.00    +0.000 NA
ATOM      4  H   UNL     1       7.293   3.690  16.987  0.00  0.00    +0.000 HD
ENDROOT
BRANCH   1   9
ATOM      5  F   UNL     1       7.248   4.594  10.970  0.00  0.00    +0.000 F 
ATOM      6  C   UNL     1       7.107   4.517  12.301  0.00  0.00    +0.000 A 
ATOM      7  C   UNL     1       7.904   5.320  13.106  0.00  0.00    +0.000 A 
ATOM      8  C   UNL     1       7.767   5.258  14.497  0.00  0.00    +0.000 A 
ATOM      9  C   UNL     1       6.855   4.378  15.097  0.00  0.00    +0.000 A 
ATOM     10  C   UNL     1       6.056   3.580  14.263  0.00  0.00    +0.000 A 
ATOM     11  C   UNL     1       6.179   3.652  12.871  0.00  0.00    +0.000 A 
ATOM     12 CL   UNL     1       5.172   2.666  11.884  0.00  0.00    +0.000 Cl
ENDBRANCH   1   9
BRANCH   3  13
ATOM     13  C   UNL     1       3.756   6.251  17.616  0.00  0.00    +0.000 A 
ATOM     14  C   UNL     1       3.649   7.650  17.476  0.00  0.00    +0.000 A 
ATOM     15  C   UNL     1       2.728   8.392  18.208  0.00  0.00    +0.000 A 
ATOM     16  C   UNL     1       1.841   7.738  19.050  0.00  0.00    +0.000 A 
ATOM     17  C   UNL     1       1.893   6.349  19.158  0.00  0.00    +0.000 A 
ATOM     18  C   UNL     1       2.844   5.552  18.472  0.00  0.00    +0.000 A 
BRANCH  18  19
ATOM     19  N   UNL     1       2.832   4.180  18.671  0.00  0.00    +0.000 N 
ATOM     20  C   UNL     1       3.127   3.553  19.973  0.00  0.00    +0.000 C 
ATOM     21  C   UNL     1       4.189   2.457  19.777  0.00  0.00    +0.000 C 
ATOM     22  O   UNL     1       3.789   1.490  18.793  0.00  0.00    +0.000 OA
ATOM     23  C   UNL     1       3.533   2.134  17.528  0.00  0.00    +0.000 C 
ATOM     24  C   UNL     1       2.430   3.193  17.657  0.00  0.00    +0.000 C 
ENDBRANCH  18  19
ENDBRANCH   3  13
BRANCH   2  25
ATOM     25  S   UNL     1       6.422   5.153  18.911  0.00  0.00    +0.000 S 
ATOM     26  H   UNL     1       5.788   6.307  19.185  0.00  0.00    +0.000 HD
ENDBRANCH   2  25
TORSDOF 4
ENDMDL
MODEL 2
REMARK VINA RESULT:      -7.1      0.653      1.189
REMARK  Name = 
REMARK  4 active torsions:
REMARK  status: ('A' for Active; 'I' for Inactive)
REMARK    1  A    between atoms: C_5  and  N_6
REMARK    2  A    between atoms: C_7  and  S_8
REMARK    3  A    between atoms: N_9  and  C_10
REMARK    4  A    between atoms: C_15  and  N_16
REMARK                            x       y       z     vdW  Elec       q    Type
REMARK                         _______ _______ _______ _____ _____    ______ ____
ROOT
ATOM      1  N   UNL     1       7.071   4.678  16.194  0.00  0.00    +0.000 N 
ATOM      2  C   UNL     1       6.184   5.366  16.979  0.00  0.00    +0.000 C 
ATOM      3  N   UNL     1       4.990   5.705  16.596  0.00  0.00    +0.000 NA
ATOM      4  H   UNL     1       7.804   4.191  16.691  0.00  0.00    +0.000 HD
ENDROOT
BRANCH   1   9
ATOM      5  F   UNL     1       7.240   4.583  10.643  0.00  0.00    +0.000 F 
ATOM      6  C   UNL     1       7.199   4.599  11.983  0.00  0.00    +0.000 A 
ATOM      7  C   UNL     1       8.026   5.480  12.668  0.00  0.00    +0.000 A 
ATOM      8  C   UNL     1       7.993   5.516  14.066  0.00  0.00    +0.000 A 
ATOM      9  C   UNL     1       7.156   4.657  14.793  0.00  0.00    +0.000 A 
ATOM     10  C   UNL     1       6.325   3.779  14.079  0.00  0.00    +0.000 A 
ATOM     11  C   UNL     1       6.344   3.753  12.680  0.00  0.00    +0.000 A 
ATOM     12 CL   UNL     1       5.300   2.671  11.843  0.00  0.00    +0.000 Cl
ENDBRANCH   1   9
BRANCH   3  13
ATOM     13  C   UNL     1       4.016   6.342  17.393  0.00  0.00    +0.000 A 
ATOM     14  C   UNL     1       3.840   7.737  17.272  0.00  0.00    +0.000 A 
ATOM     15  C   UNL     1       2.889   8.423  18.019  0.00  0.00    +0.000 A 
ATOM     16  C   UNL     1       2.041   7.715  18.859  0.00  0.00    +0.000 A 
ATOM     17  C   UNL     1       2.161   6.330  18.947  0.00  0.00    +0.000 A 
ATOM     18  C   UNL     1       3.145   5.589  18.244  0.00  0.00    +0.000 A 
BRANCH  18  19
ATOM     19  N   UNL     1       3.202   4.216  18.425  0.00  0.00    +0.000 N 
ATOM     20  C   UNL     1       2.546   3.255  17.519  0.00  0.00    +0.000 C 
ATOM     21  C   UNL     1       1.700   2.273  18.347  0.00  0.00    +0.000 C 
ATOM     22  O   UNL     1       2.479   1.612  19.357  0.00  0.00    +0.000 OA
ATOM     23  C   UNL     1       3.085   2.578  20.240  0.00  0.00    +0.000 C 
ATOM     24  C   UNL     1       3.994   3.543  19.467  0.00  0.00    +0.000 C 
ENDBRANCH  18  19
ENDBRANCH   3  13
BRANCH   2  25
ATOM     25  S   UNL     1       6.882   5.695  18.559  0.00  0.00    +0.000 S 
ATOM     26  H   UNL     1       7.657   6.707  18.131  0.00  0.00    +0.000 HD
ENDBRANCH   2  25
TORSDOF 4
ENDMDL
MODEL 3
REMARK VINA RESULT:      -7.1      1.110      1.483
REMARK  Name = 
REMARK  4 active torsions:
REMARK  status: ('A' for Active; 'I' for Inactive)
REMARK    1  A    between atoms: C_5  and  N_6
REMARK    2  A    between atoms: C_7  and  S_8
REMARK    3  A    between atoms: N_9  and  C_10
REMARK    4  A    between atoms: C_15  and  N_16
REMARK                            x       y       z     vdW  Elec       q    Type
REMARK                         _______ _______ _______ _____ _____    ______ ____
ROOT
ATOM      1  N   UNL     1       6.536   4.301  16.695  0.00  0.00    +0.000 N 
ATOM      2  C   UNL     1       5.691   5.020  17.499  0.00  0.00    +0.000 C 
ATOM      3  N   UNL     1       4.516   5.431  17.130  0.00  0.00    +0.000 NA
ATOM      4  H   UNL     1       7.243   3.765  17.176  0.00  0.00    +0.000 HD
ENDROOT
BRANCH   1   9
ATOM      5  F   UNL     1       7.001   4.310  11.160  0.00  0.00    +0.000 F 
ATOM      6  C   UNL     1       6.890   4.315  12.496  0.00  0.00    +0.000 A 
ATOM      7  C   UNL     1       5.946   3.488  13.092  0.00  0.00    +0.000 A 
ATOM      8  C   UNL     1       5.819   3.475  14.485  0.00  0.00    +0.000 A 
ATOM      9  C   UNL     1       6.612   4.303  15.292  0.00  0.00    +0.000 A 
ATOM     10  C   UNL     1       7.562   5.126  14.668  0.00  0.00    +0.000 A 
ATOM     11  C   UNL     1       7.702   5.129  13.276  0.00  0.00    +0.000 A 
ATOM     12 CL   UNL     1       8.888   6.143  12.551  0.00  0.00    +0.000 Cl
ENDBRANCH   1   9
BRANCH   3  13
ATOM     13  C   UNL     1       3.582   6.104  17.946  0.00  0.00    +0.000 A 
ATOM     14  C   UNL     1       3.431   7.499  17.804  0.00  0.00    +0.000 A 
ATOM     15  C   UNL     1       2.520   8.219  18.569  0.00  0.00    +0.000 A 
ATOM     16  C   UNL     1       1.685   7.545  19.448  0.00  0.00    +0.000 A 
ATOM     17  C   UNL     1       1.780   6.160  19.560  0.00  0.00    +0.000 A 
ATOM     18  C   UNL     1       2.724   5.385  18.840  0.00  0.00    +0.000 A 
BRANCH  18  19
ATOM     19  N   UNL     1       2.758   4.015  19.045  0.00  0.00    +0.000 N 
ATOM     20  C   UNL     1       3.271   3.398  20.283  0.00  0.00    +0.000 C 
ATOM     21  C   UNL     1       4.296   2.309  19.919  0.00  0.00    +0.000 C 
ATOM     22  O   UNL     1       3.746   1.333  19.020  0.00  0.00    +0.000 OA
ATOM     23  C   UNL     1       3.278   1.966  17.812  0.00  0.00    +0.000 C 
ATOM     24  C   UNL     1       2.202   3.017  18.117  0.00  0.00    +0.000 C 
ENDBRANCH  18  19
ENDBRANCH   3  13
BRANCH   2  25
ATOM     25  S   UNL     1       6.414   5.278  19.081  0.00  0.00    +0.000 S 
ATOM     26  H   UNL     1       7.614   5.645  18.597  0.00  0.00    +0.000 HD
ENDBRANCH   2  25
TORSDOF 4
ENDMDL
MODEL 4
REMARK VINA RESULT:      -6.8      1.358      2.014
REMARK  Name = 
REMARK  4 active torsions:
REMARK  status: ('A' for Active; 'I' for Inactive)
REMARK    1  A    between atoms: C_5  and  N_6
REMARK    2  A    between atoms: C_7  and  S_8
REMARK    3  A    between atoms: N_9  and  C_10
REMARK    4  A    between atoms: C_15  and  N_16
REMARK                            x       y       z     vdW  Elec       q    Type
REMARK                         _______ _______ _______ _____ _____    ______ ____
ROOT
ATOM      1  N   UNL     1       6.318   4.284  16.735  0.00  0.00    +0.000 N 
ATOM      2  C   UNL     1       5.518   5.094  17.496  0.00  0.00    +0.000 C 
ATOM      3  N   UNL     1       4.418   5.635  17.066  0.00  0.00    +0.000 NA
ATOM      4  H   UNL     1       6.934   3.672  17.251  0.00  0.00    +0.000 HD
ENDROOT
BRANCH   1   9
ATOM      5  F   UNL     1       7.080   4.248  11.233  0.00  0.00    +0.000 F 
ATOM      6  C   UNL     1       6.898   4.263  12.561  0.00  0.00    +0.000 A 
ATOM      7  C   UNL     1       5.906   3.460  13.109  0.00  0.00    +0.000 A 
ATOM      8  C   UNL     1       5.705   3.458  14.494  0.00  0.00    +0.000 A 
ATOM      9  C   UNL     1       6.469   4.275  15.338  0.00  0.00    +0.000 A 
ATOM     10  C   UNL     1       7.469   5.075  14.762  0.00  0.00    +0.000 A 
ATOM     11  C   UNL     1       7.684   5.066  13.380  0.00  0.00    +0.000 A 
ATOM     12 CL   UNL     1       8.928   6.051  12.714  0.00  0.00    +0.000 Cl
ENDBRANCH   1   9
BRANCH   3  13
ATOM     13  C   UNL     1       3.524   6.411  17.834  0.00  0.00    +0.000 A 
ATOM     14  C   UNL     1       3.473   7.804  17.623  0.00  0.00    +0.000 A 
ATOM     15  C   UNL     1       2.606   8.623  18.337  0.00  0.00    +0.000 A 
ATOM     16  C   UNL     1       1.714   8.053  19.235  0.00  0.00    +0.000 A 
ATOM     17  C   UNL     1       1.710   6.671  19.414  0.00  0.00    +0.000 A 
ATOM     18  C   UNL     1       2.606   5.798  18.747  0.00  0.00    +0.000 A 
BRANCH  18  19
ATOM     19  N   UNL     1       2.541   4.440  19.019  0.00  0.00    +0.000 N 
ATOM     20  C   UNL     1       1.998   3.453  18.067  0.00  0.00    +0.000 C 
ATOM     21  C   UNL     1       0.956   2.578  18.785  0.00  0.00    +0.000 C 
ATOM     22  O   UNL     1       1.497   1.951  19.959  0.00  0.00    +0.000 OA
ATOM     23  C   UNL     1       1.996   2.945  20.878  0.00  0.00    +0.000 C 
ATOM     24  C   UNL     1       3.089   3.804  20.227  0.00  0.00    +0.000 C 
ENDBRANCH  18  19
ENDBRANCH   3  13
BRANCH   2  25
ATOM     25  S   UNL     1       6.179   5.271  19.115  0.00  0.00    +0.000 S 
ATOM     26  H   UNL     1       7.080   6.206  18.767  0.00  0.00    +0.000 HD
ENDBRANCH   2  25
TORSDOF 4
ENDMDL
MODEL 5
REMARK VINA RESULT:      -6.6      5.048      7.771
REMARK  Name = 
REMARK  4 active torsions:
REMARK  status: ('A' for Active; 'I' for Inactive)
REMARK    1  A    between atoms: C_5  and  N_6
REMARK    2  A    between atoms: C_7  and  S_8
REMARK    3  A    between atoms: N_9  and  C_10
REMARK    4  A    between atoms: C_15  and  N_16
REMARK                            x       y       z     vdW  Elec       q    Type
REMARK                         _______ _______ _______ _____ _____    ______ ____
ROOT
ATOM      1  N   UNL     1       1.888   6.977  21.056  0.00  0.00    +0.000 N 
ATOM      2  C   UNL     1       2.243   5.913  20.269  0.00  0.00    +0.000 C 
ATOM      3  N   UNL     1       2.631   6.024  19.035  0.00  0.00    +0.000 NA
ATOM      4  H   UNL     1       1.933   6.815  22.052  0.00  0.00    +0.000 HD
ENDROOT
BRANCH   1   9
ATOM      5  F   UNL     1      -0.124  11.951  19.617  0.00  0.00    +0.000 F 
ATOM      6  C   UNL     1       0.356  10.749  19.968  0.00  0.00    +0.000 A 
ATOM      7  C   UNL     1       1.061  10.009  19.028  0.00  0.00    +0.000 A 
ATOM      8  C   UNL     1       1.575   8.755  19.377  0.00  0.00    +0.000 A 
ATOM      9  C   UNL     1       1.367   8.218  20.656  0.00  0.00    +0.000 A 
ATOM     10  C   UNL     1       0.656   8.987  21.591  0.00  0.00    +0.000 A 
ATOM     11  C   UNL     1       0.156  10.247  21.250  0.00  0.00    +0.000 A 
ATOM     12 CL   UNL     1      -0.699  11.163  22.429  0.00  0.00    +0.000 Cl
ENDBRANCH   1   9
BRANCH   3  13
ATOM     13  C   UNL     1       3.080   4.969  18.212  0.00  0.00    +0.000 A 
ATOM     14  C   UNL     1       2.140   4.042  17.717  0.00  0.00    +0.000 A 
ATOM     15  C   UNL     1       2.515   2.987  16.892  0.00  0.00    +0.000 A 
ATOM     16  C   UNL     1       3.838   2.877  16.485  0.00  0.00    +0.000 A 
ATOM     17  C   UNL     1       4.770   3.818  16.918  0.00  0.00    +0.000 A 
ATOM     18  C   UNL     1       4.448   4.883  17.798  0.00  0.00    +0.000 A 
BRANCH  18  19
ATOM     19  N   UNL     1       5.456   5.748  18.194  0.00  0.00    +0.000 N 
ATOM     20  C   UNL     1       5.774   6.997  17.478  0.00  0.00    +0.000 C 
ATOM     21  C   UNL     1       7.285   7.046  17.191  0.00  0.00    +0.000 C 
ATOM     22  O   UNL     1       8.065   6.900  18.389  0.00  0.00    +0.000 OA
ATOM     23  C   UNL     1       7.747   5.658  19.050  0.00  0.00    +0.000 C 
ATOM     24  C   UNL     1       6.258   5.590  19.418  0.00  0.00    +0.000 C 
ENDBRANCH  18  19
ENDBRANCH   3  13
BRANCH   2  25
ATOM     25  S   UNL     1       2.118   4.409  21.170  0.00  0.00    +0.000 S 
ATOM     26  H   UNL     1       0.844   4.169  20.812  0.00  0.00    +0.000 HD
ENDBRANCH   2  25
TORSDOF 4
ENDMDL
MODEL 6
REMARK VINA RESULT:      -6.4      4.661      7.431
REMARK  Name = 
REMARK  4 active torsions:
REMARK  status: ('A' for Active; 'I' for Inactive)
REMARK    1  A    between atoms: C_5  and  N_6
REMARK    2  A    between atoms: C_7  and  S_8
REMARK    3  A    between atoms: N_9  and  C_10
REMARK    4  A    between atoms: C_15  and  N_16
REMARK                            x       y       z     vdW  Elec       q    Type
REMARK                         _______ _______ _______ _____ _____    ______ ____
ROOT
ATOM      1  N   UNL     1       2.013   7.313  20.706  0.00  0.00    +0.000 N 
ATOM      2  C   UNL     1       2.223   6.052  20.212  0.00  0.00    +0.000 C 
ATOM      3  N   UNL     1       2.419   5.791  18.955  0.00  0.00    +0.000 NA
ATOM      4  H   UNL     1       2.207   7.432  21.690  0.00  0.00    +0.000 HD
ENDROOT
BRANCH   1   9
ATOM      5  F   UNL     1      -0.153  11.794  18.239  0.00  0.00    +0.000 F 
ATOM      6  C   UNL     1       0.363  10.711  18.838  0.00  0.00    +0.000 A 
ATOM      7  C   UNL     1       1.265   9.924  18.134  0.00  0.00    +0.000 A 
ATOM      8  C   UNL     1       1.820   8.793  18.744  0.00  0.00    +0.000 A 
ATOM      9  C   UNL     1       1.460   8.423  20.047  0.00  0.00    +0.000 A 
ATOM     10  C   UNL     1       0.551   9.237  20.741  0.00  0.00    +0.000 A 
ATOM     11  C   UNL     1       0.007  10.377  20.140  0.00  0.00    +0.000 A 
ATOM     12 CL   UNL     1      -1.094  11.355  21.029  0.00  0.00    +0.000 Cl
ENDBRANCH   1   9
BRANCH   3  13
ATOM     13  C   UNL     1       2.716   4.524  18.411  0.00  0.00    +0.000 A 
ATOM     14  C   UNL     1       1.697   3.550  18.351  0.00  0.00    +0.000 A 
ATOM     15  C   UNL     1       1.922   2.286  17.816  0.00  0.00    +0.000 A 
ATOM     16  C   UNL     1       3.159   1.991  17.262  0.00  0.00    +0.000 A 
ATOM     17  C   UNL     1       4.160   2.960  17.259  0.00  0.00    +0.000 A 
ATOM     18  C   UNL     1       3.998   4.246  17.836  0.00  0.00    +0.000 A 
BRANCH  18  19
ATOM     19  N   UNL     1       5.066   5.128  17.809  0.00  0.00    +0.000 N 
ATOM     20  C   UNL     1       5.318   6.056  16.691  0.00  0.00    +0.000 C 
ATOM     21  C   UNL     1       6.781   5.916  16.235  0.00  0.00    +0.000 C 
ATOM     22  O   UNL     1       7.703   6.117  17.318  0.00  0.00    +0.000 OA
ATOM     23  C   UNL     1       7.445   5.177  18.382  0.00  0.00    +0.000 C 
ATOM     24  C   UNL     1       6.014   5.325  18.917  0.00  0.00    +0.000 C 
ENDBRANCH  18  19
ENDBRANCH   3  13
BRANCH   2  25
ATOM     25  S   UNL     1       2.209   4.869  21.512  0.00  0.00    +0.000 S 
ATOM     26  H   UNL     1       0.893   4.989  21.759  0.00  0.00    +0.000 HD
ENDBRANCH   2  25
TORSDOF 4
ENDMDL
MODEL 7
REMARK VINA RESULT:      -6.4      4.548      7.469
REMARK  Name = 
REMARK  4 active torsions:
REMARK  status: ('A' for Active; 'I' for Inactive)
REMARK    1  A    between atoms: C_5  and  N_6
REMARK    2  A    between atoms: C_7  and  S_8
REMARK    3  A    between atoms: N_9  and  C_10
REMARK    4  A    between atoms: C_15  and  N_16
REMARK                            x       y       z     vdW  Elec       q    Type
REMARK                         _______ _______ _______ _____ _____    ______ ____
ROOT
ATOM      1  N   UNL     1       1.814   6.675  21.242  0.00  0.00    +0.000 N 
ATOM      2  C   UNL     1       2.185   5.618  20.454  0.00  0.00    +0.000 C 
ATOM      3  N   UNL     1       2.561   5.734  19.217  0.00  0.00    +0.000 NA
ATOM      4  H   UNL     1       1.870   6.516  22.238  0.00  0.00    +0.000 HD
ENDROOT
BRANCH   1   9
ATOM      5  F   UNL     1      -0.359  11.484  19.509  0.00  0.00    +0.000 F 
ATOM      6  C   UNL     1       0.171  10.326  19.925  0.00  0.00    +0.000 A 
ATOM      7  C   UNL     1      -0.347   9.723  21.063  0.00  0.00    +0.000 A 
ATOM      8  C   UNL     1       0.189   8.510  21.510  0.00  0.00    +0.000 A 
ATOM      9  C   UNL     1       1.263   7.904  20.843  0.00  0.00    +0.000 A 
ATOM     10  C   UNL     1       1.768   8.530  19.692  0.00  0.00    +0.000 A 
ATOM     11  C   UNL     1       1.222   9.733  19.233  0.00  0.00    +0.000 A 
ATOM     12 CL   UNL     1       1.861  10.460  17.811  0.00  0.00    +0.000 Cl
ENDBRANCH   1   9
BRANCH   3  13
ATOM     13  C   UNL     1       3.025   4.687  18.392  0.00  0.00    +0.000 A 
ATOM     14  C   UNL     1       2.114   3.699  17.963  0.00  0.00    +0.000 A 
ATOM     15  C   UNL     1       2.505   2.649  17.141  0.00  0.00    +0.000 A 
ATOM     16  C   UNL     1       3.809   2.602  16.668  0.00  0.00    +0.000 A 
ATOM     17  C   UNL     1       4.708   3.602  17.034  0.00  0.00    +0.000 A 
ATOM     18  C   UNL     1       4.373   4.666  17.909  0.00  0.00    +0.000 A 
BRANCH  18  19
ATOM     19  N   UNL     1       5.350   5.593  18.236  0.00  0.00    +0.000 N 
ATOM     20  C   UNL     1       5.551   6.850  17.491  0.00  0.00    +0.000 C 
ATOM     21  C   UNL     1       7.036   6.984  17.113  0.00  0.00    +0.000 C 
ATOM     22  O   UNL     1       7.893   6.899  18.262  0.00  0.00    +0.000 OA
ATOM     23  C   UNL     1       7.690   5.648  18.952  0.00  0.00    +0.000 C 
ATOM     24  C   UNL     1       6.232   5.497  19.410  0.00  0.00    +0.000 C 
ENDBRANCH  18  19
ENDBRANCH   3  13
BRANCH   2  25
ATOM     25  S   UNL     1       2.098   4.113  21.359  0.00  0.00    +0.000 S 
ATOM     26  H   UNL     1       3.431   3.947  21.428  0.00  0.00    +0.000 HD
ENDBRANCH   2  25
TORSDOF 4
ENDMDL
MODEL 8
REMARK VINA RESULT:      -6.2     10.149     12.854
REMARK  Name = 
REMARK  4 active torsions:
REMARK  status: ('A' for Active; 'I' for Inactive)
REMARK    1  A    between atoms: C_5  and  N_6
REMARK    2  A    between atoms: C_7  and  S_8
REMARK    3  A    between atoms: N_9  and  C_10
REMARK    4  A    between atoms: C_15  and  N_16
REMARK                            x       y       z     vdW  Elec       q    Type
REMARK                         _______ _______ _______ _____ _____    ______ ____
ROOT
ATOM      1  N   UNL     1      -2.558  13.404  20.059  0.00  0.00    +0.000 N 
ATOM      2  C   UNL     1      -3.699  13.582  20.795  0.00  0.00    +0.000 C 
ATOM      3  N   UNL     1      -4.396  12.608  21.297  0.00  0.00    +0.000 NA
ATOM      4  H   UNL     1      -1.940  14.202  20.015  0.00  0.00    +0.000 HD
ENDROOT
BRANCH   1   9
ATOM      5  F   UNL     1      -1.158   9.120  16.813  0.00  0.00    +0.000 F 
ATOM      6  C   UNL     1      -1.503  10.152  17.596  0.00  0.00    +0.000 A 
ATOM      7  C   UNL     1      -0.692  10.472  18.677  0.00  0.00    +0.000 A 
ATOM      8  C   UNL     1      -1.032  11.550  19.502  0.00  0.00    +0.000 A 
ATOM      9  C   UNL     1      -2.194  12.299  19.272  0.00  0.00    +0.000 A 
ATOM     10  C   UNL     1      -2.995  11.961  18.170  0.00  0.00    +0.000 A 
ATOM     11  C   UNL     1      -2.649  10.894  17.334  0.00  0.00    +0.000 A 
ATOM     12 CL   UNL     1      -3.651  10.520  15.986  0.00  0.00    +0.000 Cl
ENDBRANCH   1   9
BRANCH   3  13
ATOM     13  C   UNL     1      -5.530  12.744  22.125  0.00  0.00    +0.000 A 
ATOM     14  C   UNL     1      -5.346  13.013  23.498  0.00  0.00    +0.000 A 
ATOM     15  C   UNL     1      -6.421  13.169  24.365  0.00  0.00    +0.000 A 
ATOM     16  C   UNL     1      -7.714  13.129  23.861  0.00  0.00    +0.000 A 
ATOM     17  C   UNL     1      -7.914  12.922  22.498  0.00  0.00    +0.000 A 
ATOM     18  C   UNL     1      -6.854  12.708  21.581  0.00  0.00    +0.000 A 
BRANCH  18  19
ATOM     19  N   UNL     1      -7.161  12.479  20.249  0.00  0.00    +0.000 N 
ATOM     20  C   UNL     1      -7.383  11.132  19.692  0.00  0.00    +0.000 C 
ATOM     21  C   UNL     1      -6.516  10.954  18.433  0.00  0.00    +0.000 C 
ATOM     22  O   UNL     1      -6.762  11.984  17.462  0.00  0.00    +0.000 OA
ATOM     23  C   UNL     1      -6.511  13.285  18.032  0.00  0.00    +0.000 C 
ATOM     24  C   UNL     1      -7.403  13.537  19.255  0.00  0.00    +0.000 C 
ENDBRANCH  18  19
ENDBRANCH   3  13
BRANCH   2  25
ATOM     25  S   UNL     1      -4.060  15.294  20.973  0.00  0.00    +0.000 S 
ATOM     26  H   UNL     1      -5.383  15.150  20.779  0.00  0.00    +0.000 HD
ENDBRANCH   2  25
TORSDOF 4
ENDMDL
MODEL 9
REMARK VINA RESULT:      -6.1     10.390     11.885
REMARK  Name = 
REMARK  4 active torsions:
REMARK  status: ('A' for Active; 'I' for Inactive)
REMARK    1  A    between atoms: C_5  and  N_6
REMARK    2  A    between atoms: C_7  and  S_8
REMARK    3  A    between atoms: N_9  and  C_10
REMARK    4  A    between atoms: C_15  and  N_16
REMARK                            x       y       z     vdW  Elec       q    Type
REMARK                         _______ _______ _______ _____ _____    ______ ____
ROOT
ATOM      1  N   UNL     1       7.088  15.538  18.289  0.00  0.00    +0.000 N 
ATOM      2  C   UNL     1       8.282  14.909  18.525  0.00  0.00    +0.000 C 
ATOM      3  N   UNL     1       8.399  13.633  18.734  0.00  0.00    +0.000 NA
ATOM      4  H   UNL     1       7.152  16.430  17.820  0.00  0.00    +0.000 HD
ENDROOT
BRANCH   1   9
ATOM      5  F   UNL     1       2.016  14.141  20.070  0.00  0.00    +0.000 F 
ATOM      6  C   UNL     1       3.243  14.475  19.646  0.00  0.00    +0.000 A 
ATOM      7  C   UNL     1       3.501  14.477  18.281  0.00  0.00    +0.000 A 
ATOM      8  C   UNL     1       4.774  14.829  17.818  0.00  0.00    +0.000 A 
ATOM      9  C   UNL     1       5.805  15.153  18.712  0.00  0.00    +0.000 A 
ATOM     10  C   UNL     1       5.519  15.150  20.086  0.00  0.00    +0.000 A 
ATOM     11  C   UNL     1       4.243  14.815  20.550  0.00  0.00    +0.000 A 
ATOM     12 CL   UNL     1       3.929  14.835  22.242  0.00  0.00    +0.000 Cl
ENDBRANCH   1   9
BRANCH   3  13
ATOM     13  C   UNL     1       9.611  12.930  18.903  0.00  0.00    +0.000 A 
ATOM     14  C   UNL     1      10.302  12.474  17.761  0.00  0.00    +0.000 A 
ATOM     15  C   UNL     1      11.506  11.786  17.858  0.00  0.00    +0.000 A 
ATOM     16  C   UNL     1      12.085  11.600  19.105  0.00  0.00    +0.000 A 
ATOM     17  C   UNL     1      11.447  12.095  20.240  0.00  0.00    +0.000 A 
ATOM     18  C   UNL     1      10.194  12.759  20.200  0.00  0.00    +0.000 A 
BRANCH  18  19
ATOM     19  N   UNL     1       9.627  13.186  21.390  0.00  0.00    +0.000 N 
ATOM     20  C   UNL     1       8.790  12.320  22.241  0.00  0.00    +0.000 C 
ATOM     21  C   UNL     1       7.477  13.052  22.572  0.00  0.00    +0.000 C 
ATOM     22  O   UNL     1       7.715  14.333  23.179  0.00  0.00    +0.000 OA
ATOM     23  C   UNL     1       8.514  15.162  22.310  0.00  0.00    +0.000 C 
ATOM     24  C   UNL     1       9.866  14.503  22.003  0.00  0.00    +0.000 C 
ENDBRANCH  18  19
ENDBRANCH   3  13
BRANCH   2  25
ATOM     25  S   UNL     1       9.608  16.063  18.481  0.00  0.00    +0.000 S 
ATOM     26  H   UNL     1       8.848  17.091  18.063  0.00  0.00    +0.000 HD
ENDBRANCH   2  25
TORSDOF 4
ENDMDL
