MODEL 1
REMARK VINA RESULT:      -8.2      0.000      0.000
REMARK  Name = 
REMARK  4 active torsions:
REMARK  status: ('A' for Active; 'I' for Inactive)
REMARK    1  A    between atoms: C_5  and  C_6
REMARK    2  A    between atoms: C_9  and  C_10
REMARK    3  A    between atoms: C_10  and  N_11
REMARK    4  A    between atoms: N_11  and  C_12
REMARK                            x       y       z     vdW  Elec       q    Type
REMARK                         _______ _______ _______ _____ _____    ______ ____
ROOT
ATOM      1  C   UNL     1       8.590   9.207  18.378  0.00  0.00    +0.000 A 
ATOM      2  C   UNL     1       7.681   8.983  17.368  0.00  0.00    +0.000 A 
ATOM      3  N   UNL     1       7.269   7.677  17.375  0.00  0.00    +0.000 NA
ATOM      4  C   UNL     1       7.940   7.142  18.376  0.00  0.00    +0.000 A 
ATOM      5  O   UNL     1       8.771   8.013  19.029  0.00  0.00    +0.000 OA
ENDROOT
BRANCH   1  10
ATOM      6  F   UNL     1      11.551  13.497  20.409  0.00  0.00    +0.000 F 
ATOM      7  C   UNL     1      10.808  12.498  19.914  0.00  0.00    +0.000 A 
ATOM      8  C   UNL     1      10.057  11.712  20.777  0.00  0.00    +0.000 A 
ATOM      9  C   UNL     1       9.305  10.653  20.265  0.00  0.00    +0.000 A 
ATOM     10  C   UNL     1       9.307  10.367  18.888  0.00  0.00    +0.000 A 
ATOM     11  C   UNL     1      10.052  11.198  18.035  0.00  0.00    +0.000 A 
ATOM     12  C   UNL     1      10.804  12.258  18.547  0.00  0.00    +0.000 A 
ENDBRANCH   1  10
BRANCH   4  13
ATOM     13  C   UNL     1       7.918   5.729  18.871  0.00  0.00    +0.000 C 
BRANCH  13  14
ATOM     14  N   UNL     1       6.642   5.422  19.537  0.00  0.00    +0.000 NA
ATOM     15  H   UNL     1       6.225   6.300  19.848  0.00  0.00    +0.000 HD
BRANCH  14  16
ATOM     16  C   UNL     1       5.693   4.668  18.712  0.00  0.00    +0.000 C 
ATOM     17  C   UNL     1       4.729   5.682  18.054  0.00  0.00    +0.000 C 
ATOM     18  C   UNL     1       3.787   4.987  17.065  0.00  0.00    +0.000 C 
ATOM     19  C   UNL     1       3.195   3.759  17.649  0.00  0.00    +0.000 A 
ATOM     20  N   UNL     1       2.144   3.079  17.258  0.00  0.00    +0.000 NA
ATOM     21  C   UNL     1       2.095   2.044  18.159  0.00  0.00    +0.000 A 
ATOM     22  N   UNL     1       3.066   2.039  19.078  0.00  0.00    +0.000 NA
ATOM     23  N   UNL     1       3.747   3.140  18.734  0.00  0.00    +0.000 N 
ATOM     24  C   UNL     1       4.874   3.622  19.502  0.00  0.00    +0.000 C 
ENDBRANCH  14  16
ENDBRANCH  13  14
ENDBRANCH   4  13
TORSDOF 4
ENDMDL
MODEL 2
REMARK VINA RESULT:      -7.9      1.199      1.724
REMARK  Name = 
REMARK  4 active torsions:
REMARK  status: ('A' for Active; 'I' for Inactive)
REMARK    1  A    between atoms: C_5  and  C_6
REMARK    2  A    between atoms: C_9  and  C_10
REMARK    3  A    between atoms: C_10  and  N_11
REMARK    4  A    between atoms: N_11  and  C_12
REMARK                            x       y       z     vdW  Elec       q    Type
REMARK                         _______ _______ _______ _____ _____    ______ ____
ROOT
ATOM      1  C   UNL     1       8.562   9.255  18.343  0.00  0.00    +0.000 A 
ATOM      2  C   UNL     1       7.595   9.151  17.368  0.00  0.00    +0.000 A 
ATOM      3  N   UNL     1       7.103   7.874  17.315  0.00  0.00    +0.000 NA
ATOM      4  C   UNL     1       7.786   7.236  18.246  0.00  0.00    +0.000 A 
ATOM      5  O   UNL     1       8.699   8.013  18.908  0.00  0.00    +0.000 OA
ENDROOT
BRANCH   1  10
ATOM      6  F   UNL     1      11.482  13.581  20.357  0.00  0.00    +0.000 F 
ATOM      7  C   UNL     1      10.817  12.518  19.886  0.00  0.00    +0.000 A 
ATOM      8  C   UNL     1      10.872  12.223  18.530  0.00  0.00    +0.000 A 
ATOM      9  C   UNL     1      10.157  11.132  18.034  0.00  0.00    +0.000 A 
ATOM     10  C   UNL     1       9.373  10.335  18.887  0.00  0.00    +0.000 A 
ATOM     11  C   UNL     1       9.359  10.639  20.258  0.00  0.00    +0.000 A 
ATOM     12  C   UNL     1      10.076  11.731  20.756  0.00  0.00    +0.000 A 
ENDBRANCH   1  10
BRANCH   4  13
ATOM     13  C   UNL     1       7.700   5.798  18.652  0.00  0.00    +0.000 C 
BRANCH  13  14
ATOM     14  N   UNL     1       6.940   5.014  17.665  0.00  0.00    +0.000 NA
ATOM     15  H   UNL     1       7.561   4.305  17.273  0.00  0.00    +0.000 HD
BRANCH  14  16
ATOM     16  C   UNL     1       5.721   4.391  18.193  0.00  0.00    +0.000 C 
ATOM     17  C   UNL     1       4.855   3.953  16.990  0.00  0.00    +0.000 C 
ATOM     18  C   UNL     1       3.623   3.168  17.454  0.00  0.00    +0.000 C 
ATOM     19  C   UNL     1       2.937   3.849  18.579  0.00  0.00    +0.000 A 
ATOM     20  N   UNL     1       1.721   3.673  19.037  0.00  0.00    +0.000 NA
ATOM     21  C   UNL     1       1.657   4.555  20.087  0.00  0.00    +0.000 A 
ATOM     22  N   UNL     1       2.772   5.257  20.313  0.00  0.00    +0.000 NA
ATOM     23  N   UNL     1       3.566   4.793  19.340  0.00  0.00    +0.000 N 
ATOM     24  C   UNL     1       4.893   5.321  19.108  0.00  0.00    +0.000 C 
ENDBRANCH  14  16
ENDBRANCH  13  14
ENDBRANCH   4  13
TORSDOF 4
ENDMDL
MODEL 3
REMARK VINA RESULT:      -7.9      3.881      7.003
REMARK  Name = 
REMARK  4 active torsions:
REMARK  status: ('A' for Active; 'I' for Inactive)
REMARK    1  A    between atoms: C_5  and  C_6
REMARK    2  A    between atoms: C_9  and  C_10
REMARK    3  A    between atoms: C_10  and  N_11
REMARK    4  A    between atoms: N_11  and  C_12
REMARK                            x       y       z     vdW  Elec       q    Type
REMARK                         _______ _______ _______ _____ _____    ______ ____
ROOT
ATOM      1  C   UNL     1       2.313   5.663  19.759  0.00  0.00    +0.000 A 
ATOM      2  C   UNL     1       2.455   4.833  20.849  0.00  0.00    +0.000 A 
ATOM      3  N   UNL     1       2.830   3.578  20.451  0.00  0.00    +0.000 NA
ATOM      4  C   UNL     1       2.897   3.674  19.137  0.00  0.00    +0.000 A 
ATOM      5  O   UNL     1       2.586   4.913  18.644  0.00  0.00    +0.000 OA
ENDROOT
BRANCH   1  10
ATOM      6  F   UNL     1       0.886  11.001  18.879  0.00  0.00    +0.000 F 
ATOM      7  C   UNL     1       1.266   9.737  19.108  0.00  0.00    +0.000 A 
ATOM      8  C   UNL     1       1.891   9.016  18.098  0.00  0.00    +0.000 A 
ATOM      9  C   UNL     1       2.262   7.690  18.328  0.00  0.00    +0.000 A 
ATOM     10  C   UNL     1       2.002   7.072  19.564  0.00  0.00    +0.000 A 
ATOM     11  C   UNL     1       1.395   7.833  20.576  0.00  0.00    +0.000 A 
ATOM     12  C   UNL     1       1.025   9.161  20.347  0.00  0.00    +0.000 A 
ENDBRANCH   1  10
BRANCH   4  13
ATOM     13  C   UNL     1       3.248   2.617  18.137  0.00  0.00    +0.000 C 
BRANCH  13  14
ATOM     14  N   UNL     1       4.564   2.878  17.531  0.00  0.00    +0.000 NA
ATOM     15  H   UNL     1       4.545   2.538  16.568  0.00  0.00    +0.000 HD
BRANCH  14  16
ATOM     16  C   UNL     1       4.981   4.284  17.569  0.00  0.00    +0.000 C 
ATOM     17  C   UNL     1       5.086   4.785  16.110  0.00  0.00    +0.000 C 
ATOM     18  C   UNL     1       5.385   6.287  16.063  0.00  0.00    +0.000 C 
ATOM     19  C   UNL     1       6.481   6.652  16.993  0.00  0.00    +0.000 A 
ATOM     20  N   UNL     1       7.218   7.737  17.022  0.00  0.00    +0.000 NA
ATOM     21  C   UNL     1       8.039   7.523  18.100  0.00  0.00    +0.000 A 
ATOM     22  N   UNL     1       7.842   6.372  18.750  0.00  0.00    +0.000 NA
ATOM     23  N   UNL     1       6.852   5.836  18.025  0.00  0.00    +0.000 N 
ATOM     24  C   UNL     1       6.329   4.514  18.288  0.00  0.00    +0.000 C 
ENDBRANCH  14  16
ENDBRANCH  13  14
ENDBRANCH   4  13
TORSDOF 4
ENDMDL
MODEL 4
REMARK VINA RESULT:      -7.9      4.191      9.455
REMARK  Name = 
REMARK  4 active torsions:
REMARK  status: ('A' for Active; 'I' for Inactive)
REMARK    1  A    between atoms: C_5  and  C_6
REMARK    2  A    between atoms: C_9  and  C_10
REMARK    3  A    between atoms: C_10  and  N_11
REMARK    4  A    between atoms: N_11  and  C_12
REMARK                            x       y       z     vdW  Elec       q    Type
REMARK                         _______ _______ _______ _____ _____    ______ ____
ROOT
ATOM      1  C   UNL     1       5.659   5.735  16.974  0.00  0.00    +0.000 A 
ATOM      2  C   UNL     1       6.597   5.654  15.970  0.00  0.00    +0.000 A 
ATOM      3  N   UNL     1       7.671   6.456  16.250  0.00  0.00    +0.000 NA
ATOM      4  C   UNL     1       7.356   7.009  17.405  0.00  0.00    +0.000 A 
ATOM      5  O   UNL     1       6.140   6.623  17.903  0.00  0.00    +0.000 OA
ENDROOT
BRANCH   1  10
ATOM      6  F   UNL     1       0.857   3.189  18.299  0.00  0.00    +0.000 F 
ATOM      7  C   UNL     1       1.990   3.808  17.941  0.00  0.00    +0.000 A 
ATOM      8  C   UNL     1       3.050   3.061  17.445  0.00  0.00    +0.000 A 
ATOM      9  C   UNL     1       4.241   3.703  17.098  0.00  0.00    +0.000 A 
ATOM     10  C   UNL     1       4.383   5.092  17.255  0.00  0.00    +0.000 A 
ATOM     11  C   UNL     1       3.285   5.827  17.732  0.00  0.00    +0.000 A 
ATOM     12  C   UNL     1       2.093   5.185  18.078  0.00  0.00    +0.000 A 
ENDBRANCH   1  10
BRANCH   4  13
ATOM     13  C   UNL     1       8.138   7.994  18.217  0.00  0.00    +0.000 C 
BRANCH  13  14
ATOM     14  N   UNL     1       7.860   9.373  17.786  0.00  0.00    +0.000 NA
ATOM     15  H   UNL     1       6.985   9.673  18.219  0.00  0.00    +0.000 HD
BRANCH  14  16
ATOM     16  C   UNL     1       8.931  10.330  18.084  0.00  0.00    +0.000 C 
ATOM     17  C   UNL     1       9.224  10.255  19.600  0.00  0.00    +0.000 C 
ATOM     18  C   UNL     1      10.427  11.127  19.974  0.00  0.00    +0.000 C 
ATOM     19  C   UNL     1      10.334  12.474  19.360  0.00  0.00    +0.000 A 
ATOM     20  N   UNL     1      10.977  13.574  19.673  0.00  0.00    +0.000 NA
ATOM     21  C   UNL     1      10.501  14.479  18.757  0.00  0.00    +0.000 A 
ATOM     22  N   UNL     1       9.609  13.996  17.886  0.00  0.00    +0.000 NA
ATOM     23  N   UNL     1       9.518  12.724  18.293  0.00  0.00    +0.000 N 
ATOM     24  C   UNL     1       8.590  11.787  17.699  0.00  0.00    +0.000 C 
ENDBRANCH  14  16
ENDBRANCH  13  14
ENDBRANCH   4  13
TORSDOF 4
ENDMDL
MODEL 5
REMARK VINA RESULT:      -7.9      4.206      9.446
REMARK  Name = 
REMARK  4 active torsions:
REMARK  status: ('A' for Active; 'I' for Inactive)
REMARK    1  A    between atoms: C_5  and  C_6
REMARK    2  A    between atoms: C_9  and  C_10
REMARK    3  A    between atoms: C_10  and  N_11
REMARK    4  A    between atoms: N_11  and  C_12
REMARK                            x       y       z     vdW  Elec       q    Type
REMARK                         _______ _______ _______ _____ _____    ______ ____
ROOT
ATOM      1  C   UNL     1       5.730   5.836  17.095  0.00  0.00    +0.000 A 
ATOM      2  C   UNL     1       6.654   5.741  16.078  0.00  0.00    +0.000 A 
ATOM      3  N   UNL     1       7.728   6.551  16.329  0.00  0.00    +0.000 NA
ATOM      4  C   UNL     1       7.428   7.123  17.479  0.00  0.00    +0.000 A 
ATOM      5  O   UNL     1       6.221   6.742  18.001  0.00  0.00    +0.000 OA
ENDROOT
BRANCH   1  10
ATOM      6  F   UNL     1       0.745   3.495  18.076  0.00  0.00    +0.000 F 
ATOM      7  C   UNL     1       1.954   4.036  17.878  0.00  0.00    +0.000 A 
ATOM      8  C   UNL     1       2.212   5.321  18.336  0.00  0.00    +0.000 A 
ATOM      9  C   UNL     1       3.464   5.895  18.105  0.00  0.00    +0.000 A 
ATOM     10  C   UNL     1       4.461   5.193  17.406  0.00  0.00    +0.000 A 
ATOM     11  C   UNL     1       4.183   3.884  16.981  0.00  0.00    +0.000 A 
ATOM     12  C   UNL     1       2.931   3.309  17.212  0.00  0.00    +0.000 A 
ENDBRANCH   1  10
BRANCH   4  13
ATOM     13  C   UNL     1       8.218   8.126  18.262  0.00  0.00    +0.000 C 
BRANCH  13  14
ATOM     14  N   UNL     1       7.959   9.493  17.783  0.00  0.00    +0.000 NA
ATOM     15  H   UNL     1       7.060   9.798  18.157  0.00  0.00    +0.000 HD
BRANCH  14  16
ATOM     16  C   UNL     1       9.008  10.462  18.119  0.00  0.00    +0.000 C 
ATOM     17  C   UNL     1       9.302  10.335  19.632  0.00  0.00    +0.000 C 
ATOM     18  C   UNL     1      10.484  11.219  20.041  0.00  0.00    +0.000 C 
ATOM     19  C   UNL     1      10.360  12.587  19.480  0.00  0.00    +0.000 A 
ATOM     20  N   UNL     1      10.976  13.688  19.836  0.00  0.00    +0.000 NA
ATOM     21  C   UNL     1      10.479  14.617  18.957  0.00  0.00    +0.000 A 
ATOM     22  N   UNL     1       9.599  14.148  18.066  0.00  0.00    +0.000 NA
ATOM     23  N   UNL     1       9.538  12.859  18.423  0.00  0.00    +0.000 N 
ATOM     24  C   UNL     1       8.633  11.925  17.792  0.00  0.00    +0.000 C 
ENDBRANCH  14  16
ENDBRANCH  13  14
ENDBRANCH   4  13
TORSDOF 4
ENDMDL
MODEL 6
REMARK VINA RESULT:      -7.8      5.738      8.002
REMARK  Name = 
REMARK  4 active torsions:
REMARK  status: ('A' for Active; 'I' for Inactive)
REMARK    1  A    between atoms: C_5  and  C_6
REMARK    2  A    between atoms: C_9  and  C_10
REMARK    3  A    between atoms: C_10  and  N_11
REMARK    4  A    between atoms: N_11  and  C_12
REMARK                            x       y       z     vdW  Elec       q    Type
REMARK                         _______ _______ _______ _____ _____    ______ ____
ROOT
ATOM      1  C   UNL     1       4.249   4.067  18.697  0.00  0.00    +0.000 A 
ATOM      2  C   UNL     1       3.854   2.997  19.470  0.00  0.00    +0.000 A 
ATOM      3  N   UNL     1       2.902   3.385  20.375  0.00  0.00    +0.000 NA
ATOM      4  C   UNL     1       2.751   4.673  20.138  0.00  0.00    +0.000 A 
ATOM      5  O   UNL     1       3.545   5.160  19.134  0.00  0.00    +0.000 OA
ENDROOT
BRANCH   1  10
ATOM      6  F   UNL     1       7.623   5.040  14.343  0.00  0.00    +0.000 F 
ATOM      7  C   UNL     1       6.831   4.765  15.387  0.00  0.00    +0.000 A 
ATOM      8  C   UNL     1       5.517   4.374  15.165  0.00  0.00    +0.000 A 
ATOM      9  C   UNL     1       4.683   4.114  16.254  0.00  0.00    +0.000 A 
ATOM     10  C   UNL     1       5.153   4.254  17.572  0.00  0.00    +0.000 A 
ATOM     11  C   UNL     1       6.494   4.623  17.767  0.00  0.00    +0.000 A 
ATOM     12  C   UNL     1       7.330   4.882  16.677  0.00  0.00    +0.000 A 
ENDBRANCH   1  10
BRANCH   4  13
ATOM     13  C   UNL     1       1.849   5.653  20.822  0.00  0.00    +0.000 C 
BRANCH  13  14
ATOM     14  N   UNL     1       2.226   7.037  20.495  0.00  0.00    +0.000 NA
ATOM     15  H   UNL     1       2.593   7.051  19.542  0.00  0.00    +0.000 HD
BRANCH  14  16
ATOM     16  C   UNL     1       1.140   8.012  20.639  0.00  0.00    +0.000 C 
ATOM     17  C   UNL     1       1.290   9.057  19.509  0.00  0.00    +0.000 C 
ATOM     18  C   UNL     1       0.113  10.039  19.505  0.00  0.00    +0.000 C 
ATOM     19  C   UNL     1      -0.181  10.542  20.868  0.00  0.00    +0.000 A 
ATOM     20  N   UNL     1      -0.879  11.591  21.233  0.00  0.00    +0.000 NA
ATOM     21  C   UNL     1      -0.821  11.537  22.603  0.00  0.00    +0.000 A 
ATOM     22  N   UNL     1      -0.138  10.505  23.108  0.00  0.00    +0.000 NA
ATOM     23  N   UNL     1       0.261   9.892  21.986  0.00  0.00    +0.000 N 
ATOM     24  C   UNL     1       1.127   8.733  22.005  0.00  0.00    +0.000 C 
ENDBRANCH  14  16
ENDBRANCH  13  14
ENDBRANCH   4  13
TORSDOF 4
ENDMDL
MODEL 7
REMARK VINA RESULT:      -7.8      4.165      9.427
REMARK  Name = 
REMARK  4 active torsions:
REMARK  status: ('A' for Active; 'I' for Inactive)
REMARK    1  A    between atoms: C_5  and  C_6
REMARK    2  A    between atoms: C_9  and  C_10
REMARK    3  A    between atoms: C_10  and  N_11
REMARK    4  A    between atoms: N_11  and  C_12
REMARK                            x       y       z     vdW  Elec       q    Type
REMARK                         _______ _______ _______ _____ _____    ______ ____
ROOT
ATOM      1  C   UNL     1       6.009   5.294  17.354  0.00  0.00    +0.000 A 
ATOM      2  C   UNL     1       6.655   5.534  16.162  0.00  0.00    +0.000 A 
ATOM      3  N   UNL     1       7.588   6.525  16.312  0.00  0.00    +0.000 NA
ATOM      4  C   UNL     1       7.479   6.868  17.581  0.00  0.00    +0.000 A 
ATOM      5  O   UNL     1       6.531   6.165  18.277  0.00  0.00    +0.000 OA
ENDROOT
BRANCH   1  10
ATOM      6  F   UNL     1       1.995   1.883  19.238  0.00  0.00    +0.000 F 
ATOM      7  C   UNL     1       2.978   2.664  18.771  0.00  0.00    +0.000 A 
ATOM      8  C   UNL     1       4.009   3.046  19.619  0.00  0.00    +0.000 A 
ATOM      9  C   UNL     1       5.019   3.883  19.140  0.00  0.00    +0.000 A 
ATOM     10  C   UNL     1       4.999   4.352  17.815  0.00  0.00    +0.000 A 
ATOM     11  C   UNL     1       3.960   3.926  16.971  0.00  0.00    +0.000 A 
ATOM     12  C   UNL     1       2.949   3.088  17.450  0.00  0.00    +0.000 A 
ENDBRANCH   1  10
BRANCH   4  13
ATOM     13  C   UNL     1       8.236   7.914  18.338  0.00  0.00    +0.000 C 
BRANCH  13  14
ATOM     14  N   UNL     1       7.892   9.264  17.862  0.00  0.00    +0.000 NA
ATOM     15  H   UNL     1       7.009   9.539  18.293  0.00  0.00    +0.000 HD
BRANCH  14  16
ATOM     16  C   UNL     1       8.923  10.277  18.113  0.00  0.00    +0.000 C 
ATOM     17  C   UNL     1       9.280  10.224  19.617  0.00  0.00    +0.000 C 
ATOM     18  C   UNL     1      10.449  11.160  19.939  0.00  0.00    +0.000 C 
ATOM     19  C   UNL     1      10.260  12.498  19.327  0.00  0.00    +0.000 A 
ATOM     20  N   UNL     1      10.856  13.631  19.611  0.00  0.00    +0.000 NA
ATOM     21  C   UNL     1      10.296  14.506  18.714  0.00  0.00    +0.000 A 
ATOM     22  N   UNL     1       9.396  13.973  17.880  0.00  0.00    +0.000 NA
ATOM     23  N   UNL     1       9.389  12.700  18.294  0.00  0.00    +0.000 N 
ATOM     24  C   UNL     1       8.489  11.712  17.740  0.00  0.00    +0.000 C 
ENDBRANCH  14  16
ENDBRANCH  13  14
ENDBRANCH   4  13
TORSDOF 4
ENDMDL
MODEL 8
REMARK VINA RESULT:      -7.8      0.996      1.611
REMARK  Name = 
REMARK  4 active torsions:
REMARK  status: ('A' for Active; 'I' for Inactive)
REMARK    1  A    between atoms: C_5  and  C_6
REMARK    2  A    between atoms: C_9  and  C_10
REMARK    3  A    between atoms: C_10  and  N_11
REMARK    4  A    between atoms: N_11  and  C_12
REMARK                            x       y       z     vdW  Elec       q    Type
REMARK                         _______ _______ _______ _____ _____    ______ ____
ROOT
ATOM      1  C   UNL     1       8.568   9.282  18.328  0.00  0.00    +0.000 A 
ATOM      2  C   UNL     1       7.607   9.202  17.344  0.00  0.00    +0.000 A 
ATOM      3  N   UNL     1       7.116   7.927  17.255  0.00  0.00    +0.000 NA
ATOM      4  C   UNL     1       7.794   7.266  18.174  0.00  0.00    +0.000 A 
ATOM      5  O   UNL     1       8.702   8.025  18.862  0.00  0.00    +0.000 OA
ENDROOT
BRANCH   1  10
ATOM      6  F   UNL     1      11.472  13.556  20.471  0.00  0.00    +0.000 F 
ATOM      7  C   UNL     1      10.810  12.505  19.968  0.00  0.00    +0.000 A 
ATOM      8  C   UNL     1      10.879  12.241  18.607  0.00  0.00    +0.000 A 
ATOM      9  C   UNL     1      10.167  11.163  18.078  0.00  0.00    +0.000 A 
ATOM     10  C   UNL     1       9.374  10.348  18.905  0.00  0.00    +0.000 A 
ATOM     11  C   UNL     1       9.347  10.620  20.283  0.00  0.00    +0.000 A 
ATOM     12  C   UNL     1      10.060  11.699  20.812  0.00  0.00    +0.000 A 
ENDBRANCH   1  10
BRANCH   4  13
ATOM     13  C   UNL     1       7.705   5.817  18.542  0.00  0.00    +0.000 C 
BRANCH  13  14
ATOM     14  N   UNL     1       6.888   5.073  17.571  0.00  0.00    +0.000 NA
ATOM     15  H   UNL     1       7.205   4.102  17.565  0.00  0.00    +0.000 HD
BRANCH  14  16
ATOM     16  C   UNL     1       5.444   5.139  17.815  0.00  0.00    +0.000 C 
ATOM     17  C   UNL     1       5.225   5.181  19.345  0.00  0.00    +0.000 C 
ATOM     18  C   UNL     1       3.746   5.388  19.686  0.00  0.00    +0.000 C 
ATOM     19  C   UNL     1       2.874   4.487  18.894  0.00  0.00    +0.000 A 
ATOM     20  N   UNL     1       1.624   4.147  19.103  0.00  0.00    +0.000 NA
ATOM     21  C   UNL     1       1.349   3.318  18.044  0.00  0.00    +0.000 A 
ATOM     22  N   UNL     1       2.356   3.138  17.183  0.00  0.00    +0.000 NA
ATOM     23  N   UNL     1       3.311   3.886  17.747  0.00  0.00    +0.000 N 
ATOM     24  C   UNL     1       4.656   3.952  17.218  0.00  0.00    +0.000 C 
ENDBRANCH  14  16
ENDBRANCH  13  14
ENDBRANCH   4  13
TORSDOF 4
ENDMDL
MODEL 9
REMARK VINA RESULT:      -7.7      5.211      5.960
REMARK  Name = 
REMARK  4 active torsions:
REMARK  status: ('A' for Active; 'I' for Inactive)
REMARK    1  A    between atoms: C_5  and  C_6
REMARK    2  A    between atoms: C_9  and  C_10
REMARK    3  A    between atoms: C_10  and  N_11
REMARK    4  A    between atoms: N_11  and  C_12
REMARK                            x       y       z     vdW  Elec       q    Type
REMARK                         _______ _______ _______ _____ _____    ______ ____
ROOT
ATOM      1  C   UNL     1       3.746   7.135  17.648  0.00  0.00    +0.000 A 
ATOM      2  C   UNL     1       4.484   7.299  16.496  0.00  0.00    +0.000 A 
ATOM      3  N   UNL     1       5.304   6.221  16.294  0.00  0.00    +0.000 NA
ATOM      4  C   UNL     1       5.052   5.438  17.325  0.00  0.00    +0.000 A 
ATOM      5  O   UNL     1       4.118   5.934  18.196  0.00  0.00    +0.000 OA
ENDROOT
BRANCH   1  10
ATOM      6  F   UNL     1      -0.072  10.174  20.384  0.00  0.00    +0.000 F 
ATOM      7  C   UNL     1       0.809   9.423  19.710  0.00  0.00    +0.000 A 
ATOM      8  C   UNL     1       1.382   8.320  20.329  0.00  0.00    +0.000 A 
ATOM      9  C   UNL     1       2.321   7.553  19.636  0.00  0.00    +0.000 A 
ATOM     10  C   UNL     1       2.701   7.889  18.325  0.00  0.00    +0.000 A 
ATOM     11  C   UNL     1       2.084   8.993  17.713  0.00  0.00    +0.000 A 
ATOM     12  C   UNL     1       1.143   9.760  18.406  0.00  0.00    +0.000 A 
ENDBRANCH   1  10
BRANCH   4  13
ATOM     13  C   UNL     1       5.654   4.110  17.663  0.00  0.00    +0.000 C 
BRANCH  13  14
ATOM     14  N   UNL     1       4.825   3.007  17.149  0.00  0.00    +0.000 NA
ATOM     15  H   UNL     1       5.441   2.229  16.912  0.00  0.00    +0.000 HD
BRANCH  14  16
ATOM     16  C   UNL     1       3.769   2.564  18.066  0.00  0.00    +0.000 C 
ATOM     17  C   UNL     1       2.457   3.268  17.651  0.00  0.00    +0.000 C 
ATOM     18  C   UNL     1       1.271   2.755  18.475  0.00  0.00    +0.000 C 
ATOM     19  C   UNL     1       1.594   2.707  19.922  0.00  0.00    +0.000 A 
ATOM     20  N   UNL     1       0.784   2.626  20.950  0.00  0.00    +0.000 NA
ATOM     21  C   UNL     1       1.646   2.597  22.018  0.00  0.00    +0.000 A 
ATOM     22  N   UNL     1       2.945   2.640  21.707  0.00  0.00    +0.000 NA
ATOM     23  N   UNL     1       2.885   2.714  20.372  0.00  0.00    +0.000 N 
ATOM     24  C   UNL     1       4.066   2.869  19.552  0.00  0.00    +0.000 C 
ENDBRANCH  14  16
ENDBRANCH  13  14
ENDBRANCH   4  13
TORSDOF 4
ENDMDL
