MODEL 1
REMARK VINA RESULT:      -7.4      0.000      0.000
REMARK  Name = 
REMARK  5 active torsions:
REMARK  status: ('A' for Active; 'I' for Inactive)
REMARK    1  A    between atoms: C_1  and  C_2
REMARK    2  A    between atoms: C_11  and  C_13
REMARK    3  A    between atoms: C_13  and  C_14
REMARK    4  A    between atoms: C_24  and  C_25
REMARK    5  A    between atoms: C_25  and  O_27
REMARK                            x       y       z     vdW  Elec       q    Type
REMARK                         _______ _______ _______ _____ _____    ______ ____
ROOT
ATOM      1  C   UNL     1       0.666   9.857  18.998  0.00  0.00    +0.000 A 
ATOM      2  N   UNL     1      -0.358   9.562  18.108  0.00  0.00    +0.000 NA
ATOM      3  C   UNL     1      -1.380  10.377  18.229  0.00  0.00    +0.000 A 
ATOM      4  N   UNL     1      -2.475  10.320  17.433  0.00  0.00    +0.000 N 
ATOM      5  C   UNL     1      -2.633   9.216  16.481  0.00  0.00    +0.000 C 
ATOM      6  C   UNL     1      -2.996   9.775  15.098  0.00  0.00    +0.000 C 
ATOM      7  O   UNL     1      -4.152  10.630  15.160  0.00  0.00    +0.000 OA
ATOM      8  C   UNL     1      -3.902  11.737  16.042  0.00  0.00    +0.000 C 
ATOM      9  C   UNL     1      -3.591  11.261  17.469  0.00  0.00    +0.000 C 
ATOM     10  S   UNL     1      -1.187  11.506  19.516  0.00  0.00    +0.000 S 
ATOM     11  C   UNL     1       0.327  10.820  19.937  0.00  0.00    +0.000 A 
ENDROOT
BRANCH  11  12
ATOM     12  C   UNL     1       1.038  11.255  21.114  0.00  0.00    +0.000 C 
ATOM     13  O   UNL     1       1.638  12.315  21.239  0.00  0.00    +0.000 OA
BRANCH  12  14
ATOM     14  O   UNL     1       1.037  10.331  22.114  0.00  0.00    +0.000 OA
ATOM     15  H   UNL     1       1.937  10.162  22.459  0.00  0.00    +0.000 HD
ENDBRANCH  12  14
ENDBRANCH  11  12
BRANCH   1  16
ATOM     16  C   UNL     1       1.911   9.017  18.916  0.00  0.00    +0.000 C 
BRANCH  16  27
ATOM     17  C   UNL     1       4.201   7.046  17.460  0.00  0.00    +0.000 C 
ATOM     18  C   UNL     1       2.848   6.415  17.797  0.00  0.00    +0.000 C 
ATOM     19  C   UNL     1       2.914   4.889  17.544  0.00  0.00    +0.000 C 
ATOM     20  C   UNL     1       2.650   4.324  18.899  0.00  0.00    +0.000 A 
ATOM     21  C   UNL     1       2.584   2.978  19.237  0.00  0.00    +0.000 A 
ATOM     22  C   UNL     1       2.278   2.638  20.554  0.00  0.00    +0.000 A 
ATOM     23  C   UNL     1       2.058   3.639  21.508  0.00  0.00    +0.000 A 
ATOM     24  C   UNL     1       2.118   4.993  21.150  0.00  0.00    +0.000 A 
ATOM     25  C   UNL     1       2.397   5.327  19.832  0.00  0.00    +0.000 A 
ATOM     26  N   UNL     1       2.430   6.604  19.216  0.00  0.00    +0.000 N 
ATOM     27  C   UNL     1       1.878   7.758  19.788  0.00  0.00    +0.000 C 
ATOM     28  O   UNL     1       1.355   7.768  20.905  0.00  0.00    +0.000 OA
ENDBRANCH  16  27
ENDBRANCH   1  16
TORSDOF 4
ENDMDL
MODEL 2
REMARK VINA RESULT:      -7.3      3.691      5.280
REMARK  Name = 
REMARK  5 active torsions:
REMARK  status: ('A' for Active; 'I' for Inactive)
REMARK    1  A    between atoms: C_1  and  C_2
REMARK    2  A    between atoms: C_11  and  C_13
REMARK    3  A    between atoms: C_13  and  C_14
REMARK    4  A    between atoms: C_24  and  C_25
REMARK    5  A    between atoms: C_25  and  O_27
REMARK                            x       y       z     vdW  Elec       q    Type
REMARK                         _______ _______ _______ _____ _____    ______ ____
ROOT
ATOM      1  C   UNL     1      -2.186  12.143  20.166  0.00  0.00    +0.000 A 
ATOM      2  N   UNL     1      -3.095  12.627  21.098  0.00  0.00    +0.000 NA
ATOM      3  C   UNL     1      -4.335  12.565  20.670  0.00  0.00    +0.000 A 
ATOM      4  N   UNL     1      -5.400  12.931  21.423  0.00  0.00    +0.000 N 
ATOM      5  C   UNL     1      -5.192  13.573  22.725  0.00  0.00    +0.000 C 
ATOM      6  C   UNL     1      -6.056  12.878  23.787  0.00  0.00    +0.000 C 
ATOM      7  O   UNL     1      -7.441  12.837  23.397  0.00  0.00    +0.000 OA
ATOM      8  C   UNL     1      -7.587  12.121  22.160  0.00  0.00    +0.000 C 
ATOM      9  C   UNL     1      -6.798  12.793  21.025  0.00  0.00    +0.000 C 
ATOM     10  S   UNL     1      -4.456  11.994  19.050  0.00  0.00    +0.000 S 
ATOM     11  C   UNL     1      -2.750  11.869  18.929  0.00  0.00    +0.000 A 
ENDROOT
BRANCH  11  12
ATOM     12  C   UNL     1      -2.117  11.533  17.677  0.00  0.00    +0.000 C 
ATOM     13  O   UNL     1      -2.129  10.433  17.140  0.00  0.00    +0.000 OA
BRANCH  12  14
ATOM     14  O   UNL     1      -1.423  12.570  17.131  0.00  0.00    +0.000 OA
ATOM     15  H   UNL     1      -0.890  13.047  17.798  0.00  0.00    +0.000 HD
ENDBRANCH  12  14
ENDBRANCH  11  12
BRANCH   1  16
ATOM     16  C   UNL     1      -0.737  12.118  20.569  0.00  0.00    +0.000 C 
BRANCH  16  27
ATOM     17  C   UNL     1       2.083  12.061  18.756  0.00  0.00    +0.000 C 
ATOM     18  C   UNL     1       1.144  10.860  18.626  0.00  0.00    +0.000 C 
ATOM     19  C   UNL     1       1.833   9.755  17.788  0.00  0.00    +0.000 C 
ATOM     20  C   UNL     1       1.910   8.618  18.750  0.00  0.00    +0.000 A 
ATOM     21  C   UNL     1       2.437   7.357  18.501  0.00  0.00    +0.000 A 
ATOM     22  C   UNL     1       2.379   6.401  19.514  0.00  0.00    +0.000 A 
ATOM     23  C   UNL     1       1.812   6.721  20.754  0.00  0.00    +0.000 A 
ATOM     24  C   UNL     1       1.275   7.995  20.988  0.00  0.00    +0.000 A 
ATOM     25  C   UNL     1       1.311   8.935  19.967  0.00  0.00    +0.000 A 
ATOM     26  N   UNL     1       0.767  10.244  19.931  0.00  0.00    +0.000 N 
ATOM     27  C   UNL     1      -0.186  10.716  20.844  0.00  0.00    +0.000 C 
ATOM     28  O   UNL     1      -0.600  10.041  21.790  0.00  0.00    +0.000 OA
ENDBRANCH  16  27
ENDBRANCH   1  16
TORSDOF 4
ENDMDL
MODEL 3
REMARK VINA RESULT:      -6.9      3.576      7.838
REMARK  Name = 
REMARK  5 active torsions:
REMARK  status: ('A' for Active; 'I' for Inactive)
REMARK    1  A    between atoms: C_1  and  C_2
REMARK    2  A    between atoms: C_11  and  C_13
REMARK    3  A    between atoms: C_13  and  C_14
REMARK    4  A    between atoms: C_24  and  C_25
REMARK    5  A    between atoms: C_25  and  O_27
REMARK                            x       y       z     vdW  Elec       q    Type
REMARK                         _______ _______ _______ _____ _____    ______ ____
ROOT
ATOM      1  C   UNL     1       2.473   5.707  19.909  0.00  0.00    +0.000 A 
ATOM      2  N   UNL     1       3.423   6.095  18.973  0.00  0.00    +0.000 NA
ATOM      3  C   UNL     1       3.992   5.071  18.380  0.00  0.00    +0.000 A 
ATOM      4  N   UNL     1       4.911   5.200  17.393  0.00  0.00    +0.000 N 
ATOM      5  C   UNL     1       5.434   6.526  17.046  0.00  0.00    +0.000 C 
ATOM      6  C   UNL     1       5.368   6.725  15.525  0.00  0.00    +0.000 C 
ATOM      7  O   UNL     1       6.034   5.659  14.823  0.00  0.00    +0.000 OA
ATOM      8  C   UNL     1       5.421   4.399  15.139  0.00  0.00    +0.000 C 
ATOM      9  C   UNL     1       5.502   4.095  16.643  0.00  0.00    +0.000 C 
ATOM     10  S   UNL     1       3.463   3.556  19.006  0.00  0.00    +0.000 S 
ATOM     11  C   UNL     1       2.454   4.342  20.149  0.00  0.00    +0.000 A 
ENDROOT
BRANCH  11  12
ATOM     12  C   UNL     1       1.754   3.590  21.161  0.00  0.00    +0.000 C 
ATOM     13  O   UNL     1       2.183   3.311  22.274  0.00  0.00    +0.000 OA
BRANCH  12  14
ATOM     14  O   UNL     1       0.534   3.143  20.751  0.00  0.00    +0.000 OA
ATOM     15  H   UNL     1       0.117   2.556  21.412  0.00  0.00    +0.000 HD
ENDBRANCH  12  14
ENDBRANCH  11  12
BRANCH   1  16
ATOM     16  C   UNL     1       1.719   6.800  20.615  0.00  0.00    +0.000 C 
BRANCH  16  27
ATOM     17  C   UNL     1       1.251   9.076  23.033  0.00  0.00    +0.000 C 
ATOM     18  C   UNL     1       0.331   9.154  21.812  0.00  0.00    +0.000 C 
ATOM     19  C   UNL     1      -0.525  10.442  21.892  0.00  0.00    +0.000 C 
ATOM     20  C   UNL     1      -0.109  11.185  20.668  0.00  0.00    +0.000 A 
ATOM     21  C   UNL     1      -0.588  12.418  20.246  0.00  0.00    +0.000 A 
ATOM     22  C   UNL     1      -0.113  12.938  19.043  0.00  0.00    +0.000 A 
ATOM     23  C   UNL     1       0.836  12.231  18.294  0.00  0.00    +0.000 A 
ATOM     24  C   UNL     1       1.303  10.982  18.728  0.00  0.00    +0.000 A 
ATOM     25  C   UNL     1       0.807  10.456  19.913  0.00  0.00    +0.000 A 
ATOM     26  N   UNL     1       1.057   9.195  20.510  0.00  0.00    +0.000 N 
ATOM     27  C   UNL     1       1.638   8.114  19.832  0.00  0.00    +0.000 C 
ATOM     28  O   UNL     1       2.024   8.186  18.663  0.00  0.00    +0.000 OA
ENDBRANCH  16  27
ENDBRANCH   1  16
TORSDOF 4
ENDMDL
MODEL 4
REMARK VINA RESULT:      -6.9      2.483      7.546
REMARK  Name = 
REMARK  5 active torsions:
REMARK  status: ('A' for Active; 'I' for Inactive)
REMARK    1  A    between atoms: C_1  and  C_2
REMARK    2  A    between atoms: C_11  and  C_13
REMARK    3  A    between atoms: C_13  and  C_14
REMARK    4  A    between atoms: C_24  and  C_25
REMARK    5  A    between atoms: C_25  and  O_27
REMARK                            x       y       z     vdW  Elec       q    Type
REMARK                         _______ _______ _______ _____ _____    ______ ____
ROOT
ATOM      1  C   UNL     1       1.852   8.356  19.288  0.00  0.00    +0.000 A 
ATOM      2  N   UNL     1       2.685   7.450  18.645  0.00  0.00    +0.000 NA
ATOM      3  C   UNL     1       2.768   6.304  19.281  0.00  0.00    +0.000 A 
ATOM      4  N   UNL     1       3.478   5.247  18.820  0.00  0.00    +0.000 N 
ATOM      5  C   UNL     1       4.330   5.396  17.636  0.00  0.00    +0.000 C 
ATOM      6  C   UNL     1       4.051   4.253  16.651  0.00  0.00    +0.000 C 
ATOM      7  O   UNL     1       4.190   2.966  17.281  0.00  0.00    +0.000 OA
ATOM      8  C   UNL     1       3.268   2.851  18.378  0.00  0.00    +0.000 C 
ATOM      9  C   UNL     1       3.524   3.927  19.444  0.00  0.00    +0.000 C 
ATOM     10  S   UNL     1       1.899   6.301  20.769  0.00  0.00    +0.000 S 
ATOM     11  C   UNL     1       1.434   7.935  20.541  0.00  0.00    +0.000 A 
ENDROOT
BRANCH  11  12
ATOM     12  C   UNL     1       0.728   8.657  21.571  0.00  0.00    +0.000 C 
ATOM     13  O   UNL     1      -0.486   8.672  21.733  0.00  0.00    +0.000 OA
BRANCH  12  14
ATOM     14  O   UNL     1       1.548   9.401  22.364  0.00  0.00    +0.000 OA
ATOM     15  H   UNL     1       1.096   9.704  23.177  0.00  0.00    +0.000 HD
ENDBRANCH  12  14
ENDBRANCH  11  12
BRANCH   1  16
ATOM     16  C   UNL     1       1.642   9.688  18.621  0.00  0.00    +0.000 C 
BRANCH  16  27
ATOM     17  C   UNL     1       1.315  12.817  19.780  0.00  0.00    +0.000 C 
ATOM     18  C   UNL     1       0.236  11.807  20.179  0.00  0.00    +0.000 C 
ATOM     19  C   UNL     1      -0.914  12.543  20.910  0.00  0.00    +0.000 C 
ATOM     20  C   UNL     1      -2.083  12.283  20.022  0.00  0.00    +0.000 A 
ATOM     21  C   UNL     1      -3.388  12.714  20.222  0.00  0.00    +0.000 A 
ATOM     22  C   UNL     1      -4.363  12.331  19.302  0.00  0.00    +0.000 A 
ATOM     23  C   UNL     1      -4.019  11.541  18.198  0.00  0.00    +0.000 A 
ATOM     24  C   UNL     1      -2.700  11.105  18.014  0.00  0.00    +0.000 A 
ATOM     25  C   UNL     1      -1.738  11.466  18.946  0.00  0.00    +0.000 A 
ATOM     26  N   UNL     1      -0.373  11.087  19.024  0.00  0.00    +0.000 N 
ATOM     27  C   UNL     1       0.176  10.011  18.313  0.00  0.00    +0.000 C 
ATOM     28  O   UNL     1      -0.476   9.328  17.521  0.00  0.00    +0.000 OA
ENDBRANCH  16  27
ENDBRANCH   1  16
TORSDOF 4
ENDMDL
MODEL 5
REMARK VINA RESULT:      -6.8      5.530      8.190
REMARK  Name = 
REMARK  5 active torsions:
REMARK  status: ('A' for Active; 'I' for Inactive)
REMARK    1  A    between atoms: C_1  and  C_2
REMARK    2  A    between atoms: C_11  and  C_13
REMARK    3  A    between atoms: C_13  and  C_14
REMARK    4  A    between atoms: C_24  and  C_25
REMARK    5  A    between atoms: C_25  and  O_27
REMARK                            x       y       z     vdW  Elec       q    Type
REMARK                         _______ _______ _______ _____ _____    ______ ____
ROOT
ATOM      1  C   UNL     1       6.692   7.142  17.050  0.00  0.00    +0.000 A 
ATOM      2  N   UNL     1       6.961   8.487  17.267  0.00  0.00    +0.000 NA
ATOM      3  C   UNL     1       7.918   8.674  18.146  0.00  0.00    +0.000 A 
ATOM      4  N   UNL     1       8.391   9.898  18.483  0.00  0.00    +0.000 N 
ATOM      5  C   UNL     1       7.728  11.104  17.977  0.00  0.00    +0.000 C 
ATOM      6  C   UNL     1       8.775  12.059  17.386  0.00  0.00    +0.000 C 
ATOM      7  O   UNL     1       9.820  12.350  18.333  0.00  0.00    +0.000 OA
ATOM      8  C   UNL     1      10.485  11.137  18.722  0.00  0.00    +0.000 C 
ATOM      9  C   UNL     1       9.513  10.148  19.383  0.00  0.00    +0.000 C 
ATOM     10  S   UNL     1       8.487   7.202  18.838  0.00  0.00    +0.000 S 
ATOM     11  C   UNL     1       7.352   6.295  17.927  0.00  0.00    +0.000 A 
ENDROOT
BRANCH  11  12
ATOM     12  C   UNL     1       7.196   4.876  18.137  0.00  0.00    +0.000 C 
ATOM     13  O   UNL     1       6.523   4.351  19.016  0.00  0.00    +0.000 OA
BRANCH  12  14
ATOM     14  O   UNL     1       7.931   4.121  17.274  0.00  0.00    +0.000 OA
ATOM     15  H   UNL     1       7.628   3.191  17.251  0.00  0.00    +0.000 HD
ENDBRANCH  12  14
ENDBRANCH  11  12
BRANCH   1  16
ATOM     16  C   UNL     1       5.646   6.808  16.023  0.00  0.00    +0.000 C 
BRANCH  16  27
ATOM     17  C   UNL     1       2.902   8.011  17.529  0.00  0.00    +0.000 C 
ATOM     18  C   UNL     1       3.612   6.835  18.204  0.00  0.00    +0.000 C 
ATOM     19  C   UNL     1       2.754   6.326  19.389  0.00  0.00    +0.000 C 
ATOM     20  C   UNL     1       2.453   4.921  18.992  0.00  0.00    +0.000 A 
ATOM     21  C   UNL     1       1.713   3.996  19.716  0.00  0.00    +0.000 A 
ATOM     22  C   UNL     1       1.576   2.707  19.204  0.00  0.00    +0.000 A 
ATOM     23  C   UNL     1       2.164   2.368  17.979  0.00  0.00    +0.000 A 
ATOM     24  C   UNL     1       2.916   3.310  17.263  0.00  0.00    +0.000 A 
ATOM     25  C   UNL     1       3.072   4.585  17.789  0.00  0.00    +0.000 A 
ATOM     26  N   UNL     1       3.843   5.670  17.303  0.00  0.00    +0.000 N 
ATOM     27  C   UNL     1       4.846   5.539  16.331  0.00  0.00    +0.000 C 
ATOM     28  O   UNL     1       5.110   4.467  15.783  0.00  0.00    +0.000 OA
ENDBRANCH  16  27
ENDBRANCH   1  16
TORSDOF 4
ENDMDL
MODEL 6
REMARK VINA RESULT:      -6.8      3.448      8.116
REMARK  Name = 
REMARK  5 active torsions:
REMARK  status: ('A' for Active; 'I' for Inactive)
REMARK    1  A    between atoms: C_1  and  C_2
REMARK    2  A    between atoms: C_11  and  C_13
REMARK    3  A    between atoms: C_13  and  C_14
REMARK    4  A    between atoms: C_24  and  C_25
REMARK    5  A    between atoms: C_25  and  O_27
REMARK                            x       y       z     vdW  Elec       q    Type
REMARK                         _______ _______ _______ _____ _____    ______ ____
ROOT
ATOM      1  C   UNL     1       2.804   5.733  19.627  0.00  0.00    +0.000 A 
ATOM      2  N   UNL     1       4.065   6.050  19.141  0.00  0.00    +0.000 NA
ATOM      3  C   UNL     1       4.558   5.108  18.369  0.00  0.00    +0.000 A 
ATOM      4  N   UNL     1       5.752   5.214  17.737  0.00  0.00    +0.000 N 
ATOM      5  C   UNL     1       6.634   6.351  18.021  0.00  0.00    +0.000 C 
ATOM      6  C   UNL     1       7.107   6.979  16.702  0.00  0.00    +0.000 C 
ATOM      7  O   UNL     1       7.716   6.000  15.839  0.00  0.00    +0.000 OA
ATOM      8  C   UNL     1       6.774   4.959  15.530  0.00  0.00    +0.000 C 
ATOM      9  C   UNL     1       6.297   4.237  16.799  0.00  0.00    +0.000 C 
ATOM     10  S   UNL     1       3.539   3.724  18.269  0.00  0.00    +0.000 S 
ATOM     11  C   UNL     1       2.412   4.432  19.350  0.00  0.00    +0.000 A 
ENDROOT
BRANCH  11  12
ATOM     12  C   UNL     1       1.276   3.685  19.833  0.00  0.00    +0.000 C 
ATOM     13  O   UNL     1       0.957   3.542  21.006  0.00  0.00    +0.000 OA
BRANCH  12  14
ATOM     14  O   UNL     1       0.574   3.073  18.838  0.00  0.00    +0.000 OA
ATOM     15  H   UNL     1      -0.243   3.561  18.613  0.00  0.00    +0.000 HD
ENDBRANCH  12  14
ENDBRANCH  11  12
BRANCH   1  16
ATOM     16  C   UNL     1       2.119   6.763  20.483  0.00  0.00    +0.000 C 
BRANCH  16  27
ATOM     17  C   UNL     1       1.724   9.043  22.909  0.00  0.00    +0.000 C 
ATOM     18  C   UNL     1       0.579   8.883  21.907  0.00  0.00    +0.000 C 
ATOM     19  C   UNL     1      -0.474   9.994  22.145  0.00  0.00    +0.000 C 
ATOM     20  C   UNL     1      -0.465  10.732  20.849  0.00  0.00    +0.000 A 
ATOM     21  C   UNL     1      -1.246  11.831  20.517  0.00  0.00    +0.000 A 
ATOM     22  C   UNL     1      -1.133  12.363  19.233  0.00  0.00    +0.000 A 
ATOM     23  C   UNL     1      -0.239  11.802  18.313  0.00  0.00    +0.000 A 
ATOM     24  C   UNL     1       0.537  10.686  18.660  0.00  0.00    +0.000 A 
ATOM     25  C   UNL     1       0.402  10.144  19.930  0.00  0.00    +0.000 A 
ATOM     26  N   UNL     1       1.004   8.985  20.482  0.00  0.00    +0.000 N 
ATOM     27  C   UNL     1       1.632   7.994  19.713  0.00  0.00    +0.000 C 
ATOM     28  O   UNL     1       1.752   8.072  18.489  0.00  0.00    +0.000 OA
ENDBRANCH  16  27
ENDBRANCH   1  16
TORSDOF 4
ENDMDL
MODEL 7
REMARK VINA RESULT:      -6.6      2.323      7.603
REMARK  Name = 
REMARK  5 active torsions:
REMARK  status: ('A' for Active; 'I' for Inactive)
REMARK    1  A    between atoms: C_1  and  C_2
REMARK    2  A    between atoms: C_11  and  C_13
REMARK    3  A    between atoms: C_13  and  C_14
REMARK    4  A    between atoms: C_24  and  C_25
REMARK    5  A    between atoms: C_25  and  O_27
REMARK                            x       y       z     vdW  Elec       q    Type
REMARK                         _______ _______ _______ _____ _____    ______ ____
ROOT
ATOM      1  C   UNL     1       1.115   9.291  19.678  0.00  0.00    +0.000 A 
ATOM      2  N   UNL     1       1.978   8.404  19.048  0.00  0.00    +0.000 NA
ATOM      3  C   UNL     1       2.201   7.325  19.764  0.00  0.00    +0.000 A 
ATOM      4  N   UNL     1       2.967   6.294  19.335  0.00  0.00    +0.000 N 
ATOM      5  C   UNL     1       3.723   6.412  18.083  0.00  0.00    +0.000 C 
ATOM      6  C   UNL     1       3.478   5.171  17.213  0.00  0.00    +0.000 C 
ATOM      7  O   UNL     1       3.769   3.957  17.930  0.00  0.00    +0.000 OA
ATOM      8  C   UNL     1       2.936   3.860  19.097  0.00  0.00    +0.000 C 
ATOM      9  C   UNL     1       3.168   5.039  20.054  0.00  0.00    +0.000 C 
ATOM     10  S   UNL     1       1.437   7.376  21.306  0.00  0.00    +0.000 S 
ATOM     11  C   UNL     1       0.819   8.944  20.987  0.00  0.00    +0.000 A 
ENDROOT
BRANCH  11  12
ATOM     12  C   UNL     1       0.123   9.689  22.007  0.00  0.00    +0.000 C 
ATOM     13  O   UNL     1       0.338  10.855  22.317  0.00  0.00    +0.000 OA
BRANCH  12  14
ATOM     14  O   UNL     1      -0.806   8.949  22.674  0.00  0.00    +0.000 OA
ATOM     15  H   UNL     1      -1.203   8.260  22.105  0.00  0.00    +0.000 HD
ENDBRANCH  12  14
ENDBRANCH  11  12
BRANCH   1  16
ATOM     16  C   UNL     1       0.747  10.541  18.926  0.00  0.00    +0.000 C 
BRANCH  16  27
ATOM     17  C   UNL     1      -0.455  13.565  19.734  0.00  0.00    +0.000 C 
ATOM     18  C   UNL     1      -1.357  12.359  20.006  0.00  0.00    +0.000 C 
ATOM     19  C   UNL     1      -2.759  12.852  20.443  0.00  0.00    +0.000 C 
ATOM     20  C   UNL     1      -3.643  12.302  19.376  0.00  0.00    +0.000 A 
ATOM     21  C   UNL     1      -5.022  12.442  19.289  0.00  0.00    +0.000 A 
ATOM     22  C   UNL     1      -5.688  11.813  18.238  0.00  0.00    +0.000 A 
ATOM     23  C   UNL     1      -4.972  11.074  17.289  0.00  0.00    +0.000 A 
ATOM     24  C   UNL     1      -3.580  10.933  17.395  0.00  0.00    +0.000 A 
ATOM     25  C   UNL     1      -2.924  11.538  18.458  0.00  0.00    +0.000 A 
ATOM     26  N   UNL     1      -1.556  11.474  18.823  0.00  0.00    +0.000 N 
ATOM     27  C   UNL     1      -0.661  10.518  18.322  0.00  0.00    +0.000 C 
ATOM     28  O   UNL     1      -0.982   9.675  17.482  0.00  0.00    +0.000 OA
ENDBRANCH  16  27
ENDBRANCH   1  16
TORSDOF 4
ENDMDL
MODEL 8
REMARK VINA RESULT:      -6.5      3.359      6.008
REMARK  Name = 
REMARK  5 active torsions:
REMARK  status: ('A' for Active; 'I' for Inactive)
REMARK    1  A    between atoms: C_1  and  C_2
REMARK    2  A    between atoms: C_11  and  C_13
REMARK    3  A    between atoms: C_13  and  C_14
REMARK    4  A    between atoms: C_24  and  C_25
REMARK    5  A    between atoms: C_25  and  O_27
REMARK                            x       y       z     vdW  Elec       q    Type
REMARK                         _______ _______ _______ _____ _____    ______ ____
ROOT
ATOM      1  C   UNL     1       3.217   5.518  19.881  0.00  0.00    +0.000 A 
ATOM      2  N   UNL     1       3.024   6.696  19.171  0.00  0.00    +0.000 NA
ATOM      3  C   UNL     1       1.899   7.295  19.486  0.00  0.00    +0.000 A 
ATOM      4  N   UNL     1       1.519   8.486  18.964  0.00  0.00    +0.000 N 
ATOM      5  C   UNL     1       2.298   9.094  17.880  0.00  0.00    +0.000 C 
ATOM      6  C   UNL     1       2.587  10.564  18.215  0.00  0.00    +0.000 C 
ATOM      7  O   UNL     1       1.378  11.287  18.508  0.00  0.00    +0.000 OA
ATOM      8  C   UNL     1       0.707  10.694  19.632  0.00  0.00    +0.000 C 
ATOM      9  C   UNL     1       0.325   9.232  19.352  0.00  0.00    +0.000 C 
ATOM     10  S   UNL     1       0.955   6.396  20.612  0.00  0.00    +0.000 S 
ATOM     11  C   UNL     1       2.115   5.133  20.628  0.00  0.00    +0.000 A 
ENDROOT
BRANCH  11  12
ATOM     12  C   UNL     1       1.864   3.903  21.340  0.00  0.00    +0.000 C 
ATOM     13  O   UNL     1       2.539   3.454  22.257  0.00  0.00    +0.000 OA
BRANCH  12  14
ATOM     14  O   UNL     1       0.792   3.213  20.858  0.00  0.00    +0.000 OA
ATOM     15  H   UNL     1       0.975   2.255  20.785  0.00  0.00    +0.000 HD
ENDBRANCH  12  14
ENDBRANCH  11  12
BRANCH   1  16
ATOM     16  C   UNL     1       4.501   4.773  19.637  0.00  0.00    +0.000 C 
BRANCH  16  27
ATOM     17  C   UNL     1       7.714   5.494  19.009  0.00  0.00    +0.000 C 
ATOM     18  C   UNL     1       6.685   5.910  17.955  0.00  0.00    +0.000 C 
ATOM     19  C   UNL     1       7.419   6.429  16.694  0.00  0.00    +0.000 C 
ATOM     20  C   UNL     1       6.973   5.472  15.641  0.00  0.00    +0.000 A 
ATOM     21  C   UNL     1       7.332   5.489  14.300  0.00  0.00    +0.000 A 
ATOM     22  C   UNL     1       6.774   4.535  13.450  0.00  0.00    +0.000 A 
ATOM     23  C   UNL     1       5.885   3.577  13.953  0.00  0.00    +0.000 A 
ATOM     24  C   UNL     1       5.524   3.577  15.308  0.00  0.00    +0.000 A 
ATOM     25  C   UNL     1       6.061   4.545  16.144  0.00  0.00    +0.000 A 
ATOM     26  N   UNL     1       5.792   4.801  17.513  0.00  0.00    +0.000 N 
ATOM     27  C   UNL     1       4.680   4.287  18.196  0.00  0.00    +0.000 C 
ATOM     28  O   UNL     1       3.864   3.527  17.670  0.00  0.00    +0.000 OA
ENDBRANCH  16  27
ENDBRANCH   1  16
TORSDOF 4
ENDMDL
MODEL 9
REMARK VINA RESULT:      -6.4      2.457      7.727
REMARK  Name = 
REMARK  5 active torsions:
REMARK  status: ('A' for Active; 'I' for Inactive)
REMARK    1  A    between atoms: C_1  and  C_2
REMARK    2  A    between atoms: C_11  and  C_13
REMARK    3  A    between atoms: C_13  and  C_14
REMARK    4  A    between atoms: C_24  and  C_25
REMARK    5  A    between atoms: C_25  and  O_27
REMARK                            x       y       z     vdW  Elec       q    Type
REMARK                         _______ _______ _______ _____ _____    ______ ____
ROOT
ATOM      1  C   UNL     1      -0.241  10.884  20.256  0.00  0.00    +0.000 A 
ATOM      2  N   UNL     1       0.602  10.043  19.540  0.00  0.00    +0.000 NA
ATOM      3  C   UNL     1       1.045   9.041  20.264  0.00  0.00    +0.000 A 
ATOM      4  N   UNL     1       1.840   8.062  19.770  0.00  0.00    +0.000 N 
ATOM      5  C   UNL     1       2.376   8.169  18.409  0.00  0.00    +0.000 C 
ATOM      6  C   UNL     1       2.130   6.855  17.652  0.00  0.00    +0.000 C 
ATOM      7  O   UNL     1       2.654   5.725  18.373  0.00  0.00    +0.000 OA
ATOM      8  C   UNL     1       2.027   5.626  19.662  0.00  0.00    +0.000 C 
ATOM      9  C   UNL     1       2.281   6.882  20.509  0.00  0.00    +0.000 C 
ATOM     10  S   UNL     1       0.529   9.121  21.905  0.00  0.00    +0.000 S 
ATOM     11  C   UNL     1      -0.292  10.597  21.611  0.00  0.00    +0.000 A 
ENDROOT
BRANCH  11  12
ATOM     12  C   UNL     1      -0.896  11.339  22.692  0.00  0.00    +0.000 C 
ATOM     13  O   UNL     1      -1.825  10.958  23.392  0.00  0.00    +0.000 OA
BRANCH  12  14
ATOM     14  O   UNL     1      -0.363  12.582  22.853  0.00  0.00    +0.000 OA
ATOM     15  H   UNL     1       0.236  12.627  23.626  0.00  0.00    +0.000 HD
ENDBRANCH  12  14
ENDBRANCH  11  12
BRANCH   1  16
ATOM     16  C   UNL     1      -0.850  12.040  19.512  0.00  0.00    +0.000 C 
BRANCH  16  27
ATOM     17  C   UNL     1      -2.388   9.870  17.470  0.00  0.00    +0.000 C 
ATOM     18  C   UNL     1      -2.920  11.305  17.494  0.00  0.00    +0.000 C 
ATOM     19  C   UNL     1      -4.227  11.384  16.667  0.00  0.00    +0.000 C 
ATOM     20  C   UNL     1      -5.230  11.812  17.684  0.00  0.00    +0.000 A 
ATOM     21  C   UNL     1      -6.581  12.048  17.468  0.00  0.00    +0.000 A 
ATOM     22  C   UNL     1      -7.358  12.490  18.537  0.00  0.00    +0.000 A 
ATOM     23  C   UNL     1      -6.782  12.673  19.800  0.00  0.00    +0.000 A 
ATOM     24  C   UNL     1      -5.413  12.441  20.002  0.00  0.00    +0.000 A 
ATOM     25  C   UNL     1      -4.638  12.026  18.928  0.00  0.00    +0.000 A 
ATOM     26  N   UNL     1      -3.239  11.809  18.860  0.00  0.00    +0.000 N 
ATOM     27  C   UNL     1      -2.332  12.276  19.822  0.00  0.00    +0.000 C 
ATOM     28  O   UNL     1      -2.684  12.879  20.838  0.00  0.00    +0.000 OA
ENDBRANCH  16  27
ENDBRANCH   1  16
TORSDOF 4
ENDMDL
