MODEL 1
REMARK VINA RESULT:      -8.1      0.000      0.000
REMARK  Name = 
REMARK  5 active torsions:
REMARK  status: ('A' for Active; 'I' for Inactive)
REMARK    1  A    between atoms: C_1  and  O_2
REMARK    2  A    between atoms: O_2  and  C_3
REMARK    3  A    between atoms: C_8  and  C_9
REMARK    4  A    between atoms: C_16  and  S_17
REMARK    5  A    between atoms: S_17  and  N_20
REMARK                            x       y       z     vdW  Elec       q    Type
REMARK                         _______ _______ _______ _____ _____    ______ ____
ROOT
ATOM      1  C   UNL     1       0.386  11.758  20.236  0.00  0.00    +0.000 C 
ATOM      2  O   UNL     1       1.030  12.815  20.053  0.00  0.00    +0.000 OA
ATOM      3  N   UNL     1       0.927  10.627  19.603  0.00  0.00    +0.000 N 
ATOM      4  C   UNL     1       1.942  10.974  18.569  0.00  0.00    +0.000 C 
ATOM      5  C   UNL     1       1.944   9.818  17.599  0.00  0.00    +0.000 C 
ATOM      6  C   UNL     1       1.738   8.730  18.597  0.00  0.00    +0.000 A 
ATOM      7  C   UNL     1       2.287   7.467  18.439  0.00  0.00    +0.000 A 
ATOM      8  C   UNL     1       2.361   6.667  19.561  0.00  0.00    +0.000 A 
ATOM      9  C   UNL     1       1.768   7.100  20.776  0.00  0.00    +0.000 A 
ATOM     10  C   UNL     1       1.113   8.381  20.882  0.00  0.00    +0.000 A 
ATOM     11  C   UNL     1       1.124   9.222  19.781  0.00  0.00    +0.000 A 
ENDROOT
BRANCH   1  17
ATOM     12  C   UNL     1      -1.356  11.900  22.257  0.00  0.00    +0.000 A 
ATOM     13  C   UNL     1      -2.656  12.362  22.624  0.00  0.00    +0.000 A 
ATOM     14  C   UNL     1      -3.601  12.799  21.699  0.00  0.00    +0.000 A 
ATOM     15  C   UNL     1      -3.264  12.801  20.366  0.00  0.00    +0.000 A 
ATOM     16  C   UNL     1      -1.962  12.437  20.008  0.00  0.00    +0.000 A 
ATOM     17  C   UNL     1      -0.938  12.022  20.929  0.00  0.00    +0.000 A 
BRANCH  12  19
ATOM     18  C   UNL     1      -0.673   9.913  23.290  0.00  0.00    +0.000 C 
ATOM     19  O   UNL     1      -0.532  11.338  23.198  0.00  0.00    +0.000 OA
ENDBRANCH  12  19
ENDBRANCH   1  17
BRANCH   8  20
ATOM     20  S   UNL     1       3.461   5.250  19.434  0.00  0.00    +0.000 S 
ATOM     21  O   UNL     1       4.786   5.786  19.160  0.00  0.00    +0.000 OA
ATOM     22  O   UNL     1       3.216   4.390  20.564  0.00  0.00    +0.000 OA
BRANCH  20  23
ATOM     23  N   UNL     1       2.931   4.427  18.015  0.00  0.00    +0.000 NA
ATOM     24  C   UNL     1       1.514   3.990  17.988  0.00  0.00    +0.000 C 
ATOM     25  C   UNL     1       1.553   2.530  18.407  0.00  0.00    +0.000 C 
ATOM     26  C   UNL     1       2.834   2.002  17.792  0.00  0.00    +0.000 C 
ATOM     27  C   UNL     1       3.736   3.225  17.619  0.00  0.00    +0.000 C 
ENDBRANCH  20  23
ENDBRANCH   8  20
TORSDOF 4
ENDMDL
MODEL 2
REMARK VINA RESULT:      -8.0      0.883      1.050
REMARK  Name = 
REMARK  5 active torsions:
REMARK  status: ('A' for Active; 'I' for Inactive)
REMARK    1  A    between atoms: C_1  and  O_2
REMARK    2  A    between atoms: O_2  and  C_3
REMARK    3  A    between atoms: C_8  and  C_9
REMARK    4  A    between atoms: C_16  and  S_17
REMARK    5  A    between atoms: S_17  and  N_20
REMARK                            x       y       z     vdW  Elec       q    Type
REMARK                         _______ _______ _______ _____ _____    ______ ____
ROOT
ATOM      1  C   UNL     1       0.438  11.799  20.552  0.00  0.00    +0.000 C 
ATOM      2  O   UNL     1       1.046  12.889  20.469  0.00  0.00    +0.000 OA
ATOM      3  N   UNL     1       0.955  10.779  19.737  0.00  0.00    +0.000 N 
ATOM      4  C   UNL     1       1.886  11.289  18.692  0.00  0.00    +0.000 C 
ATOM      5  C   UNL     1       1.841  10.273  17.577  0.00  0.00    +0.000 C 
ATOM      6  C   UNL     1       1.730   9.056  18.433  0.00  0.00    +0.000 A 
ATOM      7  C   UNL     1       2.292   7.843  18.069  0.00  0.00    +0.000 A 
ATOM      8  C   UNL     1       2.462   6.904  19.066  0.00  0.00    +0.000 A 
ATOM      9  C   UNL     1       1.950   7.154  20.365  0.00  0.00    +0.000 A 
ATOM     10  C   UNL     1       1.278   8.389  20.687  0.00  0.00    +0.000 A 
ATOM     11  C   UNL     1       1.193   9.369  19.711  0.00  0.00    +0.000 A 
ENDROOT
BRANCH   1  17
ATOM     12  C   UNL     1      -1.180  11.546  22.663  0.00  0.00    +0.000 A 
ATOM     13  C   UNL     1      -2.448  11.936  23.193  0.00  0.00    +0.000 A 
ATOM     14  C   UNL     1      -3.435  12.557  22.434  0.00  0.00    +0.000 A 
ATOM     15  C   UNL     1      -3.176  12.825  21.110  0.00  0.00    +0.000 A 
ATOM     16  C   UNL     1      -1.905  12.529  20.607  0.00  0.00    +0.000 A 
ATOM     17  C   UNL     1      -0.838  11.929  21.363  0.00  0.00    +0.000 A 
BRANCH  12  19
ATOM     18  C   UNL     1      -0.529   9.387  23.292  0.00  0.00    +0.000 C 
ATOM     19  O   UNL     1      -0.315  10.800  23.421  0.00  0.00    +0.000 OA
ENDBRANCH  12  19
ENDBRANCH   1  17
BRANCH   8  20
ATOM     20  S   UNL     1       3.579   5.549  18.674  0.00  0.00    +0.000 S 
ATOM     21  O   UNL     1       3.887   5.671  17.258  0.00  0.00    +0.000 OA
ATOM     22  O   UNL     1       4.620   5.524  19.671  0.00  0.00    +0.000 OA
BRANCH  20  23
ATOM     23  N   UNL     1       2.617   4.133  18.876  0.00  0.00    +0.000 NA
ATOM     24  C   UNL     1       3.027   3.196  19.951  0.00  0.00    +0.000 C 
ATOM     25  C   UNL     1       3.841   2.128  19.241  0.00  0.00    +0.000 C 
ATOM     26  C   UNL     1       3.149   1.964  17.902  0.00  0.00    +0.000 C 
ATOM     27  C   UNL     1       2.431   3.290  17.650  0.00  0.00    +0.000 C 
ENDBRANCH  20  23
ENDBRANCH   8  20
TORSDOF 4
ENDMDL
MODEL 3
REMARK VINA RESULT:      -7.8      1.660      2.067
REMARK  Name = 
REMARK  5 active torsions:
REMARK  status: ('A' for Active; 'I' for Inactive)
REMARK    1  A    between atoms: C_1  and  O_2
REMARK    2  A    between atoms: O_2  and  C_3
REMARK    3  A    between atoms: C_8  and  C_9
REMARK    4  A    between atoms: C_16  and  S_17
REMARK    5  A    between atoms: S_17  and  N_20
REMARK                            x       y       z     vdW  Elec       q    Type
REMARK                         _______ _______ _______ _____ _____    ______ ____
ROOT
ATOM      1  C   UNL     1       0.598  11.624  20.463  0.00  0.00    +0.000 C 
ATOM      2  O   UNL     1       1.233  12.696  20.351  0.00  0.00    +0.000 OA
ATOM      3  N   UNL     1       1.078  10.575  19.662  0.00  0.00    +0.000 N 
ATOM      4  C   UNL     1       2.008  11.041  18.595  0.00  0.00    +0.000 C 
ATOM      5  C   UNL     1       1.922  10.004  17.502  0.00  0.00    +0.000 C 
ATOM      6  C   UNL     1       1.792   8.808  18.382  0.00  0.00    +0.000 A 
ATOM      7  C   UNL     1       2.317   7.573  18.036  0.00  0.00    +0.000 A 
ATOM      8  C   UNL     1       2.476   6.650  19.049  0.00  0.00    +0.000 A 
ATOM      9  C   UNL     1       1.988   6.938  20.350  0.00  0.00    +0.000 A 
ATOM     10  C   UNL     1       1.352   8.197  20.655  0.00  0.00    +0.000 A 
ATOM     11  C   UNL     1       1.279   9.159  19.661  0.00  0.00    +0.000 A 
ENDROOT
BRANCH   1  17
ATOM     12  C   UNL     1      -0.995  11.462  22.602  0.00  0.00    +0.000 A 
ATOM     13  C   UNL     1      -2.246  11.893  23.139  0.00  0.00    +0.000 A 
ATOM     14  C   UNL     1      -3.230  12.515  22.377  0.00  0.00    +0.000 A 
ATOM     15  C   UNL     1      -2.984  12.743  21.043  0.00  0.00    +0.000 A 
ATOM     16  C   UNL     1      -1.727  12.406  20.531  0.00  0.00    +0.000 A 
ATOM     17  C   UNL     1      -0.663  11.803  21.288  0.00  0.00    +0.000 A 
BRANCH  12  19
ATOM     18  C   UNL     1      -0.445   9.315  23.360  0.00  0.00    +0.000 C 
ATOM     19  O   UNL     1      -0.135  10.717  23.367  0.00  0.00    +0.000 OA
ENDBRANCH  12  19
ENDBRANCH   1  17
BRANCH   8  20
ATOM     20  S   UNL     1       3.553   5.259  18.670  0.00  0.00    +0.000 S 
ATOM     21  O   UNL     1       3.797   4.577  19.931  0.00  0.00    +0.000 OA
ATOM     22  O   UNL     1       3.004   4.565  17.531  0.00  0.00    +0.000 OA
BRANCH  20  23
ATOM     23  N   UNL     1       5.036   5.991  18.181  0.00  0.00    +0.000 NA
ATOM     24  C   UNL     1       5.373   5.913  16.739  0.00  0.00    +0.000 C 
ATOM     25  C   UNL     1       6.317   4.727  16.627  0.00  0.00    +0.000 C 
ATOM     26  C   UNL     1       7.133   4.783  17.903  0.00  0.00    +0.000 C 
ATOM     27  C   UNL     1       6.262   5.531  18.912  0.00  0.00    +0.000 C 
ENDBRANCH  20  23
ENDBRANCH   8  20
TORSDOF 4
ENDMDL
MODEL 4
REMARK VINA RESULT:      -7.7      0.939      1.700
REMARK  Name = 
REMARK  5 active torsions:
REMARK  status: ('A' for Active; 'I' for Inactive)
REMARK    1  A    between atoms: C_1  and  O_2
REMARK    2  A    between atoms: O_2  and  C_3
REMARK    3  A    between atoms: C_8  and  C_9
REMARK    4  A    between atoms: C_16  and  S_17
REMARK    5  A    between atoms: S_17  and  N_20
REMARK                            x       y       z     vdW  Elec       q    Type
REMARK                         _______ _______ _______ _____ _____    ______ ____
ROOT
ATOM      1  C   UNL     1       0.441  11.815  20.248  0.00  0.00    +0.000 C 
ATOM      2  O   UNL     1       1.121  12.845  20.043  0.00  0.00    +0.000 OA
ATOM      3  N   UNL     1       0.947  10.651  19.645  0.00  0.00    +0.000 N 
ATOM      4  C   UNL     1       1.977  10.939  18.608  0.00  0.00    +0.000 C 
ATOM      5  C   UNL     1       1.944   9.760  17.666  0.00  0.00    +0.000 C 
ATOM      6  C   UNL     1       1.698   8.704  18.691  0.00  0.00    +0.000 A 
ATOM      7  C   UNL     1       2.205   7.420  18.566  0.00  0.00    +0.000 A 
ATOM      8  C   UNL     1       2.248   6.646  19.707  0.00  0.00    +0.000 A 
ATOM      9  C   UNL     1       1.665   7.128  20.909  0.00  0.00    +0.000 A 
ATOM     10  C   UNL     1       1.053   8.432  20.980  0.00  0.00    +0.000 A 
ATOM     11  C   UNL     1       1.096   9.245  19.859  0.00  0.00    +0.000 A 
ENDROOT
BRANCH   1  17
ATOM     12  C   UNL     1      -2.150  12.437  20.438  0.00  0.00    +0.000 A 
ATOM     13  C   UNL     1      -3.237  12.568  21.354  0.00  0.00    +0.000 A 
ATOM     14  C   UNL     1      -3.076  12.562  22.737  0.00  0.00    +0.000 A 
ATOM     15  C   UNL     1      -1.809  12.406  23.250  0.00  0.00    +0.000 A 
ATOM     16  C   UNL     1      -0.753  12.186  22.361  0.00  0.00    +0.000 A 
ATOM     17  C   UNL     1      -0.876  12.139  20.928  0.00  0.00    +0.000 A 
BRANCH  12  19
ATOM     18  C   UNL     1      -2.818  11.417  18.438  0.00  0.00    +0.000 C 
ATOM     19  O   UNL     1      -2.357  12.608  19.093  0.00  0.00    +0.000 OA
ENDBRANCH  12  19
ENDBRANCH   1  17
BRANCH   8  20
ATOM     20  S   UNL     1       3.301   5.191  19.620  0.00  0.00    +0.000 S 
ATOM     21  O   UNL     1       4.657   5.680  19.424  0.00  0.00    +0.000 OA
ATOM     22  O   UNL     1       2.964   4.327  20.724  0.00  0.00    +0.000 OA
BRANCH  20  23
ATOM     23  N   UNL     1       2.819   4.404  18.164  0.00  0.00    +0.000 NA
ATOM     24  C   UNL     1       1.446   3.843  18.133  0.00  0.00    +0.000 C 
ATOM     25  C   UNL     1       1.623   2.372  18.467  0.00  0.00    +0.000 C 
ATOM     26  C   UNL     1       2.933   1.997  17.803  0.00  0.00    +0.000 C 
ATOM     27  C   UNL     1       3.719   3.303  17.688  0.00  0.00    +0.000 C 
ENDBRANCH  20  23
ENDBRANCH   8  20
TORSDOF 4
ENDMDL
MODEL 5
REMARK VINA RESULT:      -7.7      1.234      2.124
REMARK  Name = 
REMARK  5 active torsions:
REMARK  status: ('A' for Active; 'I' for Inactive)
REMARK    1  A    between atoms: C_1  and  O_2
REMARK    2  A    between atoms: O_2  and  C_3
REMARK    3  A    between atoms: C_8  and  C_9
REMARK    4  A    between atoms: C_16  and  S_17
REMARK    5  A    between atoms: S_17  and  N_20
REMARK                            x       y       z     vdW  Elec       q    Type
REMARK                         _______ _______ _______ _____ _____    ______ ____
ROOT
ATOM      1  C   UNL     1       0.621  11.816  20.373  0.00  0.00    +0.000 C 
ATOM      2  O   UNL     1       1.282  12.857  20.164  0.00  0.00    +0.000 OA
ATOM      3  N   UNL     1       1.067  10.689  19.662  0.00  0.00    +0.000 N 
ATOM      4  C   UNL     1       1.999  11.037  18.553  0.00  0.00    +0.000 C 
ATOM      5  C   UNL     1       1.878   9.912  17.554  0.00  0.00    +0.000 C 
ATOM      6  C   UNL     1       1.724   8.800  18.536  0.00  0.00    +0.000 A 
ATOM      7  C   UNL     1       2.215   7.527  18.294  0.00  0.00    +0.000 A 
ATOM      8  C   UNL     1       2.360   6.690  19.382  0.00  0.00    +0.000 A 
ATOM      9  C   UNL     1       1.890   7.103  20.656  0.00  0.00    +0.000 A 
ATOM     10  C   UNL     1       1.289   8.399  20.856  0.00  0.00    +0.000 A 
ATOM     11  C   UNL     1       1.232   9.274  19.782  0.00  0.00    +0.000 A 
ENDROOT
BRANCH   1  17
ATOM     12  C   UNL     1      -1.699  12.977  21.009  0.00  0.00    +0.000 A 
ATOM     13  C   UNL     1      -2.811  12.911  21.902  0.00  0.00    +0.000 A 
ATOM     14  C   UNL     1      -2.830  12.112  23.042  0.00  0.00    +0.000 A 
ATOM     15  C   UNL     1      -1.729  11.334  23.317  0.00  0.00    +0.000 A 
ATOM     16  C   UNL     1      -0.674  11.324  22.399  0.00  0.00    +0.000 A 
ATOM     17  C   UNL     1      -0.628  12.098  21.187  0.00  0.00    +0.000 A 
BRANCH  12  19
ATOM     18  C   UNL     1      -1.372  15.226  20.444  0.00  0.00    +0.000 C 
ATOM     19  O   UNL     1      -1.683  13.899  19.994  0.00  0.00    +0.000 OA
ENDBRANCH  12  19
ENDBRANCH   1  17
BRANCH   8  20
ATOM     20  S   UNL     1       3.397   5.245  19.118  0.00  0.00    +0.000 S 
ATOM     21  O   UNL     1       3.333   4.951  17.695  0.00  0.00    +0.000 OA
ATOM     22  O   UNL     1       4.656   5.469  19.785  0.00  0.00    +0.000 OA
BRANCH  20  23
ATOM     23  N   UNL     1       2.576   3.975  19.947  0.00  0.00    +0.000 NA
ATOM     24  C   UNL     1       3.224   2.641  19.929  0.00  0.00    +0.000 C 
ATOM     25  C   UNL     1       2.532   1.891  18.804  0.00  0.00    +0.000 C 
ATOM     26  C   UNL     1       1.095   2.368  18.869  0.00  0.00    +0.000 C 
ATOM     27  C   UNL     1       1.153   3.743  19.537  0.00  0.00    +0.000 C 
ENDBRANCH  20  23
ENDBRANCH   8  20
TORSDOF 4
ENDMDL
MODEL 6
REMARK VINA RESULT:      -7.6      1.002      1.347
REMARK  Name = 
REMARK  5 active torsions:
REMARK  status: ('A' for Active; 'I' for Inactive)
REMARK    1  A    between atoms: C_1  and  O_2
REMARK    2  A    between atoms: O_2  and  C_3
REMARK    3  A    between atoms: C_8  and  C_9
REMARK    4  A    between atoms: C_16  and  S_17
REMARK    5  A    between atoms: S_17  and  N_20
REMARK                            x       y       z     vdW  Elec       q    Type
REMARK                         _______ _______ _______ _____ _____    ______ ____
ROOT
ATOM      1  C   UNL     1       0.544  11.541  20.288  0.00  0.00    +0.000 C 
ATOM      2  O   UNL     1       1.127  12.618  20.032  0.00  0.00    +0.000 OA
ATOM      3  N   UNL     1       1.044  10.427  19.594  0.00  0.00    +0.000 N 
ATOM      4  C   UNL     1       1.917  10.805  18.448  0.00  0.00    +0.000 C 
ATOM      5  C   UNL     1       1.843   9.647  17.482  0.00  0.00    +0.000 C 
ATOM      6  C   UNL     1       1.793   8.555  18.497  0.00  0.00    +0.000 A 
ATOM      7  C   UNL     1       2.361   7.311  18.273  0.00  0.00    +0.000 A 
ATOM      8  C   UNL     1       2.593   6.517  19.377  0.00  0.00    +0.000 A 
ATOM      9  C   UNL     1       2.134   6.933  20.654  0.00  0.00    +0.000 A 
ATOM     10  C   UNL     1       1.453   8.191  20.839  0.00  0.00    +0.000 A 
ATOM     11  C   UNL     1       1.306   9.030  19.745  0.00  0.00    +0.000 A 
ENDROOT
BRANCH   1  17
ATOM     12  C   UNL     1      -1.006  11.466  22.463  0.00  0.00    +0.000 A 
ATOM     13  C   UNL     1      -2.240  11.930  23.012  0.00  0.00    +0.000 A 
ATOM     14  C   UNL     1      -3.232  12.543  22.253  0.00  0.00    +0.000 A 
ATOM     15  C   UNL     1      -3.011  12.727  20.907  0.00  0.00    +0.000 A 
ATOM     16  C   UNL     1      -1.770  12.358  20.381  0.00  0.00    +0.000 A 
ATOM     17  C   UNL     1      -0.697  11.762  21.133  0.00  0.00    +0.000 A 
BRANCH  12  19
ATOM     18  C   UNL     1      -0.500   9.345  23.318  0.00  0.00    +0.000 C 
ATOM     19  O   UNL     1      -0.140  10.732  23.233  0.00  0.00    +0.000 OA
ENDBRANCH  12  19
ENDBRANCH   1  17
BRANCH   8  20
ATOM     20  S   UNL     1       3.717   5.137  19.118  0.00  0.00    +0.000 S 
ATOM     21  O   UNL     1       3.645   4.811  17.702  0.00  0.00    +0.000 OA
ATOM     22  O   UNL     1       4.970   5.454  19.755  0.00  0.00    +0.000 OA
BRANCH  20  23
ATOM     23  N   UNL     1       2.996   3.833  19.987  0.00  0.00    +0.000 NA
ATOM     24  C   UNL     1       2.726   2.591  19.221  0.00  0.00    +0.000 C 
ATOM     25  C   UNL     1       1.261   2.691  18.830  0.00  0.00    +0.000 C 
ATOM     26  C   UNL     1       0.606   3.363  20.020  0.00  0.00    +0.000 C 
ATOM     27  C   UNL     1       1.720   4.154  20.706  0.00  0.00    +0.000 C 
ENDBRANCH  20  23
ENDBRANCH   8  20
TORSDOF 4
ENDMDL
MODEL 7
REMARK VINA RESULT:      -7.6      0.934      1.776
REMARK  Name = 
REMARK  5 active torsions:
REMARK  status: ('A' for Active; 'I' for Inactive)
REMARK    1  A    between atoms: C_1  and  O_2
REMARK    2  A    between atoms: O_2  and  C_3
REMARK    3  A    between atoms: C_8  and  C_9
REMARK    4  A    between atoms: C_16  and  S_17
REMARK    5  A    between atoms: S_17  and  N_20
REMARK                            x       y       z     vdW  Elec       q    Type
REMARK                         _______ _______ _______ _____ _____    ______ ____
ROOT
ATOM      1  C   UNL     1       0.544  11.886  20.424  0.00  0.00    +0.000 C 
ATOM      2  O   UNL     1       1.217  12.917  20.201  0.00  0.00    +0.000 OA
ATOM      3  N   UNL     1       1.003  10.735  19.762  0.00  0.00    +0.000 N 
ATOM      4  C   UNL     1       1.966  11.042  18.668  0.00  0.00    +0.000 C 
ATOM      5  C   UNL     1       1.865   9.887  17.703  0.00  0.00    +0.000 C 
ATOM      6  C   UNL     1       1.678   8.808  18.715  0.00  0.00    +0.000 A 
ATOM      7  C   UNL     1       2.168   7.525  18.527  0.00  0.00    +0.000 A 
ATOM      8  C   UNL     1       2.278   6.723  19.644  0.00  0.00    +0.000 A 
ATOM      9  C   UNL     1       1.776   7.178  20.891  0.00  0.00    +0.000 A 
ATOM     10  C   UNL     1       1.178   8.483  21.034  0.00  0.00    +0.000 A 
ATOM     11  C   UNL     1       1.155   9.323  19.932  0.00  0.00    +0.000 A 
ENDROOT
BRANCH   1  17
ATOM     12  C   UNL     1      -1.766  13.108  20.980  0.00  0.00    +0.000 A 
ATOM     13  C   UNL     1      -2.910  13.070  21.834  0.00  0.00    +0.000 A 
ATOM     14  C   UNL     1      -2.989  12.272  22.971  0.00  0.00    +0.000 A 
ATOM     15  C   UNL     1      -1.919  11.465  23.284  0.00  0.00    +0.000 A 
ATOM     16  C   UNL     1      -0.834  11.429  22.404  0.00  0.00    +0.000 A 
ATOM     17  C   UNL     1      -0.725  12.200  21.195  0.00  0.00    +0.000 A 
BRANCH  12  19
ATOM     18  C   UNL     1      -1.446  15.363  20.437  0.00  0.00    +0.000 C 
ATOM     19  O   UNL     1      -1.690  14.029  19.967  0.00  0.00    +0.000 OA
ENDBRANCH  12  19
ENDBRANCH   1  17
BRANCH   8  20
ATOM     20  S   UNL     1       3.313   5.264  19.455  0.00  0.00    +0.000 S 
ATOM     21  O   UNL     1       4.649   5.750  19.146  0.00  0.00    +0.000 OA
ATOM     22  O   UNL     1       3.069   4.392  20.577  0.00  0.00    +0.000 OA
BRANCH  20  23
ATOM     23  N   UNL     1       2.703   4.491  18.039  0.00  0.00    +0.000 NA
ATOM     24  C   UNL     1       1.327   3.944  18.120  0.00  0.00    +0.000 C 
ATOM     25  C   UNL     1       1.516   2.469  18.430  0.00  0.00    +0.000 C 
ATOM     26  C   UNL     1       2.763   2.085  17.658  0.00  0.00    +0.000 C 
ATOM     27  C   UNL     1       3.550   3.385  17.484  0.00  0.00    +0.000 C 
ENDBRANCH  20  23
ENDBRANCH   8  20
TORSDOF 4
ENDMDL
MODEL 8
REMARK VINA RESULT:      -7.5      2.200      3.381
REMARK  Name = 
REMARK  5 active torsions:
REMARK  status: ('A' for Active; 'I' for Inactive)
REMARK    1  A    between atoms: C_1  and  O_2
REMARK    2  A    between atoms: O_2  and  C_3
REMARK    3  A    between atoms: C_8  and  C_9
REMARK    4  A    between atoms: C_16  and  S_17
REMARK    5  A    between atoms: S_17  and  N_20
REMARK                            x       y       z     vdW  Elec       q    Type
REMARK                         _______ _______ _______ _____ _____    ______ ____
ROOT
ATOM      1  C   UNL     1      -0.096  11.818  20.266  0.00  0.00    +0.000 C 
ATOM      2  O   UNL     1      -1.252  11.912  20.734  0.00  0.00    +0.000 OA
ATOM      3  N   UNL     1       0.469  10.535  20.361  0.00  0.00    +0.000 N 
ATOM      4  C   UNL     1      -0.269   9.646  21.302  0.00  0.00    +0.000 C 
ATOM      5  C   UNL     1       0.739   8.626  21.771  0.00  0.00    +0.000 C 
ATOM      6  C   UNL     1       1.472   8.473  20.481  0.00  0.00    +0.000 A 
ATOM      7  C   UNL     1       2.038   7.270  20.090  0.00  0.00    +0.000 A 
ATOM      8  C   UNL     1       2.353   7.128  18.754  0.00  0.00    +0.000 A 
ATOM      9  C   UNL     1       2.215   8.234  17.875  0.00  0.00    +0.000 A 
ATOM     10  C   UNL     1       1.717   9.507  18.336  0.00  0.00    +0.000 A 
ATOM     11  C   UNL     1       1.312   9.619  19.656  0.00  0.00    +0.000 A 
ENDROOT
BRANCH   1  17
ATOM     12  C   UNL     1       1.703  13.791  20.171  0.00  0.00    +0.000 A 
ATOM     13  C   UNL     1       1.995  15.051  19.568  0.00  0.00    +0.000 A 
ATOM     14  C   UNL     1       1.063  15.784  18.839  0.00  0.00    +0.000 A 
ATOM     15  C   UNL     1      -0.200  15.264  18.675  0.00  0.00    +0.000 A 
ATOM     16  C   UNL     1      -0.466  13.990  19.185  0.00  0.00    +0.000 A 
ATOM     17  C   UNL     1       0.476  13.176  19.906  0.00  0.00    +0.000 A 
BRANCH  12  19
ATOM     18  C   UNL     1       3.687  14.072  21.382  0.00  0.00    +0.000 C 
ATOM     19  O   UNL     1       2.615  13.196  21.005  0.00  0.00    +0.000 OA
ENDBRANCH  12  19
ENDBRANCH   1  17
BRANCH   8  20
ATOM     20  S   UNL     1       2.653   5.443  18.202  0.00  0.00    +0.000 S 
ATOM     21  O   UNL     1       1.429   5.002  17.551  0.00  0.00    +0.000 OA
ATOM     22  O   UNL     1       3.922   5.415  17.518  0.00  0.00    +0.000 OA
BRANCH  20  23
ATOM     23  N   UNL     1       2.818   4.540  19.662  0.00  0.00    +0.000 NA
ATOM     24  C   UNL     1       3.807   3.434  19.653  0.00  0.00    +0.000 C 
ATOM     25  C   UNL     1       2.986   2.186  19.376  0.00  0.00    +0.000 C 
ATOM     26  C   UNL     1       1.680   2.432  20.106  0.00  0.00    +0.000 C 
ATOM     27  C   UNL     1       1.553   3.952  20.211  0.00  0.00    +0.000 C 
ENDBRANCH  20  23
ENDBRANCH   8  20
TORSDOF 4
ENDMDL
MODEL 9
REMARK VINA RESULT:      -7.4      2.031      3.390
REMARK  Name = 
REMARK  5 active torsions:
REMARK  status: ('A' for Active; 'I' for Inactive)
REMARK    1  A    between atoms: C_1  and  O_2
REMARK    2  A    between atoms: O_2  and  C_3
REMARK    3  A    between atoms: C_8  and  C_9
REMARK    4  A    between atoms: C_16  and  S_17
REMARK    5  A    between atoms: S_17  and  N_20
REMARK                            x       y       z     vdW  Elec       q    Type
REMARK                         _______ _______ _______ _____ _____    ______ ____
ROOT
ATOM      1  C   UNL     1      -0.485  11.682  20.325  0.00  0.00    +0.000 C 
ATOM      2  O   UNL     1      -1.617  11.646  20.854  0.00  0.00    +0.000 OA
ATOM      3  N   UNL     1       0.230  10.475  20.391  0.00  0.00    +0.000 N 
ATOM      4  C   UNL     1      -0.349   9.513  21.371  0.00  0.00    +0.000 C 
ATOM      5  C   UNL     1       0.794   8.620  21.787  0.00  0.00    +0.000 C 
ATOM      6  C   UNL     1       1.469   8.544  20.459  0.00  0.00    +0.000 A 
ATOM      7  C   UNL     1       2.150   7.412  20.039  0.00  0.00    +0.000 A 
ATOM      8  C   UNL     1       2.408   7.297  18.688  0.00  0.00    +0.000 A 
ATOM      9  C   UNL     1       2.096   8.374  17.817  0.00  0.00    +0.000 A 
ATOM     10  C   UNL     1       1.479   9.584  18.302  0.00  0.00    +0.000 A 
ATOM     11  C   UNL     1       1.134   9.658  19.642  0.00  0.00    +0.000 A 
ENDROOT
BRANCH   1  17
ATOM     12  C   UNL     1       1.092  13.653  19.448  0.00  0.00    +0.000 A 
ATOM     13  C   UNL     1       1.102  15.021  19.039  0.00  0.00    +0.000 A 
ATOM     14  C   UNL     1       0.028  15.885  19.233  0.00  0.00    +0.000 A 
ATOM     15  C   UNL     1      -1.108  15.396  19.834  0.00  0.00    +0.000 A 
ATOM     16  C   UNL     1      -1.160  14.036  20.154  0.00  0.00    +0.000 A 
ATOM     17  C   UNL     1      -0.094  13.095  19.933  0.00  0.00    +0.000 A 
BRANCH  12  19
ATOM     18  C   UNL     1       2.909  13.029  18.110  0.00  0.00    +0.000 C 
ATOM     19  O   UNL     1       2.235  12.900  19.370  0.00  0.00    +0.000 OA
ENDBRANCH  12  19
ENDBRANCH   1  17
BRANCH   8  20
ATOM     20  S   UNL     1       2.872   5.654  18.123  0.00  0.00    +0.000 S 
ATOM     21  O   UNL     1       1.636   4.991  17.738  0.00  0.00    +0.000 OA
ATOM     22  O   UNL     1       3.971   5.792  17.200  0.00  0.00    +0.000 OA
BRANCH  20  23
ATOM     23  N   UNL     1       3.463   4.868  19.539  0.00  0.00    +0.000 NA
ATOM     24  C   UNL     1       4.677   4.030  19.378  0.00  0.00    +0.000 C 
ATOM     25  C   UNL     1       4.149   2.614  19.227  0.00  0.00    +0.000 C 
ATOM     26  C   UNL     1       2.945   2.567  20.147  0.00  0.00    +0.000 C 
ATOM     27  C   UNL     1       2.473   4.016  20.274  0.00  0.00    +0.000 C 
ENDBRANCH  20  23
ENDBRANCH   8  20
TORSDOF 4
ENDMDL
