MODEL 1
REMARK VINA RESULT:      -6.2      0.000      0.000
REMARK  Name = 
REMARK  24 active torsions:
REMARK  status: ('A' for Active; 'I' for Inactive)
REMARK    1  A    between atoms: C_1  and  C_2
REMARK    2  A    between atoms: C_2  and  C_3
REMARK    3  A    between atoms: C_3  and  C_4
REMARK    4  A    between atoms: C_4  and  C_5
REMARK    5  A    between atoms: C_5  and  C_6
REMARK    6  A    between atoms: C_6  and  C_7
REMARK    7  A    between atoms: C_7  and  O_8
REMARK    8  A    between atoms: C_7  and  C_9
REMARK    9  A    between atoms: C_9  and  C_10
REMARK   10  A    between atoms: C_11  and  C_12
REMARK   11  A    between atoms: C_12  and  C_13
REMARK   12  A    between atoms: C_13  and  C_14
REMARK   13  A    between atoms: C_14  and  C_15
REMARK   14  A    between atoms: C_15  and  C_16
REMARK   15  A    between atoms: C_16  and  C_17
REMARK   16  A    between atoms: C_17  and  C_18
REMARK   17  A    between atoms: C_18  and  C_19
REMARK   18  A    between atoms: C_19  and  O_21
REMARK   19  A    between atoms: O_21  and  C_22
REMARK   20  A    between atoms: C_23  and  O_24
REMARK   21  A    between atoms: C_23  and  C_25
REMARK   22  A    between atoms: C_25  and  O_27
REMARK   23  A    between atoms: O_27  and  C_28
REMARK   24  A    between atoms: C_28  and  C_29
REMARK                            x       y       z     vdW  Elec       q    Type
REMARK                         _______ _______ _______ _____ _____    ______ ____
ROOT
ATOM      1  C   UNL     1       7.742   8.764  17.525  0.00  0.00    +0.000 C 
ENDROOT
BRANCH   1   2
ATOM      2  C   UNL     1       8.663   8.613  18.731  0.00  0.00    +0.000 C 
BRANCH   2   3
ATOM      3  C   UNL     1       9.232   9.958  19.164  0.00  0.00    +0.000 C 
BRANCH   3   4
ATOM      4  C   UNL     1       8.870  11.037  18.147  0.00  0.00    +0.000 C 
BRANCH   4   6
ATOM      5  C   UNL     1      11.059  12.058  17.524  0.00  0.00    +0.000 C 
ATOM      6  C   UNL     1       9.891  12.133  18.169  0.00  0.00    +0.000 C 
BRANCH   5   7
ATOM      7  C   UNL     1      12.087  13.146  17.560  0.00  0.00    +0.000 C 
BRANCH   7   8
ATOM      8  C   UNL     1      11.416  14.521  17.579  0.00  0.00    +0.000 C 
BRANCH   8   9
ATOM      9  O   UNL     1      11.131  14.938  16.243  0.00  0.00    +0.000 OA
ATOM     10  H   UNL     1      10.925  14.145  15.720  0.00  0.00    +0.000 HD
ENDBRANCH   8   9
BRANCH   8  11
ATOM     11  C   UNL     1      12.331  15.545  18.250  0.00  0.00    +0.000 C 
BRANCH  11  12
ATOM     12  C   UNL     1      11.839  15.910  19.649  0.00  0.00    +0.000 C 
BRANCH  12  13
ATOM     13  C   UNL     1      10.476  15.283  19.926  0.00  0.00    +0.000 C 
BRANCH  13  14
ATOM     14  C   UNL     1      10.472  14.589  21.284  0.00  0.00    +0.000 C 
BRANCH  14  16
ATOM     15  C   UNL     1       9.304  12.449  21.871  0.00  0.00    +0.000 C 
ATOM     16  C   UNL     1       9.127  13.925  21.562  0.00  0.00    +0.000 C 
ENDBRANCH  14  16
ENDBRANCH  13  14
ENDBRANCH  12  13
ENDBRANCH  11  12
ENDBRANCH   8  11
ENDBRANCH   7   8
ENDBRANCH   5   7
ENDBRANCH   4   6
ENDBRANCH   3   4
ENDBRANCH   2   3
ENDBRANCH   1   2
BRANCH   1  17
ATOM     17  C   UNL     1       6.774   7.585  17.448  0.00  0.00    +0.000 C 
BRANCH  17  18
ATOM     18  C   UNL     1       7.519   6.253  17.563  0.00  0.00    +0.000 C 
BRANCH  18  19
ATOM     19  C   UNL     1       6.738   5.117  16.937  0.00  0.00    +0.000 C 
ATOM     20  C   UNL     1       5.804   4.377  17.598  0.00  0.00    +0.000 C 
BRANCH  20  21
ATOM     21  C   UNL     1       5.555   4.577  19.084  0.00  0.00    +0.000 C 
ATOM     22  O   UNL     1       6.362   4.972  19.911  0.00  0.00    +0.000 OA
BRANCH  21  23
ATOM     23  O   UNL     1       4.299   4.143  19.378  0.00  0.00    +0.000 OA
BRANCH  23  24
ATOM     24  C   UNL     1       3.371   5.173  19.740  0.00  0.00    +0.000 C 
ATOM     25  C   UNL     1       1.969   4.651  19.483  0.00  0.00    +0.000 C 
ENDBRANCH  23  24
ENDBRANCH  21  23
ENDBRANCH  20  21
BRANCH  20  26
ATOM     26  O   UNL     1       5.049   3.353  17.008  0.00  0.00    +0.000 OA
ATOM     27  H   UNL     1       4.719   3.661  16.137  0.00  0.00    +0.000 HD
ENDBRANCH  20  26
BRANCH  19  28
ATOM     28  C   UNL     1       7.021   4.824  15.485  0.00  0.00    +0.000 C 
ATOM     29  O   UNL     1       7.819   5.489  14.835  0.00  0.00    +0.000 OA
BRANCH  28  30
ATOM     30  O   UNL     1       6.292   3.786  15.018  0.00  0.00    +0.000 OA
ATOM     31  C   UNL     1       6.071   3.819  13.606  0.00  0.00    +0.000 C 
ENDBRANCH  28  30
ENDBRANCH  19  28
ENDBRANCH  18  19
ENDBRANCH  17  18
ENDBRANCH   1  17
TORSDOF 21
ENDMDL
MODEL 2
REMARK VINA RESULT:      -6.1      5.188      8.967
REMARK  Name = 
REMARK  24 active torsions:
REMARK  status: ('A' for Active; 'I' for Inactive)
REMARK    1  A    between atoms: C_1  and  C_2
REMARK    2  A    between atoms: C_2  and  C_3
REMARK    3  A    between atoms: C_3  and  C_4
REMARK    4  A    between atoms: C_4  and  C_5
REMARK    5  A    between atoms: C_5  and  C_6
REMARK    6  A    between atoms: C_6  and  C_7
REMARK    7  A    between atoms: C_7  and  O_8
REMARK    8  A    between atoms: C_7  and  C_9
REMARK    9  A    between atoms: C_9  and  C_10
REMARK   10  A    between atoms: C_11  and  C_12
REMARK   11  A    between atoms: C_12  and  C_13
REMARK   12  A    between atoms: C_13  and  C_14
REMARK   13  A    between atoms: C_14  and  C_15
REMARK   14  A    between atoms: C_15  and  C_16
REMARK   15  A    between atoms: C_16  and  C_17
REMARK   16  A    between atoms: C_17  and  C_18
REMARK   17  A    between atoms: C_18  and  C_19
REMARK   18  A    between atoms: C_19  and  O_21
REMARK   19  A    between atoms: O_21  and  C_22
REMARK   20  A    between atoms: C_23  and  O_24
REMARK   21  A    between atoms: C_23  and  C_25
REMARK   22  A    between atoms: C_25  and  O_27
REMARK   23  A    between atoms: O_27  and  C_28
REMARK   24  A    between atoms: C_28  and  C_29
REMARK                            x       y       z     vdW  Elec       q    Type
REMARK                         _______ _______ _______ _____ _____    ______ ____
ROOT
ATOM      1  C   UNL     1       2.743   7.644  17.750  0.00  0.00    +0.000 C 
ENDROOT
BRANCH   1   2
ATOM      2  C   UNL     1       2.105   8.393  18.915  0.00  0.00    +0.000 C 
BRANCH   2   3
ATOM      3  C   UNL     1       1.824   7.460  20.086  0.00  0.00    +0.000 C 
BRANCH   3   4
ATOM      4  C   UNL     1       1.040   8.194  21.170  0.00  0.00    +0.000 C 
BRANCH   4   6
ATOM      5  C   UNL     1       0.998  10.681  21.361  0.00  0.00    +0.000 C 
ATOM      6  C   UNL     1       0.668   9.567  20.701  0.00  0.00    +0.000 C 
BRANCH   5   7
ATOM      7  C   UNL     1       0.612  12.053  20.902  0.00  0.00    +0.000 C 
BRANCH   7   8
ATOM      8  C   UNL     1      -0.503  12.621  21.784  0.00  0.00    +0.000 C 
BRANCH   8   9
ATOM      9  O   UNL     1      -0.570  11.889  23.009  0.00  0.00    +0.000 OA
ATOM     10  H   UNL     1      -1.503  11.668  23.173  0.00  0.00    +0.000 HD
ENDBRANCH   8   9
BRANCH   8  11
ATOM     11  C   UNL     1      -1.846  12.530  21.059  0.00  0.00    +0.000 C 
BRANCH  11  12
ATOM     12  C   UNL     1      -1.692  12.750  19.556  0.00  0.00    +0.000 C 
BRANCH  12  13
ATOM     13  C   UNL     1      -2.449  11.684  18.770  0.00  0.00    +0.000 C 
BRANCH  13  14
ATOM     14  C   UNL     1      -1.477  10.786  18.011  0.00  0.00    +0.000 C 
BRANCH  14  16
ATOM     15  C   UNL     1      -2.823  10.599  15.904  0.00  0.00    +0.000 C 
ATOM     16  C   UNL     1      -2.217   9.840  17.071  0.00  0.00    +0.000 C 
ENDBRANCH  14  16
ENDBRANCH  13  14
ENDBRANCH  12  13
ENDBRANCH  11  12
ENDBRANCH   8  11
ENDBRANCH   7   8
ENDBRANCH   5   7
ENDBRANCH   4   6
ENDBRANCH   3   4
ENDBRANCH   2   3
ENDBRANCH   1   2
BRANCH   1  17
ATOM     17  C   UNL     1       3.285   6.297  18.220  0.00  0.00    +0.000 C 
BRANCH  17  18
ATOM     18  C   UNL     1       4.012   5.571  17.086  0.00  0.00    +0.000 C 
BRANCH  18  19
ATOM     19  C   UNL     1       5.147   4.712  17.604  0.00  0.00    +0.000 C 
ATOM     20  C   UNL     1       6.443   4.835  17.201  0.00  0.00    +0.000 C 
BRANCH  20  21
ATOM     21  C   UNL     1       6.830   5.795  16.090  0.00  0.00    +0.000 C 
ATOM     22  O   UNL     1       6.432   5.772  14.935  0.00  0.00    +0.000 OA
BRANCH  21  23
ATOM     23  O   UNL     1       7.785   6.645  16.559  0.00  0.00    +0.000 OA
BRANCH  23  24
ATOM     24  C   UNL     1       7.288   7.763  17.305  0.00  0.00    +0.000 C 
ATOM     25  C   UNL     1       8.293   8.080  18.397  0.00  0.00    +0.000 C 
ENDBRANCH  23  24
ENDBRANCH  21  23
ENDBRANCH  20  21
BRANCH  20  26
ATOM     26  O   UNL     1       7.501   4.069  17.712  0.00  0.00    +0.000 OA
ATOM     27  H   UNL     1       7.765   3.401  17.044  0.00  0.00    +0.000 HD
ENDBRANCH  20  26
BRANCH  19  28
ATOM     28  C   UNL     1       4.790   3.681  18.645  0.00  0.00    +0.000 C 
ATOM     29  O   UNL     1       5.471   3.514  19.649  0.00  0.00    +0.000 OA
BRANCH  28  30
ATOM     30  O   UNL     1       3.676   2.987  18.321  0.00  0.00    +0.000 OA
ATOM     31  C   UNL     1       3.220   2.106  19.349  0.00  0.00    +0.000 C 
ENDBRANCH  28  30
ENDBRANCH  19  28
ENDBRANCH  18  19
ENDBRANCH  17  18
ENDBRANCH   1  17
TORSDOF 21
ENDMDL
MODEL 3
REMARK VINA RESULT:      -6.0      6.218      8.905
REMARK  Name = 
REMARK  24 active torsions:
REMARK  status: ('A' for Active; 'I' for Inactive)
REMARK    1  A    between atoms: C_1  and  C_2
REMARK    2  A    between atoms: C_2  and  C_3
REMARK    3  A    between atoms: C_3  and  C_4
REMARK    4  A    between atoms: C_4  and  C_5
REMARK    5  A    between atoms: C_5  and  C_6
REMARK    6  A    between atoms: C_6  and  C_7
REMARK    7  A    between atoms: C_7  and  O_8
REMARK    8  A    between atoms: C_7  and  C_9
REMARK    9  A    between atoms: C_9  and  C_10
REMARK   10  A    between atoms: C_11  and  C_12
REMARK   11  A    between atoms: C_12  and  C_13
REMARK   12  A    between atoms: C_13  and  C_14
REMARK   13  A    between atoms: C_14  and  C_15
REMARK   14  A    between atoms: C_15  and  C_16
REMARK   15  A    between atoms: C_16  and  C_17
REMARK   16  A    between atoms: C_17  and  C_18
REMARK   17  A    between atoms: C_18  and  C_19
REMARK   18  A    between atoms: C_19  and  O_21
REMARK   19  A    between atoms: O_21  and  C_22
REMARK   20  A    between atoms: C_23  and  O_24
REMARK   21  A    between atoms: C_23  and  C_25
REMARK   22  A    between atoms: C_25  and  O_27
REMARK   23  A    between atoms: O_27  and  C_28
REMARK   24  A    between atoms: C_28  and  C_29
REMARK                            x       y       z     vdW  Elec       q    Type
REMARK                         _______ _______ _______ _____ _____    ______ ____
ROOT
ATOM      1  C   UNL     1       3.028   6.884  18.155  0.00  0.00    +0.000 C 
ENDROOT
BRANCH   1   2
ATOM      2  C   UNL     1       2.760   8.277  17.595  0.00  0.00    +0.000 C 
BRANCH   2   3
ATOM      3  C   UNL     1       1.713   9.014  18.421  0.00  0.00    +0.000 C 
BRANCH   3   4
ATOM      4  C   UNL     1       1.680   8.463  19.844  0.00  0.00    +0.000 C 
BRANCH   4   6
ATOM      5  C   UNL     1       0.459   8.988  21.955  0.00  0.00    +0.000 C 
ATOM      6  C   UNL     1       0.597   9.131  20.633  0.00  0.00    +0.000 C 
BRANCH   5   7
ATOM      7  C   UNL     1      -0.634   9.641  22.742  0.00  0.00    +0.000 C 
BRANCH   7   8
ATOM      8  C   UNL     1      -0.601  11.159  22.552  0.00  0.00    +0.000 C 
BRANCH   8   9
ATOM      9  O   UNL     1      -1.695  11.758  23.250  0.00  0.00    +0.000 OA
ATOM     10  H   UNL     1      -2.288  11.045  23.542  0.00  0.00    +0.000 HD
ENDBRANCH   8   9
BRANCH   8  11
ATOM     11  C   UNL     1      -0.692  11.507  21.066  0.00  0.00    +0.000 C 
BRANCH  11  12
ATOM     12  C   UNL     1      -2.011  12.198  20.729  0.00  0.00    +0.000 C 
BRANCH  12  13
ATOM     13  C   UNL     1      -2.419  11.917  19.286  0.00  0.00    +0.000 C 
BRANCH  13  14
ATOM     14  C   UNL     1      -2.114  10.469  18.916  0.00  0.00    +0.000 C 
BRANCH  14  16
ATOM     15  C   UNL     1      -2.600  10.868  16.488  0.00  0.00    +0.000 C 
ATOM     16  C   UNL     1      -1.579  10.363  17.492  0.00  0.00    +0.000 C 
ENDBRANCH  14  16
ENDBRANCH  13  14
ENDBRANCH  12  13
ENDBRANCH  11  12
ENDBRANCH   8  11
ENDBRANCH   7   8
ENDBRANCH   5   7
ENDBRANCH   4   6
ENDBRANCH   3   4
ENDBRANCH   2   3
ENDBRANCH   1   2
BRANCH   1  17
ATOM     17  C   UNL     1       4.010   6.133  17.258  0.00  0.00    +0.000 C 
BRANCH  17  18
ATOM     18  C   UNL     1       3.778   4.622  17.333  0.00  0.00    +0.000 C 
BRANCH  18  19
ATOM     19  C   UNL     1       4.695   3.962  18.341  0.00  0.00    +0.000 C 
ATOM     20  C   UNL     1       4.320   2.933  19.154  0.00  0.00    +0.000 C 
BRANCH  20  21
ATOM     21  C   UNL     1       2.884   2.440  19.182  0.00  0.00    +0.000 C 
ATOM     22  O   UNL     1       2.223   2.065  18.226  0.00  0.00    +0.000 OA
BRANCH  21  23
ATOM     23  O   UNL     1       2.400   2.577  20.447  0.00  0.00    +0.000 OA
BRANCH  23  24
ATOM     24  C   UNL     1       1.119   3.213  20.541  0.00  0.00    +0.000 C 
ATOM     25  C   UNL     1       1.343   4.713  20.584  0.00  0.00    +0.000 C 
ENDBRANCH  23  24
ENDBRANCH  21  23
ENDBRANCH  20  21
BRANCH  20  26
ATOM     26  O   UNL     1       5.180   2.292  20.057  0.00  0.00    +0.000 OA
ATOM     27  H   UNL     1       6.086   2.655  19.948  0.00  0.00    +0.000 HD
ENDBRANCH  20  26
BRANCH  19  28
ATOM     28  C   UNL     1       6.107   4.483  18.411  0.00  0.00    +0.000 C 
ATOM     29  O   UNL     1       6.892   4.351  17.479  0.00  0.00    +0.000 OA
BRANCH  28  30
ATOM     30  O   UNL     1       6.380   5.074  19.596  0.00  0.00    +0.000 OA
ATOM     31  C   UNL     1       7.648   5.731  19.640  0.00  0.00    +0.000 C 
ENDBRANCH  28  30
ENDBRANCH  19  28
ENDBRANCH  18  19
ENDBRANCH  17  18
ENDBRANCH   1  17
TORSDOF 21
ENDMDL
MODEL 4
REMARK VINA RESULT:      -6.0      6.947      9.119
REMARK  Name = 
REMARK  24 active torsions:
REMARK  status: ('A' for Active; 'I' for Inactive)
REMARK    1  A    between atoms: C_1  and  C_2
REMARK    2  A    between atoms: C_2  and  C_3
REMARK    3  A    between atoms: C_3  and  C_4
REMARK    4  A    between atoms: C_4  and  C_5
REMARK    5  A    between atoms: C_5  and  C_6
REMARK    6  A    between atoms: C_6  and  C_7
REMARK    7  A    between atoms: C_7  and  O_8
REMARK    8  A    between atoms: C_7  and  C_9
REMARK    9  A    between atoms: C_9  and  C_10
REMARK   10  A    between atoms: C_11  and  C_12
REMARK   11  A    between atoms: C_12  and  C_13
REMARK   12  A    between atoms: C_13  and  C_14
REMARK   13  A    between atoms: C_14  and  C_15
REMARK   14  A    between atoms: C_15  and  C_16
REMARK   15  A    between atoms: C_16  and  C_17
REMARK   16  A    between atoms: C_17  and  C_18
REMARK   17  A    between atoms: C_18  and  C_19
REMARK   18  A    between atoms: C_19  and  O_21
REMARK   19  A    between atoms: O_21  and  C_22
REMARK   20  A    between atoms: C_23  and  O_24
REMARK   21  A    between atoms: C_23  and  C_25
REMARK   22  A    between atoms: C_25  and  O_27
REMARK   23  A    between atoms: O_27  and  C_28
REMARK   24  A    between atoms: C_28  and  C_29
REMARK                            x       y       z     vdW  Elec       q    Type
REMARK                         _______ _______ _______ _____ _____    ______ ____
ROOT
ATOM      1  C   UNL     1       2.346   7.970  18.453  0.00  0.00    +0.000 C 
ENDROOT
BRANCH   1   2
ATOM      2  C   UNL     1       1.526   8.720  19.498  0.00  0.00    +0.000 C 
BRANCH   2   3
ATOM      3  C   UNL     1       1.420   7.927  20.794  0.00  0.00    +0.000 C 
BRANCH   3   4
ATOM      4  C   UNL     1       1.270   8.873  21.982  0.00  0.00    +0.000 C 
BRANCH   4   6
ATOM      5  C   UNL     1      -0.419  10.574  22.671  0.00  0.00    +0.000 C 
ATOM      6  C   UNL     1       0.198   9.882  21.708  0.00  0.00    +0.000 C 
BRANCH   5   7
ATOM      7  C   UNL     1      -1.503  11.570  22.400  0.00  0.00    +0.000 C 
BRANCH   7   8
ATOM      8  C   UNL     1      -0.910  12.960  22.160  0.00  0.00    +0.000 C 
BRANCH   8   9
ATOM      9  O   UNL     1      -1.516  13.903  23.046  0.00  0.00    +0.000 OA
ATOM     10  H   UNL     1      -1.795  13.425  23.846  0.00  0.00    +0.000 HD
ENDBRANCH   8   9
BRANCH   8  11
ATOM     11  C   UNL     1      -1.148  13.393  20.713  0.00  0.00    +0.000 C 
BRANCH  11  12
ATOM     12  C   UNL     1       0.129  13.301  19.881  0.00  0.00    +0.000 C 
BRANCH  12  13
ATOM     13  C   UNL     1       0.014  12.203  18.828  0.00  0.00    +0.000 C 
BRANCH  13  14
ATOM     14  C   UNL     1      -1.448  11.838  18.593  0.00  0.00    +0.000 C 
BRANCH  14  16
ATOM     15  C   UNL     1      -2.712   9.960  17.513  0.00  0.00    +0.000 C 
ATOM     16  C   UNL     1      -1.636  10.326  18.520  0.00  0.00    +0.000 C 
ENDBRANCH  14  16
ENDBRANCH  13  14
ENDBRANCH  12  13
ENDBRANCH  11  12
ENDBRANCH   8  11
ENDBRANCH   7   8
ENDBRANCH   5   7
ENDBRANCH   4   6
ENDBRANCH   3   4
ENDBRANCH   2   3
ENDBRANCH   1   2
BRANCH   1  17
ATOM     17  C   UNL     1       2.672   6.563  18.948  0.00  0.00    +0.000 C 
BRANCH  17  18
ATOM     18  C   UNL     1       2.243   5.507  17.926  0.00  0.00    +0.000 C 
BRANCH  18  19
ATOM     19  C   UNL     1       2.770   4.133  18.281  0.00  0.00    +0.000 C 
ATOM     20  C   UNL     1       4.057   3.733  18.078  0.00  0.00    +0.000 C 
BRANCH  20  21
ATOM     21  C   UNL     1       5.051   4.629  17.358  0.00  0.00    +0.000 C 
ATOM     22  O   UNL     1       5.820   5.426  17.872  0.00  0.00    +0.000 OA
BRANCH  21  23
ATOM     23  O   UNL     1       4.881   4.479  16.015  0.00  0.00    +0.000 OA
BRANCH  23  24
ATOM     24  C   UNL     1       5.647   5.377  15.203  0.00  0.00    +0.000 C 
ATOM     25  C   UNL     1       6.701   4.564  14.473  0.00  0.00    +0.000 C 
ENDBRANCH  23  24
ENDBRANCH  21  23
ENDBRANCH  20  21
BRANCH  20  26
ATOM     26  O   UNL     1       4.557   2.476  18.446  0.00  0.00    +0.000 OA
ATOM     27  H   UNL     1       4.022   1.779  18.010  0.00  0.00    +0.000 HD
ENDBRANCH  20  26
BRANCH  19  28
ATOM     28  C   UNL     1       1.791   3.179  18.916  0.00  0.00    +0.000 C 
ATOM     29  O   UNL     1       0.766   2.828  18.343  0.00  0.00    +0.000 OA
BRANCH  28  30
ATOM     30  O   UNL     1       2.174   2.797  20.155  0.00  0.00    +0.000 OA
ATOM     31  C   UNL     1       1.796   3.709  21.188  0.00  0.00    +0.000 C 
ENDBRANCH  28  30
ENDBRANCH  19  28
ENDBRANCH  18  19
ENDBRANCH  17  18
ENDBRANCH   1  17
TORSDOF 21
ENDMDL
MODEL 5
REMARK VINA RESULT:      -6.0      5.742     10.892
REMARK  Name = 
REMARK  24 active torsions:
REMARK  status: ('A' for Active; 'I' for Inactive)
REMARK    1  A    between atoms: C_1  and  C_2
REMARK    2  A    between atoms: C_2  and  C_3
REMARK    3  A    between atoms: C_3  and  C_4
REMARK    4  A    between atoms: C_4  and  C_5
REMARK    5  A    between atoms: C_5  and  C_6
REMARK    6  A    between atoms: C_6  and  C_7
REMARK    7  A    between atoms: C_7  and  O_8
REMARK    8  A    between atoms: C_7  and  C_9
REMARK    9  A    between atoms: C_9  and  C_10
REMARK   10  A    between atoms: C_11  and  C_12
REMARK   11  A    between atoms: C_12  and  C_13
REMARK   12  A    between atoms: C_13  and  C_14
REMARK   13  A    between atoms: C_14  and  C_15
REMARK   14  A    between atoms: C_15  and  C_16
REMARK   15  A    between atoms: C_16  and  C_17
REMARK   16  A    between atoms: C_17  and  C_18
REMARK   17  A    between atoms: C_18  and  C_19
REMARK   18  A    between atoms: C_19  and  O_21
REMARK   19  A    between atoms: O_21  and  C_22
REMARK   20  A    between atoms: C_23  and  O_24
REMARK   21  A    between atoms: C_23  and  C_25
REMARK   22  A    between atoms: C_25  and  O_27
REMARK   23  A    between atoms: O_27  and  C_28
REMARK   24  A    between atoms: C_28  and  C_29
REMARK                            x       y       z     vdW  Elec       q    Type
REMARK                         _______ _______ _______ _____ _____    ______ ____
ROOT
ATOM      1  C   UNL     1       2.446   8.318  17.876  0.00  0.00    +0.000 C 
ENDROOT
BRANCH   1   2
ATOM      2  C   UNL     1       1.656   7.495  18.889  0.00  0.00    +0.000 C 
BRANCH   2   3
ATOM      3  C   UNL     1       2.579   6.642  19.750  0.00  0.00    +0.000 C 
BRANCH   3   4
ATOM      4  C   UNL     1       1.760   5.725  20.654  0.00  0.00    +0.000 C 
BRANCH   4   6
ATOM      5  C   UNL     1       1.493   3.710  19.208  0.00  0.00    +0.000 C 
ATOM      6  C   UNL     1       2.005   4.292  20.297  0.00  0.00    +0.000 C 
BRANCH   5   7
ATOM      7  C   UNL     1       1.723   2.272  18.861  0.00  0.00    +0.000 C 
BRANCH   7   8
ATOM      8  C   UNL     1       2.709   2.152  17.696  0.00  0.00    +0.000 C 
BRANCH   8   9
ATOM      9  O   UNL     1       3.875   1.445  18.122  0.00  0.00    +0.000 OA
ATOM     10  H   UNL     1       4.506   1.438  17.382  0.00  0.00    +0.000 HD
ENDBRANCH   8   9
BRANCH   8  11
ATOM     11  C   UNL     1       3.108   3.541  17.197  0.00  0.00    +0.000 C 
BRANCH  11  12
ATOM     12  C   UNL     1       4.578   3.840  17.480  0.00  0.00    +0.000 C 
BRANCH  12  13
ATOM     13  C   UNL     1       5.114   4.893  16.515  0.00  0.00    +0.000 C 
BRANCH  13  14
ATOM     14  C   UNL     1       5.313   6.225  17.232  0.00  0.00    +0.000 C 
BRANCH  14  16
ATOM     15  C   UNL     1       7.552   6.005  18.340  0.00  0.00    +0.000 C 
ATOM     16  C   UNL     1       6.776   6.654  17.208  0.00  0.00    +0.000 C 
ENDBRANCH  14  16
ENDBRANCH  13  14
ENDBRANCH  12  13
ENDBRANCH  11  12
ENDBRANCH   8  11
ENDBRANCH   7   8
ENDBRANCH   5   7
ENDBRANCH   4   6
ENDBRANCH   3   4
ENDBRANCH   2   3
ENDBRANCH   1   2
BRANCH   1  17
ATOM     17  C   UNL     1       1.917   9.750  17.830  0.00  0.00    +0.000 C 
BRANCH  17  18
ATOM     18  C   UNL     1       0.904   9.998  18.951  0.00  0.00    +0.000 C 
BRANCH  18  19
ATOM     19  C   UNL     1      -0.073  11.097  18.591  0.00  0.00    +0.000 C 
ATOM     20  C   UNL     1       0.211  12.428  18.673  0.00  0.00    +0.000 C 
BRANCH  20  21
ATOM     21  C   UNL     1       1.528  12.914  19.253  0.00  0.00    +0.000 C 
ATOM     22  O   UNL     1       1.778  13.103  20.434  0.00  0.00    +0.000 OA
BRANCH  21  23
ATOM     23  O   UNL     1       2.374  13.208  18.229  0.00  0.00    +0.000 OA
BRANCH  23  24
ATOM     24  C   UNL     1       2.796  14.576  18.165  0.00  0.00    +0.000 C 
ATOM     25  C   UNL     1       4.313  14.600  18.215  0.00  0.00    +0.000 C 
ENDBRANCH  23  24
ENDBRANCH  21  23
ENDBRANCH  20  21
BRANCH  20  26
ATOM     26  O   UNL     1      -0.679  13.446  18.299  0.00  0.00    +0.000 OA
ATOM     27  H   UNL     1      -0.179  14.155  17.841  0.00  0.00    +0.000 HD
ENDBRANCH  20  26
BRANCH  19  28
ATOM     28  C   UNL     1      -1.428  10.659  18.096  0.00  0.00    +0.000 C 
ATOM     29  O   UNL     1      -1.553   9.827  17.206  0.00  0.00    +0.000 OA
BRANCH  28  30
ATOM     30  O   UNL     1      -2.438  11.296  18.730  0.00  0.00    +0.000 OA
ATOM     31  C   UNL     1      -3.685  11.247  18.033  0.00  0.00    +0.000 C 
ENDBRANCH  28  30
ENDBRANCH  19  28
ENDBRANCH  18  19
ENDBRANCH  17  18
ENDBRANCH   1  17
TORSDOF 21
ENDMDL
MODEL 6
REMARK VINA RESULT:      -6.0      5.870      8.909
REMARK  Name = 
REMARK  24 active torsions:
REMARK  status: ('A' for Active; 'I' for Inactive)
REMARK    1  A    between atoms: C_1  and  C_2
REMARK    2  A    between atoms: C_2  and  C_3
REMARK    3  A    between atoms: C_3  and  C_4
REMARK    4  A    between atoms: C_4  and  C_5
REMARK    5  A    between atoms: C_5  and  C_6
REMARK    6  A    between atoms: C_6  and  C_7
REMARK    7  A    between atoms: C_7  and  O_8
REMARK    8  A    between atoms: C_7  and  C_9
REMARK    9  A    between atoms: C_9  and  C_10
REMARK   10  A    between atoms: C_11  and  C_12
REMARK   11  A    between atoms: C_12  and  C_13
REMARK   12  A    between atoms: C_13  and  C_14
REMARK   13  A    between atoms: C_14  and  C_15
REMARK   14  A    between atoms: C_15  and  C_16
REMARK   15  A    between atoms: C_16  and  C_17
REMARK   16  A    between atoms: C_17  and  C_18
REMARK   17  A    between atoms: C_18  and  C_19
REMARK   18  A    between atoms: C_19  and  O_21
REMARK   19  A    between atoms: O_21  and  C_22
REMARK   20  A    between atoms: C_23  and  O_24
REMARK   21  A    between atoms: C_23  and  C_25
REMARK   22  A    between atoms: C_25  and  O_27
REMARK   23  A    between atoms: O_27  and  C_28
REMARK   24  A    between atoms: C_28  and  C_29
REMARK                            x       y       z     vdW  Elec       q    Type
REMARK                         _______ _______ _______ _____ _____    ______ ____
ROOT
ATOM      1  C   UNL     1       2.608   8.218  17.614  0.00  0.00    +0.000 C 
ENDROOT
BRANCH   1   2
ATOM      2  C   UNL     1       1.295   8.686  18.234  0.00  0.00    +0.000 C 
BRANCH   2   3
ATOM      3  C   UNL     1       1.511   9.235  19.639  0.00  0.00    +0.000 C 
BRANCH   3   4
ATOM      4  C   UNL     1       1.062   8.213  20.679  0.00  0.00    +0.000 C 
BRANCH   4   6
ATOM      5  C   UNL     1       0.138   9.829  22.339  0.00  0.00    +0.000 C 
ATOM      6  C   UNL     1      -0.034   8.782  21.526  0.00  0.00    +0.000 C 
BRANCH   5   7
ATOM      7  C   UNL     1      -0.953  10.388  23.199  0.00  0.00    +0.000 C 
BRANCH   7   8
ATOM      8  C   UNL     1      -1.267  11.832  22.799  0.00  0.00    +0.000 C 
BRANCH   8   9
ATOM      9  O   UNL     1      -2.680  12.003  22.676  0.00  0.00    +0.000 OA
ATOM     10  H   UNL     1      -3.004  11.352  22.030  0.00  0.00    +0.000 HD
ENDBRANCH   8   9
BRANCH   8  11
ATOM     11  C   UNL     1      -0.593  12.169  21.468  0.00  0.00    +0.000 C 
BRANCH  11  12
ATOM     12  C   UNL     1      -1.589  12.142  20.311  0.00  0.00    +0.000 C 
BRANCH  12  13
ATOM     13  C   UNL     1      -0.866  12.205  18.970  0.00  0.00    +0.000 C 
BRANCH  13  14
ATOM     14  C   UNL     1      -1.780  11.727  17.846  0.00  0.00    +0.000 C 
BRANCH  14  16
ATOM     15  C   UNL     1      -3.265   9.718  17.638  0.00  0.00    +0.000 C 
ATOM     16  C   UNL     1      -1.835  10.204  17.786  0.00  0.00    +0.000 C 
ENDBRANCH  14  16
ENDBRANCH  13  14
ENDBRANCH  12  13
ENDBRANCH  11  12
ENDBRANCH   8  11
ENDBRANCH   7   8
ENDBRANCH   5   7
ENDBRANCH   4   6
ENDBRANCH   3   4
ENDBRANCH   2   3
ENDBRANCH   1   2
BRANCH   1  17
ATOM     17  C   UNL     1       3.231   7.114  18.464  0.00  0.00    +0.000 C 
BRANCH  17  18
ATOM     18  C   UNL     1       3.164   5.764  17.746  0.00  0.00    +0.000 C 
BRANCH  18  19
ATOM     19  C   UNL     1       4.365   4.898  18.064  0.00  0.00    +0.000 C 
ATOM     20  C   UNL     1       4.400   3.982  19.074  0.00  0.00    +0.000 C 
BRANCH  20  21
ATOM     21  C   UNL     1       3.241   3.845  20.046  0.00  0.00    +0.000 C 
ATOM     22  O   UNL     1       2.808   4.710  20.791  0.00  0.00    +0.000 OA
BRANCH  21  23
ATOM     23  O   UNL     1       2.812   2.552  20.035  0.00  0.00    +0.000 OA
BRANCH  23  24
ATOM     24  C   UNL     1       1.394   2.383  20.151  0.00  0.00    +0.000 C 
ATOM     25  C   UNL     1       0.795   2.493  18.761  0.00  0.00    +0.000 C 
ENDBRANCH  23  24
ENDBRANCH  21  23
ENDBRANCH  20  21
BRANCH  20  26
ATOM     26  O   UNL     1       5.496   3.150  19.342  0.00  0.00    +0.000 OA
ATOM     27  H   UNL     1       5.698   3.186  20.302  0.00  0.00    +0.000 HD
ENDBRANCH  20  26
BRANCH  19  28
ATOM     28  C   UNL     1       5.573   5.068  17.178  0.00  0.00    +0.000 C 
ATOM     29  O   UNL     1       5.943   4.186  16.414  0.00  0.00    +0.000 OA
BRANCH  28  30
ATOM     30  O   UNL     1       6.172   6.268  17.351  0.00  0.00    +0.000 OA
ATOM     31  C   UNL     1       7.352   6.218  18.156  0.00  0.00    +0.000 C 
ENDBRANCH  28  30
ENDBRANCH  19  28
ENDBRANCH  18  19
ENDBRANCH  17  18
ENDBRANCH   1  17
TORSDOF 21
ENDMDL
MODEL 7
REMARK VINA RESULT:      -5.9      5.747      8.643
REMARK  Name = 
REMARK  24 active torsions:
REMARK  status: ('A' for Active; 'I' for Inactive)
REMARK    1  A    between atoms: C_1  and  C_2
REMARK    2  A    between atoms: C_2  and  C_3
REMARK    3  A    between atoms: C_3  and  C_4
REMARK    4  A    between atoms: C_4  and  C_5
REMARK    5  A    between atoms: C_5  and  C_6
REMARK    6  A    between atoms: C_6  and  C_7
REMARK    7  A    between atoms: C_7  and  O_8
REMARK    8  A    between atoms: C_7  and  C_9
REMARK    9  A    between atoms: C_9  and  C_10
REMARK   10  A    between atoms: C_11  and  C_12
REMARK   11  A    between atoms: C_12  and  C_13
REMARK   12  A    between atoms: C_13  and  C_14
REMARK   13  A    between atoms: C_14  and  C_15
REMARK   14  A    between atoms: C_15  and  C_16
REMARK   15  A    between atoms: C_16  and  C_17
REMARK   16  A    between atoms: C_17  and  C_18
REMARK   17  A    between atoms: C_18  and  C_19
REMARK   18  A    between atoms: C_19  and  O_21
REMARK   19  A    between atoms: O_21  and  C_22
REMARK   20  A    between atoms: C_23  and  O_24
REMARK   21  A    between atoms: C_23  and  C_25
REMARK   22  A    between atoms: C_25  and  O_27
REMARK   23  A    between atoms: O_27  and  C_28
REMARK   24  A    between atoms: C_28  and  C_29
REMARK                            x       y       z     vdW  Elec       q    Type
REMARK                         _______ _______ _______ _____ _____    ______ ____
ROOT
ATOM      1  C   UNL     1       2.877   5.200  20.139  0.00  0.00    +0.000 C 
ENDROOT
BRANCH   1   2
ATOM      2  C   UNL     1       1.635   5.980  20.556  0.00  0.00    +0.000 C 
BRANCH   2   3
ATOM      3  C   UNL     1       1.833   7.479  20.367  0.00  0.00    +0.000 C 
BRANCH   3   4
ATOM      4  C   UNL     1       0.916   8.255  21.309  0.00  0.00    +0.000 C 
BRANCH   4   6
ATOM      5  C   UNL     1       0.141  10.621  21.475  0.00  0.00    +0.000 C 
ATOM      6  C   UNL     1       1.044   9.726  21.059  0.00  0.00    +0.000 C 
BRANCH   5   7
ATOM      7  C   UNL     1       0.258  12.089  21.210  0.00  0.00    +0.000 C 
BRANCH   7   8
ATOM      8  C   UNL     1       0.549  12.348  19.730  0.00  0.00    +0.000 C 
BRANCH   8   9
ATOM      9  O   UNL     1       1.821  12.983  19.591  0.00  0.00    +0.000 OA
ATOM     10  H   UNL     1       2.001  13.086  18.641  0.00  0.00    +0.000 HD
ENDBRANCH   8   9
BRANCH   8  11
ATOM     11  C   UNL     1      -0.537  13.240  19.128  0.00  0.00    +0.000 C 
BRANCH  11  12
ATOM     12  C   UNL     1      -1.873  13.063  19.845  0.00  0.00    +0.000 C 
BRANCH  12  13
ATOM     13  C   UNL     1      -2.646  11.880  19.269  0.00  0.00    +0.000 C 
BRANCH  13  14
ATOM     14  C   UNL     1      -2.286  11.669  17.802  0.00  0.00    +0.000 C 
BRANCH  14  16
ATOM     15  C   UNL     1      -0.700   9.728  17.733  0.00  0.00    +0.000 C 
ATOM     16  C   UNL     1      -2.125  10.186  17.481  0.00  0.00    +0.000 C 
ENDBRANCH  14  16
ENDBRANCH  13  14
ENDBRANCH  12  13
ENDBRANCH  11  12
ENDBRANCH   8  11
ENDBRANCH   7   8
ENDBRANCH   5   7
ENDBRANCH   4   6
ENDBRANCH   3   4
ENDBRANCH   2   3
ENDBRANCH   1   2
BRANCH   1  17
ATOM     17  C   UNL     1       3.646   5.964  19.064  0.00  0.00    +0.000 C 
BRANCH  17  18
ATOM     18  C   UNL     1       3.189   5.550  17.663  0.00  0.00    +0.000 C 
BRANCH  18  19
ATOM     19  C   UNL     1       3.874   4.281  17.200  0.00  0.00    +0.000 C 
ATOM     20  C   UNL     1       5.050   4.256  16.512  0.00  0.00    +0.000 C 
BRANCH  20  21
ATOM     21  C   UNL     1       5.716   5.541  16.051  0.00  0.00    +0.000 C 
ATOM     22  O   UNL     1       5.295   6.319  15.208  0.00  0.00    +0.000 OA
BRANCH  21  23
ATOM     23  O   UNL     1       6.929   5.649  16.661  0.00  0.00    +0.000 OA
BRANCH  23  24
ATOM     24  C   UNL     1       7.012   6.661  17.672  0.00  0.00    +0.000 C 
ATOM     25  C   UNL     1       7.750   6.075  18.861  0.00  0.00    +0.000 C 
ENDBRANCH  23  24
ENDBRANCH  21  23
ENDBRANCH  20  21
BRANCH  20  26
ATOM     26  O   UNL     1       5.707   3.080  16.121  0.00  0.00    +0.000 OA
ATOM     27  H   UNL     1       6.612   3.306  15.815  0.00  0.00    +0.000 HD
ENDBRANCH  20  26
BRANCH  19  28
ATOM     28  C   UNL     1       3.198   2.982  17.558  0.00  0.00    +0.000 C 
ATOM     29  O   UNL     1       3.837   1.989  17.883  0.00  0.00    +0.000 OA
BRANCH  28  30
ATOM     30  O   UNL     1       1.852   3.058  17.456  0.00  0.00    +0.000 OA
ATOM     31  C   UNL     1       1.152   2.476  18.558  0.00  0.00    +0.000 C 
ENDBRANCH  28  30
ENDBRANCH  19  28
ENDBRANCH  18  19
ENDBRANCH  17  18
ENDBRANCH   1  17
TORSDOF 21
ENDMDL
MODEL 8
REMARK VINA RESULT:      -5.9      6.107      9.423
REMARK  Name = 
REMARK  24 active torsions:
REMARK  status: ('A' for Active; 'I' for Inactive)
REMARK    1  A    between atoms: C_1  and  C_2
REMARK    2  A    between atoms: C_2  and  C_3
REMARK    3  A    between atoms: C_3  and  C_4
REMARK    4  A    between atoms: C_4  and  C_5
REMARK    5  A    between atoms: C_5  and  C_6
REMARK    6  A    between atoms: C_6  and  C_7
REMARK    7  A    between atoms: C_7  and  O_8
REMARK    8  A    between atoms: C_7  and  C_9
REMARK    9  A    between atoms: C_9  and  C_10
REMARK   10  A    between atoms: C_11  and  C_12
REMARK   11  A    between atoms: C_12  and  C_13
REMARK   12  A    between atoms: C_13  and  C_14
REMARK   13  A    between atoms: C_14  and  C_15
REMARK   14  A    between atoms: C_15  and  C_16
REMARK   15  A    between atoms: C_16  and  C_17
REMARK   16  A    between atoms: C_17  and  C_18
REMARK   17  A    between atoms: C_18  and  C_19
REMARK   18  A    between atoms: C_19  and  O_21
REMARK   19  A    between atoms: O_21  and  C_22
REMARK   20  A    between atoms: C_23  and  O_24
REMARK   21  A    between atoms: C_23  and  C_25
REMARK   22  A    between atoms: C_25  and  O_27
REMARK   23  A    between atoms: O_27  and  C_28
REMARK   24  A    between atoms: C_28  and  C_29
REMARK                            x       y       z     vdW  Elec       q    Type
REMARK                         _______ _______ _______ _____ _____    ______ ____
ROOT
ATOM      1  C   UNL     1       2.659   5.569  18.131  0.00  0.00    +0.000 C 
ENDROOT
BRANCH   1   2
ATOM      2  C   UNL     1       1.883   6.350  19.186  0.00  0.00    +0.000 C 
BRANCH   2   3
ATOM      3  C   UNL     1       2.274   7.823  19.183  0.00  0.00    +0.000 C 
BRANCH   3   4
ATOM      4  C   UNL     1       1.882   8.470  17.858  0.00  0.00    +0.000 C 
BRANCH   4   6
ATOM      5  C   UNL     1       0.775  10.303  19.137  0.00  0.00    +0.000 C 
ATOM      6  C   UNL     1       1.479   9.895  18.076  0.00  0.00    +0.000 C 
BRANCH   5   7
ATOM      7  C   UNL     1       0.356  11.725  19.347  0.00  0.00    +0.000 C 
BRANCH   7   8
ATOM      8  C   UNL     1      -0.871  12.056  18.495  0.00  0.00    +0.000 C 
BRANCH   8   9
ATOM      9  O   UNL     1      -1.352  13.360  18.827  0.00  0.00    +0.000 OA
ATOM     10  H   UNL     1      -1.690  13.330  19.738  0.00  0.00    +0.000 HD
ENDBRANCH   8   9
BRANCH   8  11
ATOM     11  C   UNL     1      -1.975  11.027  18.738  0.00  0.00    +0.000 C 
BRANCH  11  12
ATOM     12  C   UNL     1      -2.209  10.152  17.509  0.00  0.00    +0.000 C 
BRANCH  12  13
ATOM     13  C   UNL     1      -2.652  10.995  16.317  0.00  0.00    +0.000 C 
BRANCH  13  14
ATOM     14  C   UNL     1      -4.150  10.836  16.075  0.00  0.00    +0.000 C 
BRANCH  14  16
ATOM     15  C   UNL     1      -5.746  11.191  17.977  0.00  0.00    +0.000 C 
ATOM     16  C   UNL     1      -4.950  11.862  16.872  0.00  0.00    +0.000 C 
ENDBRANCH  14  16
ENDBRANCH  13  14
ENDBRANCH  12  13
ENDBRANCH  11  12
ENDBRANCH   8  11
ENDBRANCH   7   8
ENDBRANCH   5   7
ENDBRANCH   4   6
ENDBRANCH   3   4
ENDBRANCH   2   3
ENDBRANCH   1   2
BRANCH   1  17
ATOM     17  C   UNL     1       3.956   6.294  17.782  0.00  0.00    +0.000 C 
BRANCH  17  18
ATOM     18  C   UNL     1       4.761   5.511  16.742  0.00  0.00    +0.000 C 
BRANCH  18  19
ATOM     19  C   UNL     1       6.011   4.901  17.342  0.00  0.00    +0.000 C 
ATOM     20  C   UNL     1       7.119   4.568  16.621  0.00  0.00    +0.000 C 
BRANCH  20  21
ATOM     21  C   UNL     1       7.134   4.688  15.107  0.00  0.00    +0.000 C 
ATOM     22  O   UNL     1       7.608   5.604  14.452  0.00  0.00    +0.000 OA
BRANCH  21  23
ATOM     23  O   UNL     1       6.434   3.646  14.579  0.00  0.00    +0.000 OA
BRANCH  23  24
ATOM     24  C   UNL     1       5.586   3.983  13.474  0.00  0.00    +0.000 C 
ATOM     25  C   UNL     1       6.117   3.270  12.244  0.00  0.00    +0.000 C 
ENDBRANCH  23  24
ENDBRANCH  21  23
ENDBRANCH  20  21
BRANCH  20  26
ATOM     26  O   UNL     1       8.293   4.043  17.181  0.00  0.00    +0.000 OA
ATOM     27  H   UNL     1       9.016   4.699  17.082  0.00  0.00    +0.000 HD
ENDBRANCH  20  26
BRANCH  19  28
ATOM     28  C   UNL     1       6.004   4.679  18.833  0.00  0.00    +0.000 C 
ATOM     29  O   UNL     1       5.526   3.669  19.334  0.00  0.00    +0.000 OA
BRANCH  28  30
ATOM     30  O   UNL     1       6.558   5.711  19.509  0.00  0.00    +0.000 OA
ATOM     31  C   UNL     1       7.903   5.476  19.930  0.00  0.00    +0.000 C 
ENDBRANCH  28  30
ENDBRANCH  19  28
ENDBRANCH  18  19
ENDBRANCH  17  18
ENDBRANCH   1  17
TORSDOF 21
ENDMDL
MODEL 9
REMARK VINA RESULT:      -5.9      5.678      7.917
REMARK  Name = 
REMARK  24 active torsions:
REMARK  status: ('A' for Active; 'I' for Inactive)
REMARK    1  A    between atoms: C_1  and  C_2
REMARK    2  A    between atoms: C_2  and  C_3
REMARK    3  A    between atoms: C_3  and  C_4
REMARK    4  A    between atoms: C_4  and  C_5
REMARK    5  A    between atoms: C_5  and  C_6
REMARK    6  A    between atoms: C_6  and  C_7
REMARK    7  A    between atoms: C_7  and  O_8
REMARK    8  A    between atoms: C_7  and  C_9
REMARK    9  A    between atoms: C_9  and  C_10
REMARK   10  A    between atoms: C_11  and  C_12
REMARK   11  A    between atoms: C_12  and  C_13
REMARK   12  A    between atoms: C_13  and  C_14
REMARK   13  A    between atoms: C_14  and  C_15
REMARK   14  A    between atoms: C_15  and  C_16
REMARK   15  A    between atoms: C_16  and  C_17
REMARK   16  A    between atoms: C_17  and  C_18
REMARK   17  A    between atoms: C_18  and  C_19
REMARK   18  A    between atoms: C_19  and  O_21
REMARK   19  A    between atoms: O_21  and  C_22
REMARK   20  A    between atoms: C_23  and  O_24
REMARK   21  A    between atoms: C_23  and  C_25
REMARK   22  A    between atoms: C_25  and  O_27
REMARK   23  A    between atoms: O_27  and  C_28
REMARK   24  A    between atoms: C_28  and  C_29
REMARK                            x       y       z     vdW  Elec       q    Type
REMARK                         _______ _______ _______ _____ _____    ______ ____
ROOT
ATOM      1  C   UNL     1       2.824   6.352  19.771  0.00  0.00    +0.000 C 
ENDROOT
BRANCH   1   2
ATOM      2  C   UNL     1       1.638   6.779  20.629  0.00  0.00    +0.000 C 
BRANCH   2   3
ATOM      3  C   UNL     1       1.558   8.296  20.747  0.00  0.00    +0.000 C 
BRANCH   3   4
ATOM      4  C   UNL     1       0.274   8.703  21.465  0.00  0.00    +0.000 C 
BRANCH   4   6
ATOM      5  C   UNL     1      -0.389  10.884  20.452  0.00  0.00    +0.000 C 
ATOM      6  C   UNL     1      -0.567   9.565  20.575  0.00  0.00    +0.000 C 
BRANCH   5   7
ATOM      7  C   UNL     1      -1.240  11.749  19.576  0.00  0.00    +0.000 C 
BRANCH   7   8
ATOM      8  C   UNL     1      -0.372  12.717  18.769  0.00  0.00    +0.000 C 
BRANCH   8   9
ATOM      9  O   UNL     1      -0.925  12.888  17.463  0.00  0.00    +0.000 OA
ATOM     10  H   UNL     1      -1.418  12.080  17.239  0.00  0.00    +0.000 HD
ENDBRANCH   8   9
BRANCH   8  11
ATOM     11  C   UNL     1       1.053  12.177  18.654  0.00  0.00    +0.000 C 
BRANCH  11  12
ATOM     12  C   UNL     1       2.023  13.248  18.159  0.00  0.00    +0.000 C 
BRANCH  12  13
ATOM     13  C   UNL     1       2.138  14.386  19.169  0.00  0.00    +0.000 C 
BRANCH  13  14
ATOM     14  C   UNL     1       2.882  13.921  20.417  0.00  0.00    +0.000 C 
BRANCH  14  16
ATOM     15  C   UNL     1       0.894  15.045  21.452  0.00  0.00    +0.000 C 
ATOM     16  C   UNL     1       2.322  14.581  21.673  0.00  0.00    +0.000 C 
ENDBRANCH  14  16
ENDBRANCH  13  14
ENDBRANCH  12  13
ENDBRANCH  11  12
ENDBRANCH   8  11
ENDBRANCH   7   8
ENDBRANCH   5   7
ENDBRANCH   4   6
ENDBRANCH   3   4
ENDBRANCH   2   3
ENDBRANCH   1   2
BRANCH   1  17
ATOM     17  C   UNL     1       2.358   6.012  18.357  0.00  0.00    +0.000 C 
BRANCH  17  18
ATOM     18  C   UNL     1       3.386   5.137  17.635  0.00  0.00    +0.000 C 
BRANCH  18  19
ATOM     19  C   UNL     1       3.673   3.861  18.399  0.00  0.00    +0.000 C 
ATOM     20  C   UNL     1       4.865   3.581  18.998  0.00  0.00    +0.000 C 
BRANCH  20  21
ATOM     21  C   UNL     1       6.057   4.509  18.841  0.00  0.00    +0.000 C 
ATOM     22  O   UNL     1       6.400   5.392  19.612  0.00  0.00    +0.000 OA
BRANCH  21  23
ATOM     23  O   UNL     1       6.641   4.270  17.634  0.00  0.00    +0.000 OA
BRANCH  23  24
ATOM     24  C   UNL     1       6.960   5.440  16.872  0.00  0.00    +0.000 C 
ATOM     25  C   UNL     1       6.945   5.060  15.403  0.00  0.00    +0.000 C 
ENDBRANCH  23  24
ENDBRANCH  21  23
ENDBRANCH  20  21
BRANCH  20  26
ATOM     26  O   UNL     1       5.117   2.419  19.741  0.00  0.00    +0.000 OA
ATOM     27  H   UNL     1       4.262   2.005  19.987  0.00  0.00    +0.000 HD
ENDBRANCH  20  26
BRANCH  19  28
ATOM     28  C   UNL     1       2.543   2.868  18.501  0.00  0.00    +0.000 C 
ATOM     29  O   UNL     1       1.959   2.449  17.509  0.00  0.00    +0.000 OA
BRANCH  28  30
ATOM     30  O   UNL     1       2.264   2.536  19.782  0.00  0.00    +0.000 OA
ATOM     31  C   UNL     1       1.034   3.076  20.269  0.00  0.00    +0.000 C 
ENDBRANCH  28  30
ENDBRANCH  19  28
ENDBRANCH  18  19
ENDBRANCH  17  18
ENDBRANCH   1  17
TORSDOF 21
ENDMDL
