MODEL 1
REMARK VINA RESULT:      -7.2      0.000      0.000
REMARK  Name = 
REMARK  9 active torsions:
REMARK  status: ('A' for Active; 'I' for Inactive)
REMARK    1  A    between atoms: C_1  and  N_2
REMARK    2  A    between atoms: C_3  and  C_5
REMARK    3  A    between atoms: C_8  and  N_9
REMARK    4  A    between atoms: C_10  and  C_12
REMARK    5  A    between atoms: C_16  and  N_17
REMARK    6  A    between atoms: N_17  and  C_18
REMARK    7  A    between atoms: C_23  and  C_24
REMARK    8  A    between atoms: C_30  and  O_31
REMARK    9  A    between atoms: O_31  and  C_32
REMARK                            x       y       z     vdW  Elec       q    Type
REMARK                         _______ _______ _______ _____ _____    ______ ____
ROOT
ATOM      1  C   UNL     1       1.486   7.809  20.258  0.00  0.00    +0.000 A 
ATOM      2  C   UNL     1       2.010   6.530  20.381  0.00  0.00    +0.000 A 
ATOM      3  N   UNL     1       2.785   5.928  19.448  0.00  0.00    +0.000 NA
ATOM      4  C   UNL     1       3.034   6.585  18.308  0.00  0.00    +0.000 A 
ATOM      5  C   UNL     1       2.545   7.866  18.096  0.00  0.00    +0.000 A 
ATOM      6  C   UNL     1       1.779   8.520  19.086  0.00  0.00    +0.000 A 
ENDROOT
BRANCH   1   9
ATOM      7  C   UNL     1       0.340   9.544  23.417  0.00  0.00    +0.000 C 
ATOM      8  N   UNL     1       1.148   9.114  22.300  0.00  0.00    +0.000 N 
ATOM      9  C   UNL     1       0.613   8.261  21.359  0.00  0.00    +0.000 C 
ATOM     10  O   UNL     1      -0.544   7.852  21.421  0.00  0.00    +0.000 OA
ATOM     11  H   UNL     1       2.157   9.182  22.381  0.00  0.00    +0.000 HD
ENDBRANCH   1   9
BRANCH   4  12
ATOM     12  N   UNL     1       3.796   5.993  17.292  0.00  0.00    +0.000 N 
ATOM     13  C   UNL     1       5.082   6.369  16.983  0.00  0.00    +0.000 C 
ATOM     14  O   UNL     1       5.749   7.260  17.495  0.00  0.00    +0.000 OA
ATOM     15  H   UNL     1       3.383   5.228  16.779  0.00  0.00    +0.000 HD
BRANCH  13  16
ATOM     16  C   UNL     1       5.706   5.534  15.906  0.00  0.00    +0.000 C 
ATOM     17  C   UNL     1       6.764   4.513  16.265  0.00  0.00    +0.000 C 
ATOM     18  C   UNL     1       5.393   4.055  15.863  0.00  0.00    +0.000 C 
ENDBRANCH  13  16
ENDBRANCH   4  12
BRANCH   6  19
ATOM     19  N   UNL     1       1.376   9.859  18.862  0.00  0.00    +0.000 N 
ATOM     20  H   UNL     1       2.057  10.453  18.393  0.00  0.00    +0.000 HD
BRANCH  19  21
ATOM     21  C   UNL     1       0.060  10.387  18.832  0.00  0.00    +0.000 A 
ATOM     22  C   UNL     1      -0.808  10.002  17.793  0.00  0.00    +0.000 A 
ATOM     23  C   UNL     1      -2.098  10.496  17.714  0.00  0.00    +0.000 A 
ATOM     24  F   UNL     1      -2.884  10.123  16.696  0.00  0.00    +0.000 F 
ATOM     25  C   UNL     1      -2.563  11.399  18.648  0.00  0.00    +0.000 A 
ATOM     26  C   UNL     1      -1.733  11.845  19.701  0.00  0.00    +0.000 A 
ATOM     27  C   UNL     1      -0.415  11.300  19.806  0.00  0.00    +0.000 A 
BRANCH  26  28
ATOM     28  C   UNL     1      -2.264  12.882  20.609  0.00  0.00    +0.000 A 
ATOM     29  N   UNL     1      -1.984  14.172  20.322  0.00  0.00    +0.000 NA
ATOM     30  C   UNL     1      -2.403  15.093  21.210  0.00  0.00    +0.000 A 
ATOM     31  C   UNL     1      -3.087  14.782  22.361  0.00  0.00    +0.000 A 
ATOM     32  C   UNL     1      -3.317  13.446  22.567  0.00  0.00    +0.000 A 
ATOM     33  N   UNL     1      -2.906  12.487  21.723  0.00  0.00    +0.000 NA
ENDBRANCH  26  28
BRANCH  27  34
ATOM     34  O   UNL     1       0.377  11.811  20.807  0.00  0.00    +0.000 OA
ATOM     35  C   UNL     1       1.367  12.786  20.506  0.00  0.00    +0.000 C 
ENDBRANCH  27  34
ENDBRANCH  19  21
ENDBRANCH   6  19
TORSDOF 7
ENDMDL
MODEL 2
REMARK VINA RESULT:      -7.2      2.615      3.899
REMARK  Name = 
REMARK  9 active torsions:
REMARK  status: ('A' for Active; 'I' for Inactive)
REMARK    1  A    between atoms: C_1  and  N_2
REMARK    2  A    between atoms: C_3  and  C_5
REMARK    3  A    between atoms: C_8  and  N_9
REMARK    4  A    between atoms: C_10  and  C_12
REMARK    5  A    between atoms: C_16  and  N_17
REMARK    6  A    between atoms: N_17  and  C_18
REMARK    7  A    between atoms: C_23  and  C_24
REMARK    8  A    between atoms: C_30  and  O_31
REMARK    9  A    between atoms: O_31  and  C_32
REMARK                            x       y       z     vdW  Elec       q    Type
REMARK                         _______ _______ _______ _____ _____    ______ ____
ROOT
ATOM      1  C   UNL     1       0.032  10.351  21.770  0.00  0.00    +0.000 A 
ATOM      2  C   UNL     1       0.761   9.415  22.490  0.00  0.00    +0.000 A 
ATOM      3  N   UNL     1       1.532   8.452  21.932  0.00  0.00    +0.000 NA
ATOM      4  C   UNL     1       1.566   8.360  20.597  0.00  0.00    +0.000 A 
ATOM      5  C   UNL     1       0.863   9.249  19.797  0.00  0.00    +0.000 A 
ATOM      6  C   UNL     1       0.098  10.288  20.372  0.00  0.00    +0.000 A 
ENDROOT
BRANCH   1   9
ATOM      7  C   UNL     1      -1.262  13.561  23.296  0.00  0.00    +0.000 C 
ATOM      8  N   UNL     1      -0.504  12.625  22.499  0.00  0.00    +0.000 N 
ATOM      9  C   UNL     1      -0.797  11.280  22.566  0.00  0.00    +0.000 C 
ATOM     10  O   UNL     1      -1.695  10.833  23.275  0.00  0.00    +0.000 OA
ATOM     11  H   UNL     1       0.407  12.911  22.155  0.00  0.00    +0.000 HD
ENDBRANCH   1   9
BRANCH   4  12
ATOM     12  N   UNL     1       2.315   7.357  19.966  0.00  0.00    +0.000 N 
ATOM     13  C   UNL     1       2.036   6.014  20.073  0.00  0.00    +0.000 C 
ATOM     14  O   UNL     1       1.147   5.480  20.725  0.00  0.00    +0.000 OA
ATOM     15  H   UNL     1       3.083   7.642  19.379  0.00  0.00    +0.000 HD
BRANCH  13  16
ATOM     16  C   UNL     1       2.938   5.150  19.245  0.00  0.00    +0.000 C 
ATOM     17  C   UNL     1       2.445   4.597  17.925  0.00  0.00    +0.000 C 
ATOM     18  C   UNL     1       3.466   5.696  17.937  0.00  0.00    +0.000 C 
ENDBRANCH  13  16
ENDBRANCH   4  12
BRANCH   6  19
ATOM     19  N   UNL     1      -0.531  11.225  19.516  0.00  0.00    +0.000 N 
ATOM     20  H   UNL     1       0.040  12.019  19.233  0.00  0.00    +0.000 HD
BRANCH  19  21
ATOM     21  C   UNL     1      -1.671  11.036  18.695  0.00  0.00    +0.000 A 
ATOM     22  C   UNL     1      -1.550  10.271  17.520  0.00  0.00    +0.000 A 
ATOM     23  C   UNL     1      -2.629  10.066  16.680  0.00  0.00    +0.000 A 
ATOM     24  F   UNL     1      -2.465   9.352  15.559  0.00  0.00    +0.000 F 
ATOM     25  C   UNL     1      -3.858  10.625  16.966  0.00  0.00    +0.000 A 
ATOM     26  C   UNL     1      -4.041  11.425  18.117  0.00  0.00    +0.000 A 
ATOM     27  C   UNL     1      -2.934  11.600  19.005  0.00  0.00    +0.000 A 
BRANCH  26  28
ATOM     28  C   UNL     1      -5.357  12.067  18.311  0.00  0.00    +0.000 A 
ATOM     29  N   UNL     1      -6.046  11.761  19.432  0.00  0.00    +0.000 NA
ATOM     30  C   UNL     1      -7.279  12.290  19.547  0.00  0.00    +0.000 A 
ATOM     31  C   UNL     1      -7.845  13.107  18.597  0.00  0.00    +0.000 A 
ATOM     32  C   UNL     1      -7.071  13.353  17.493  0.00  0.00    +0.000 A 
ATOM     33  N   UNL     1      -5.843  12.837  17.323  0.00  0.00    +0.000 NA
ENDBRANCH  26  28
BRANCH  27  34
ATOM     34  O   UNL     1      -3.141  12.437  20.077  0.00  0.00    +0.000 OA
ATOM     35  C   UNL     1      -2.678  13.780  20.032  0.00  0.00    +0.000 C 
ENDBRANCH  27  34
ENDBRANCH  19  21
ENDBRANCH   6  19
TORSDOF 7
ENDMDL
MODEL 3
REMARK VINA RESULT:      -7.1      5.211      7.725
REMARK  Name = 
REMARK  9 active torsions:
REMARK  status: ('A' for Active; 'I' for Inactive)
REMARK    1  A    between atoms: C_1  and  N_2
REMARK    2  A    between atoms: C_3  and  C_5
REMARK    3  A    between atoms: C_8  and  N_9
REMARK    4  A    between atoms: C_10  and  C_12
REMARK    5  A    between atoms: C_16  and  N_17
REMARK    6  A    between atoms: N_17  and  C_18
REMARK    7  A    between atoms: C_23  and  C_24
REMARK    8  A    between atoms: C_30  and  O_31
REMARK    9  A    between atoms: O_31  and  C_32
REMARK                            x       y       z     vdW  Elec       q    Type
REMARK                         _______ _______ _______ _____ _____    ______ ____
ROOT
ATOM      1  C   UNL     1       6.861   5.922  16.592  0.00  0.00    +0.000 A 
ATOM      2  C   UNL     1       7.730   4.942  16.134  0.00  0.00    +0.000 A 
ATOM      3  N   UNL     1       7.460   4.099  15.109  0.00  0.00    +0.000 NA
ATOM      4  C   UNL     1       6.261   4.179  14.519  0.00  0.00    +0.000 A 
ATOM      5  C   UNL     1       5.326   5.125  14.917  0.00  0.00    +0.000 A 
ATOM      6  C   UNL     1       5.621   6.041  15.951  0.00  0.00    +0.000 A 
ENDROOT
BRANCH   1   9
ATOM      7  C   UNL     1       8.368   8.713  18.653  0.00  0.00    +0.000 C 
ATOM      8  N   UNL     1       7.869   7.941  17.539  0.00  0.00    +0.000 N 
ATOM      9  C   UNL     1       7.318   6.698  17.763  0.00  0.00    +0.000 C 
ATOM     10  O   UNL     1       7.219   6.212  18.887  0.00  0.00    +0.000 OA
ATOM     11  H   UNL     1       8.202   8.169  16.608  0.00  0.00    +0.000 HD
ENDBRANCH   1   9
BRANCH   4  12
ATOM     12  N   UNL     1       5.912   3.304  13.481  0.00  0.00    +0.000 N 
ATOM     13  C   UNL     1       6.418   3.392  12.205  0.00  0.00    +0.000 C 
ATOM     14  O   UNL     1       7.202   4.223  11.763  0.00  0.00    +0.000 OA
ATOM     15  H   UNL     1       5.276   2.552  13.695  0.00  0.00    +0.000 HD
BRANCH  13  16
ATOM     16  C   UNL     1       5.946   2.296  11.300  0.00  0.00    +0.000 C 
ATOM     17  C   UNL     1       6.955   1.376  10.644  0.00  0.00    +0.000 C 
ATOM     18  C   UNL     1       6.093   0.862  11.759  0.00  0.00    +0.000 C 
ENDBRANCH  13  16
ENDBRANCH   4  12
BRANCH   6  19
ATOM     19  N   UNL     1       4.671   7.045  16.263  0.00  0.00    +0.000 N 
ATOM     20  H   UNL     1       4.447   7.691  15.509  0.00  0.00    +0.000 HD
BRANCH  19  21
ATOM     21  C   UNL     1       3.715   7.054  17.309  0.00  0.00    +0.000 A 
ATOM     22  C   UNL     1       3.128   8.275  17.690  0.00  0.00    +0.000 A 
ATOM     23  C   UNL     1       2.197   8.338  18.711  0.00  0.00    +0.000 A 
ATOM     24  F   UNL     1       1.680   9.523  19.059  0.00  0.00    +0.000 F 
ATOM     25  C   UNL     1       1.831   7.199  19.400  0.00  0.00    +0.000 A 
ATOM     26  C   UNL     1       2.403   5.946  19.085  0.00  0.00    +0.000 A 
ATOM     27  C   UNL     1       3.333   5.876  18.000  0.00  0.00    +0.000 A 
BRANCH  26  28
ATOM     28  C   UNL     1       2.036   4.787  19.923  0.00  0.00    +0.000 A 
ATOM     29  N   UNL     1       2.761   4.566  21.041  0.00  0.00    +0.000 NA
ATOM     30  C   UNL     1       2.466   3.455  21.744  0.00  0.00    +0.000 A 
ATOM     31  C   UNL     1       1.483   2.566  21.379  0.00  0.00    +0.000 A 
ATOM     32  C   UNL     1       0.808   2.873  20.225  0.00  0.00    +0.000 A 
ATOM     33  N   UNL     1       1.075   3.958  19.481  0.00  0.00    +0.000 NA
ENDBRANCH  26  28
BRANCH  27  34
ATOM     34  O   UNL     1       3.910   4.649  17.771  0.00  0.00    +0.000 OA
ATOM     35  C   UNL     1       3.201   3.653  17.044  0.00  0.00    +0.000 C 
ENDBRANCH  27  34
ENDBRANCH  19  21
ENDBRANCH   6  19
TORSDOF 7
ENDMDL
MODEL 4
REMARK VINA RESULT:      -7.0      1.033      1.127
REMARK  Name = 
REMARK  9 active torsions:
REMARK  status: ('A' for Active; 'I' for Inactive)
REMARK    1  A    between atoms: C_1  and  N_2
REMARK    2  A    between atoms: C_3  and  C_5
REMARK    3  A    between atoms: C_8  and  N_9
REMARK    4  A    between atoms: C_10  and  C_12
REMARK    5  A    between atoms: C_16  and  N_17
REMARK    6  A    between atoms: N_17  and  C_18
REMARK    7  A    between atoms: C_23  and  C_24
REMARK    8  A    between atoms: C_30  and  O_31
REMARK    9  A    between atoms: O_31  and  C_32
REMARK                            x       y       z     vdW  Elec       q    Type
REMARK                         _______ _______ _______ _____ _____    ______ ____
ROOT
ATOM      1  C   UNL     1       1.398   7.670  20.535  0.00  0.00    +0.000 A 
ATOM      2  C   UNL     1       1.862   6.396  20.830  0.00  0.00    +0.000 A 
ATOM      3  N   UNL     1       2.726   5.698  20.056  0.00  0.00    +0.000 NA
ATOM      4  C   UNL     1       3.133   6.247  18.904  0.00  0.00    +0.000 A 
ATOM      5  C   UNL     1       2.714   7.514  18.525  0.00  0.00    +0.000 A 
ATOM      6  C   UNL     1       1.854   8.269  19.352  0.00  0.00    +0.000 A 
ENDROOT
BRANCH   1   9
ATOM      7  C   UNL     1      -0.060   9.643  23.414  0.00  0.00    +0.000 C 
ATOM      8  N   UNL     1       0.866   9.103  22.446  0.00  0.00    +0.000 N 
ATOM      9  C   UNL     1       0.411   8.236  21.476  0.00  0.00    +0.000 C 
ATOM     10  O   UNL     1      -0.769   7.904  21.387  0.00  0.00    +0.000 OA
ATOM     11  H   UNL     1       1.856   9.111  22.670  0.00  0.00    +0.000 HD
ENDBRANCH   1   9
BRANCH   4  12
ATOM     12  N   UNL     1       3.995   5.552  18.044  0.00  0.00    +0.000 N 
ATOM     13  C   UNL     1       3.617   4.453  17.308  0.00  0.00    +0.000 C 
ATOM     14  O   UNL     1       2.526   3.896  17.293  0.00  0.00    +0.000 OA
ATOM     15  H   UNL     1       4.936   5.899  17.940  0.00  0.00    +0.000 HD
BRANCH  13  16
ATOM     16  C   UNL     1       4.700   3.936  16.410  0.00  0.00    +0.000 C 
ATOM     17  C   UNL     1       5.274   4.831  15.333  0.00  0.00    +0.000 C 
ATOM     18  C   UNL     1       6.093   4.509  16.549  0.00  0.00    +0.000 C 
ENDBRANCH  13  16
ENDBRANCH   4  12
BRANCH   6  19
ATOM     19  N   UNL     1       1.524   9.591  18.966  0.00  0.00    +0.000 N 
ATOM     20  H   UNL     1       2.242  10.092  18.447  0.00  0.00    +0.000 HD
BRANCH  19  21
ATOM     21  C   UNL     1       0.238  10.176  18.848  0.00  0.00    +0.000 A 
ATOM     22  C   UNL     1      -0.606   9.767  17.799  0.00  0.00    +0.000 A 
ATOM     23  C   UNL     1      -1.866  10.315  17.634  0.00  0.00    +0.000 A 
ATOM     24  F   UNL     1      -2.628   9.915  16.608  0.00  0.00    +0.000 F 
ATOM     25  C   UNL     1      -2.323  11.295  18.491  0.00  0.00    +0.000 A 
ATOM     26  C   UNL     1      -1.515  11.767  19.550  0.00  0.00    +0.000 A 
ATOM     27  C   UNL     1      -0.231  11.170  19.743  0.00  0.00    +0.000 A 
BRANCH  26  28
ATOM     28  C   UNL     1      -2.031  12.882  20.370  0.00  0.00    +0.000 A 
ATOM     29  N   UNL     1      -1.648  14.135  20.039  0.00  0.00    +0.000 NA
ATOM     30  C   UNL     1      -2.059  15.127  20.852  0.00  0.00    +0.000 A 
ATOM     31  C   UNL     1      -2.833  14.921  21.969  0.00  0.00    +0.000 A 
ATOM     32  C   UNL     1      -3.164  13.615  22.225  0.00  0.00    +0.000 A 
ATOM     33  N   UNL     1      -2.766  12.589  21.456  0.00  0.00    +0.000 NA
ENDBRANCH  26  28
BRANCH  27  34
ATOM     34  O   UNL     1       0.544  11.705  20.745  0.00  0.00    +0.000 OA
ATOM     35  C   UNL     1       1.561  12.649  20.433  0.00  0.00    +0.000 C 
ENDBRANCH  27  34
ENDBRANCH  19  21
ENDBRANCH   6  19
TORSDOF 7
ENDMDL
MODEL 5
REMARK VINA RESULT:      -7.0      1.431      1.875
REMARK  Name = 
REMARK  9 active torsions:
REMARK  status: ('A' for Active; 'I' for Inactive)
REMARK    1  A    between atoms: C_1  and  N_2
REMARK    2  A    between atoms: C_3  and  C_5
REMARK    3  A    between atoms: C_8  and  N_9
REMARK    4  A    between atoms: C_10  and  C_12
REMARK    5  A    between atoms: C_16  and  N_17
REMARK    6  A    between atoms: N_17  and  C_18
REMARK    7  A    between atoms: C_23  and  C_24
REMARK    8  A    between atoms: C_30  and  O_31
REMARK    9  A    between atoms: O_31  and  C_32
REMARK                            x       y       z     vdW  Elec       q    Type
REMARK                         _______ _______ _______ _____ _____    ______ ____
ROOT
ATOM      1  C   UNL     1       1.739   8.000  20.267  0.00  0.00    +0.000 A 
ATOM      2  C   UNL     1       2.053   6.687  20.591  0.00  0.00    +0.000 A 
ATOM      3  N   UNL     1       2.582   5.791  19.725  0.00  0.00    +0.000 NA
ATOM      4  C   UNL     1       2.779   6.174  18.457  0.00  0.00    +0.000 A 
ATOM      5  C   UNL     1       2.487   7.465  18.042  0.00  0.00    +0.000 A 
ATOM      6  C   UNL     1       1.984   8.420  18.953  0.00  0.00    +0.000 A 
ENDROOT
BRANCH   1   9
ATOM      7  C   UNL     1      -0.850   9.286  22.706  0.00  0.00    +0.000 C 
ATOM      8  N   UNL     1      -0.185   8.498  21.694  0.00  0.00    +0.000 N 
ATOM      9  C   UNL     1       1.112   8.800  21.338  0.00  0.00    +0.000 C 
ATOM     10  O   UNL     1       1.744   9.716  21.858  0.00  0.00    +0.000 OA
ATOM     11  H   UNL     1      -0.756   7.957  21.053  0.00  0.00    +0.000 HD
ENDBRANCH   1   9
BRANCH   4  12
ATOM     12  N   UNL     1       3.285   5.275  17.507  0.00  0.00    +0.000 N 
ATOM     13  C   UNL     1       4.610   5.217  17.139  0.00  0.00    +0.000 C 
ATOM     14  O   UNL     1       5.531   5.921  17.534  0.00  0.00    +0.000 OA
ATOM     15  H   UNL     1       2.643   4.616  17.095  0.00  0.00    +0.000 HD
BRANCH  13  16
ATOM     16  C   UNL     1       4.910   4.122  16.162  0.00  0.00    +0.000 C 
ATOM     17  C   UNL     1       5.327   4.470  14.748  0.00  0.00    +0.000 C 
ATOM     18  C   UNL     1       6.340   3.923  15.711  0.00  0.00    +0.000 C 
ENDBRANCH  13  16
ENDBRANCH   4  12
BRANCH   6  19
ATOM     19  N   UNL     1       1.783   9.749  18.506  0.00  0.00    +0.000 N 
ATOM     20  H   UNL     1       2.454  10.091  17.821  0.00  0.00    +0.000 HD
BRANCH  19  21
ATOM     21  C   UNL     1       0.598  10.524  18.562  0.00  0.00    +0.000 A 
ATOM     22  C   UNL     1      -0.602   9.978  18.068  0.00  0.00    +0.000 A 
ATOM     23  C   UNL     1      -1.783  10.698  18.090  0.00  0.00    +0.000 A 
ATOM     24  F   UNL     1      -2.897  10.151  17.588  0.00  0.00    +0.000 F 
ATOM     25  C   UNL     1      -1.811  11.986  18.586  0.00  0.00    +0.000 A 
ATOM     26  C   UNL     1      -0.637  12.601  19.073  0.00  0.00    +0.000 A 
ATOM     27  C   UNL     1       0.574  11.840  19.088  0.00  0.00    +0.000 A 
BRANCH  26  28
ATOM     28  C   UNL     1      -0.721  14.013  19.501  0.00  0.00    +0.000 A 
ATOM     29  N   UNL     1      -1.251  14.270  20.717  0.00  0.00    +0.000 NA
ATOM     30  C   UNL     1      -1.399  15.566  21.050  0.00  0.00    +0.000 A 
ATOM     31  C   UNL     1      -1.039  16.607  20.227  0.00  0.00    +0.000 A 
ATOM     32  C   UNL     1      -0.518  16.244  19.012  0.00  0.00    +0.000 A 
ATOM     33  N   UNL     1      -0.366  14.968  18.625  0.00  0.00    +0.000 NA
ENDBRANCH  26  28
BRANCH  27  34
ATOM     34  O   UNL     1       1.703  12.501  19.512  0.00  0.00    +0.000 OA
ATOM     35  C   UNL     1       2.603  13.055  18.562  0.00  0.00    +0.000 C 
ENDBRANCH  27  34
ENDBRANCH  19  21
ENDBRANCH   6  19
TORSDOF 7
ENDMDL
MODEL 6
REMARK VINA RESULT:      -6.9      1.173      1.482
REMARK  Name = 
REMARK  9 active torsions:
REMARK  status: ('A' for Active; 'I' for Inactive)
REMARK    1  A    between atoms: C_1  and  N_2
REMARK    2  A    between atoms: C_3  and  C_5
REMARK    3  A    between atoms: C_8  and  N_9
REMARK    4  A    between atoms: C_10  and  C_12
REMARK    5  A    between atoms: C_16  and  N_17
REMARK    6  A    between atoms: N_17  and  C_18
REMARK    7  A    between atoms: C_23  and  C_24
REMARK    8  A    between atoms: C_30  and  O_31
REMARK    9  A    between atoms: O_31  and  C_32
REMARK                            x       y       z     vdW  Elec       q    Type
REMARK                         _______ _______ _______ _____ _____    ______ ____
ROOT
ATOM      1  C   UNL     1       1.699   7.586  20.132  0.00  0.00    +0.000 A 
ATOM      2  C   UNL     1       2.023   6.255  20.353  0.00  0.00    +0.000 A 
ATOM      3  N   UNL     1       2.707   5.479  19.481  0.00  0.00    +0.000 NA
ATOM      4  C   UNL     1       3.061   6.007  18.303  0.00  0.00    +0.000 A 
ATOM      5  C   UNL     1       2.773   7.328  17.992  0.00  0.00    +0.000 A 
ATOM      6  C   UNL     1       2.106   8.159  18.919  0.00  0.00    +0.000 A 
ENDROOT
BRANCH   1   9
ATOM      7  C   UNL     1       0.812   9.500  23.271  0.00  0.00    +0.000 C 
ATOM      8  N   UNL     1       1.562   8.885  22.201  0.00  0.00    +0.000 N 
ATOM      9  C   UNL     1       0.894   8.242  21.182  0.00  0.00    +0.000 C 
ATOM     10  O   UNL     1      -0.332   8.178  21.133  0.00  0.00    +0.000 OA
ATOM     11  H   UNL     1       2.538   8.661  22.365  0.00  0.00    +0.000 HD
ENDBRANCH   1   9
BRANCH   4  12
ATOM     12  N   UNL     1       3.734   5.237  17.345  0.00  0.00    +0.000 N 
ATOM     13  C   UNL     1       5.101   5.229  17.192  0.00  0.00    +0.000 C 
ATOM     14  O   UNL     1       5.931   5.880  17.815  0.00  0.00    +0.000 OA
ATOM     15  H   UNL     1       3.182   4.633  16.755  0.00  0.00    +0.000 HD
BRANCH  13  16
ATOM     16  C   UNL     1       5.580   4.267  16.149  0.00  0.00    +0.000 C 
ATOM     17  C   UNL     1       5.657   4.704  14.701  0.00  0.00    +0.000 C 
ATOM     18  C   UNL     1       6.919   4.516  15.491  0.00  0.00    +0.000 C 
ENDBRANCH  13  16
ENDBRANCH   4  12
BRANCH   6  19
ATOM     19  N   UNL     1       1.910   9.524  18.594  0.00  0.00    +0.000 N 
ATOM     20  H   UNL     1       2.684   9.978  18.112  0.00  0.00    +0.000 HD
BRANCH  19  21
ATOM     21  C   UNL     1       0.689  10.234  18.483  0.00  0.00    +0.000 A 
ATOM     22  C   UNL     1      -0.404   9.622  17.840  0.00  0.00    +0.000 A 
ATOM     23  C   UNL     1      -1.614  10.277  17.698  0.00  0.00    +0.000 A 
ATOM     24  F   UNL     1      -2.620   9.667  17.058  0.00  0.00    +0.000 F 
ATOM     25  C   UNL     1      -1.777  11.563  18.171  0.00  0.00    +0.000 A 
ATOM     26  C   UNL     1      -0.712  12.243  18.804  0.00  0.00    +0.000 A 
ATOM     27  C   UNL     1       0.525  11.549  18.987  0.00  0.00    +0.000 A 
BRANCH  26  28
ATOM     28  C   UNL     1      -0.928  13.649  19.201  0.00  0.00    +0.000 A 
ATOM     29  N   UNL     1      -0.259  14.604  18.519  0.00  0.00    +0.000 NA
ATOM     30  C   UNL     1      -0.403  15.871  18.955  0.00  0.00    +0.000 A 
ATOM     31  C   UNL     1      -1.183  16.219  20.031  0.00  0.00    +0.000 A 
ATOM     32  C   UNL     1      -1.816  15.178  20.662  0.00  0.00    +0.000 A 
ATOM     33  N   UNL     1      -1.692  13.898  20.279  0.00  0.00    +0.000 NA
ENDBRANCH  26  28
BRANCH  27  34
ATOM     34  O   UNL     1       1.550  12.271  19.550  0.00  0.00    +0.000 OA
ATOM     35  C   UNL     1       1.645  12.391  20.964  0.00  0.00    +0.000 C 
ENDBRANCH  27  34
ENDBRANCH  19  21
ENDBRANCH   6  19
TORSDOF 7
ENDMDL
MODEL 7
REMARK VINA RESULT:      -6.9      0.777      1.136
REMARK  Name = 
REMARK  9 active torsions:
REMARK  status: ('A' for Active; 'I' for Inactive)
REMARK    1  A    between atoms: C_1  and  N_2
REMARK    2  A    between atoms: C_3  and  C_5
REMARK    3  A    between atoms: C_8  and  N_9
REMARK    4  A    between atoms: C_10  and  C_12
REMARK    5  A    between atoms: C_16  and  N_17
REMARK    6  A    between atoms: N_17  and  C_18
REMARK    7  A    between atoms: C_23  and  C_24
REMARK    8  A    between atoms: C_30  and  O_31
REMARK    9  A    between atoms: O_31  and  C_32
REMARK                            x       y       z     vdW  Elec       q    Type
REMARK                         _______ _______ _______ _____ _____    ______ ____
ROOT
ATOM      1  C   UNL     1       1.493   8.132  20.176  0.00  0.00    +0.000 A 
ATOM      2  C   UNL     1       2.123   6.897  20.245  0.00  0.00    +0.000 A 
ATOM      3  N   UNL     1       2.977   6.421  19.308  0.00  0.00    +0.000 NA
ATOM      4  C   UNL     1       3.201   7.163  18.217  0.00  0.00    +0.000 A 
ATOM      5  C   UNL     1       2.608   8.408  18.060  0.00  0.00    +0.000 A 
ATOM      6  C   UNL     1       1.758   8.934  19.057  0.00  0.00    +0.000 A 
ENDROOT
BRANCH   1   9
ATOM      7  C   UNL     1       0.102   9.574  23.384  0.00  0.00    +0.000 C 
ATOM      8  N   UNL     1       0.979   9.282  22.273  0.00  0.00    +0.000 N 
ATOM      9  C   UNL     1       0.550   8.441  21.270  0.00  0.00    +0.000 C 
ATOM     10  O   UNL     1      -0.566   7.928  21.269  0.00  0.00    +0.000 OA
ATOM     11  H   UNL     1       1.975   9.434  22.394  0.00  0.00    +0.000 HD
ENDBRANCH   1   9
BRANCH   4  12
ATOM     12  N   UNL     1       4.043   6.701  17.196  0.00  0.00    +0.000 N 
ATOM     13  C   UNL     1       4.335   5.372  16.988  0.00  0.00    +0.000 C 
ATOM     14  O   UNL     1       3.954   4.408  17.641  0.00  0.00    +0.000 OA
ATOM     15  H   UNL     1       4.431   7.382  16.561  0.00  0.00    +0.000 HD
BRANCH  13  16
ATOM     16  C   UNL     1       5.199   5.132  15.788  0.00  0.00    +0.000 C 
ATOM     17  C   UNL     1       6.699   5.015  15.953  0.00  0.00    +0.000 C 
ATOM     18  C   UNL     1       5.886   3.792  15.646  0.00  0.00    +0.000 C 
ENDBRANCH  13  16
ENDBRANCH   4  12
BRANCH   6  19
ATOM     19  N   UNL     1       1.245  10.244  18.895  0.00  0.00    +0.000 N 
ATOM     20  H   UNL     1       1.865  10.907  18.432  0.00  0.00    +0.000 HD
BRANCH  19  21
ATOM     21  C   UNL     1      -0.107  10.667  18.918  0.00  0.00    +0.000 A 
ATOM     22  C   UNL     1      -0.979  10.233  17.902  0.00  0.00    +0.000 A 
ATOM     23  C   UNL     1      -2.304  10.625  17.874  0.00  0.00    +0.000 A 
ATOM     24  F   UNL     1      -3.094  10.209  16.876  0.00  0.00    +0.000 F 
ATOM     25  C   UNL     1      -2.806  11.473  18.841  0.00  0.00    +0.000 A 
ATOM     26  C   UNL     1      -1.978  11.965  19.874  0.00  0.00    +0.000 A 
ATOM     27  C   UNL     1      -0.619  11.524  19.925  0.00  0.00    +0.000 A 
BRANCH  26  28
ATOM     28  C   UNL     1      -2.557  12.942  20.819  0.00  0.00    +0.000 A 
ATOM     29  N   UNL     1      -3.218  12.459  21.894  0.00  0.00    +0.000 NA
ATOM     30  C   UNL     1      -3.812  13.365  22.695  0.00  0.00    +0.000 A 
ATOM     31  C   UNL     1      -3.771  14.720  22.469  0.00  0.00    +0.000 A 
ATOM     32  C   UNL     1      -3.083  15.110  21.349  0.00  0.00    +0.000 A 
ATOM     33  N   UNL     1      -2.488  14.248  20.510  0.00  0.00    +0.000 NA
ENDBRANCH  26  28
BRANCH  27  34
ATOM     34  O   UNL     1       0.165  12.078  20.910  0.00  0.00    +0.000 OA
ATOM     35  C   UNL     1       1.008  13.183  20.612  0.00  0.00    +0.000 C 
ENDBRANCH  27  34
ENDBRANCH  19  21
ENDBRANCH   6  19
TORSDOF 7
ENDMDL
MODEL 8
REMARK VINA RESULT:      -6.9      4.135      7.275
REMARK  Name = 
REMARK  9 active torsions:
REMARK  status: ('A' for Active; 'I' for Inactive)
REMARK    1  A    between atoms: C_1  and  N_2
REMARK    2  A    between atoms: C_3  and  C_5
REMARK    3  A    between atoms: C_8  and  N_9
REMARK    4  A    between atoms: C_10  and  C_12
REMARK    5  A    between atoms: C_16  and  N_17
REMARK    6  A    between atoms: N_17  and  C_18
REMARK    7  A    between atoms: C_23  and  C_24
REMARK    8  A    between atoms: C_30  and  O_31
REMARK    9  A    between atoms: O_31  and  C_32
REMARK                            x       y       z     vdW  Elec       q    Type
REMARK                         _______ _______ _______ _____ _____    ______ ____
ROOT
ATOM      1  C   UNL     1       7.097   5.634  16.766  0.00  0.00    +0.000 A 
ATOM      2  C   UNL     1       7.433   5.906  15.447  0.00  0.00    +0.000 A 
ATOM      3  N   UNL     1       7.052   5.152  14.389  0.00  0.00    +0.000 NA
ATOM      4  C   UNL     1       6.340   4.043  14.623  0.00  0.00    +0.000 A 
ATOM      5  C   UNL     1       5.965   3.688  15.911  0.00  0.00    +0.000 A 
ATOM      6  C   UNL     1       6.315   4.498  17.014  0.00  0.00    +0.000 A 
ENDROOT
BRANCH   1   9
ATOM      7  C   UNL     1       8.436   8.778  18.386  0.00  0.00    +0.000 C 
ATOM      8  N   UNL     1       7.843   7.865  17.436  0.00  0.00    +0.000 N 
ATOM      9  C   UNL     1       7.664   6.543  17.782  0.00  0.00    +0.000 C 
ATOM     10  O   UNL     1       7.980   6.100  18.883  0.00  0.00    +0.000 OA
ATOM     11  H   UNL     1       7.856   8.118  16.453  0.00  0.00    +0.000 HD
ENDBRANCH   1   9
BRANCH   4  12
ATOM     12  N   UNL     1       5.954   3.203  13.569  0.00  0.00    +0.000 N 
ATOM     13  C   UNL     1       6.404   3.342  12.277  0.00  0.00    +0.000 C 
ATOM     14  O   UNL     1       7.162   4.195  11.832  0.00  0.00    +0.000 OA
ATOM     15  H   UNL     1       5.333   2.438  13.782  0.00  0.00    +0.000 HD
BRANCH  13  16
ATOM     16  C   UNL     1       5.902   2.275  11.353  0.00  0.00    +0.000 C 
ATOM     17  C   UNL     1       6.887   1.441  10.561  0.00  0.00    +0.000 C 
ATOM     18  C   UNL     1       6.148   0.827  11.714  0.00  0.00    +0.000 C 
ENDBRANCH  13  16
ENDBRANCH   4  12
BRANCH   6  19
ATOM     19  N   UNL     1       5.836   4.143  18.299  0.00  0.00    +0.000 N 
ATOM     20  H   UNL     1       6.549   3.953  19.000  0.00  0.00    +0.000 HD
BRANCH  19  21
ATOM     21  C   UNL     1       4.556   4.387  18.857  0.00  0.00    +0.000 A 
ATOM     22  C   UNL     1       3.796   3.301  19.329  0.00  0.00    +0.000 A 
ATOM     23  C   UNL     1       2.537   3.485  19.873  0.00  0.00    +0.000 A 
ATOM     24  F   UNL     1       1.837   2.422  20.288  0.00  0.00    +0.000 F 
ATOM     25  C   UNL     1       1.984   4.747  19.952  0.00  0.00    +0.000 A 
ATOM     26  C   UNL     1       2.684   5.877  19.473  0.00  0.00    +0.000 A 
ATOM     27  C   UNL     1       4.002   5.689  18.950  0.00  0.00    +0.000 A 
BRANCH  26  28
ATOM     28  C   UNL     1       1.994   7.183  19.503  0.00  0.00    +0.000 A 
ATOM     29  N   UNL     1       1.842   7.840  18.332  0.00  0.00    +0.000 NA
ATOM     30  C   UNL     1       1.290   9.066  18.395  0.00  0.00    +0.000 A 
ATOM     31  C   UNL     1       0.884   9.657  19.569  0.00  0.00    +0.000 A 
ATOM     32  C   UNL     1       1.087   8.914  20.703  0.00  0.00    +0.000 A 
ATOM     33  N   UNL     1       1.649   7.695  20.697  0.00  0.00    +0.000 NA
ENDBRANCH  26  28
BRANCH  27  34
ATOM     34  O   UNL     1       4.619   6.807  18.438  0.00  0.00    +0.000 OA
ATOM     35  C   UNL     1       4.328   7.238  17.116  0.00  0.00    +0.000 C 
ENDBRANCH  27  34
ENDBRANCH  19  21
ENDBRANCH   6  19
TORSDOF 7
ENDMDL
MODEL 9
REMARK VINA RESULT:      -6.8      2.670      3.714
REMARK  Name = 
REMARK  9 active torsions:
REMARK  status: ('A' for Active; 'I' for Inactive)
REMARK    1  A    between atoms: C_1  and  N_2
REMARK    2  A    between atoms: C_3  and  C_5
REMARK    3  A    between atoms: C_8  and  N_9
REMARK    4  A    between atoms: C_10  and  C_12
REMARK    5  A    between atoms: C_16  and  N_17
REMARK    6  A    between atoms: N_17  and  C_18
REMARK    7  A    between atoms: C_23  and  C_24
REMARK    8  A    between atoms: C_30  and  O_31
REMARK    9  A    between atoms: O_31  and  C_32
REMARK                            x       y       z     vdW  Elec       q    Type
REMARK                         _______ _______ _______ _____ _____    ______ ____
ROOT
ATOM      1  C   UNL     1       0.060  10.297  21.674  0.00  0.00    +0.000 A 
ATOM      2  C   UNL     1       0.825   9.350  22.340  0.00  0.00    +0.000 A 
ATOM      3  N   UNL     1       1.597   8.422  21.727  0.00  0.00    +0.000 NA
ATOM      4  C   UNL     1       1.597   8.379  20.389  0.00  0.00    +0.000 A 
ATOM      5  C   UNL     1       0.855   9.282  19.641  0.00  0.00    +0.000 A 
ATOM      6  C   UNL     1       0.089  10.285  20.273  0.00  0.00    +0.000 A 
ENDROOT
BRANCH   1   9
ATOM      7  C   UNL     1      -1.335  13.439  23.250  0.00  0.00    +0.000 C 
ATOM      8  N   UNL     1      -0.582  12.542  22.405  0.00  0.00    +0.000 N 
ATOM      9  C   UNL     1      -0.763  11.181  22.524  0.00  0.00    +0.000 C 
ATOM     10  O   UNL     1      -1.558  10.687  23.320  0.00  0.00    +0.000 OA
ATOM     11  H   UNL     1       0.270  12.888  21.975  0.00  0.00    +0.000 HD
ENDBRANCH   1   9
BRANCH   4  12
ATOM     12  N   UNL     1       2.345   7.412  19.703  0.00  0.00    +0.000 N 
ATOM     13  C   UNL     1       2.218   6.058  19.909  0.00  0.00    +0.000 C 
ATOM     14  O   UNL     1       1.487   5.485  20.706  0.00  0.00    +0.000 OA
ATOM     15  H   UNL     1       2.992   7.732  18.998  0.00  0.00    +0.000 HD
BRANCH  13  16
ATOM     16  C   UNL     1       3.077   5.233  19.000  0.00  0.00    +0.000 C 
ATOM     17  C   UNL     1       4.551   5.066  19.305  0.00  0.00    +0.000 C 
ATOM     18  C   UNL     1       3.612   3.913  19.507  0.00  0.00    +0.000 C 
ENDBRANCH  13  16
ENDBRANCH   4  12
BRANCH   6  19
ATOM     19  N   UNL     1      -0.581  11.240  19.468  0.00  0.00    +0.000 N 
ATOM     20  H   UNL     1      -0.028  12.048  19.189  0.00  0.00    +0.000 HD
BRANCH  19  21
ATOM     21  C   UNL     1      -1.747  11.062  18.682  0.00  0.00    +0.000 A 
ATOM     22  C   UNL     1      -1.652  10.366  17.463  0.00  0.00    +0.000 A 
ATOM     23  C   UNL     1      -2.758  10.175  16.655  0.00  0.00    +0.000 A 
ATOM     24  F   UNL     1      -2.620   9.527  15.491  0.00  0.00    +0.000 F 
ATOM     25  C   UNL     1      -3.990  10.680  17.019  0.00  0.00    +0.000 A 
ATOM     26  C   UNL     1      -4.148  11.411  18.218  0.00  0.00    +0.000 A 
ATOM     27  C   UNL     1      -3.012  11.570  19.072  0.00  0.00    +0.000 A 
BRANCH  26  28
ATOM     28  C   UNL     1      -5.472  12.002  18.499  0.00  0.00    +0.000 A 
ATOM     29  N   UNL     1      -5.873  13.038  17.730  0.00  0.00    +0.000 NA
ATOM     30  C   UNL     1      -7.043  13.618  18.059  0.00  0.00    +0.000 A 
ATOM     31  C   UNL     1      -7.823  13.207  19.114  0.00  0.00    +0.000 A 
ATOM     32  C   UNL     1      -7.328  12.154  19.838  0.00  0.00    +0.000 A 
ATOM     33  N   UNL     1      -6.160  11.552  19.562  0.00  0.00    +0.000 NA
ENDBRANCH  26  28
BRANCH  27  34
ATOM     34  O   UNL     1      -3.198  12.341  20.196  0.00  0.00    +0.000 OA
ATOM     35  C   UNL     1      -2.994  13.746  20.137  0.00  0.00    +0.000 C 
ENDBRANCH  27  34
ENDBRANCH  19  21
ENDBRANCH   6  19
TORSDOF 7
ENDMDL
