MODEL 1
REMARK VINA RESULT:      -7.9      0.000      0.000
REMARK  Name = 
REMARK  7 active torsions:
REMARK  status: ('A' for Active; 'I' for Inactive)
REMARK    1  A    between atoms: N_3  and  C_4
REMARK    2  A    between atoms: C_4  and  C_5
REMARK    3  A    between atoms: C_5  and  N_6
REMARK    4  A    between atoms: N_14  and  C_15
REMARK    5  A    between atoms: C_15  and  C_16
REMARK    6  A    between atoms: C_20  and  O_21
REMARK    7  A    between atoms: O_21  and  C_22
REMARK                            x       y       z     vdW  Elec       q    Type
REMARK                         _______ _______ _______ _____ _____    ______ ____
ROOT
ATOM      1  O   UNL     1       6.175   7.077  16.174  0.00  0.00    +0.000 OA
ATOM      2  C   UNL     1       6.793   6.758  17.175  0.00  0.00    +0.000 C 
ATOM      3  N   UNL     1       7.554   7.607  17.989  0.00  0.00    +0.000 N 
ATOM      4  C   UNL     1       8.311   6.831  18.948  0.00  0.00    +0.000 C 
ATOM      5  C   UNL     1       7.535   5.517  19.008  0.00  0.00    +0.000 C 
ATOM      6  N   UNL     1       6.858   5.482  17.731  0.00  0.00    +0.000 N 
ENDROOT
BRANCH   3   7
ATOM      7  C   UNL     1       7.857   8.999  17.652  0.00  0.00    +0.000 C 
BRANCH   7   8
ATOM      8  C   UNL     1       8.918   9.566  18.620  0.00  0.00    +0.000 C 
BRANCH   8   9
ATOM      9  N   UNL     1       8.771  10.956  19.102  0.00  0.00    +0.000 NA
ATOM     10  C   UNL     1       9.081  11.885  17.978  0.00  0.00    +0.000 C 
ATOM     11  C   UNL     1      10.578  11.936  17.610  0.00  0.00    +0.000 C 
ATOM     12  O   UNL     1      11.363  12.332  18.741  0.00  0.00    +0.000 OA
ATOM     13  C   UNL     1      11.167  11.427  19.836  0.00  0.00    +0.000 C 
ATOM     14  C   UNL     1       9.678  11.309  20.219  0.00  0.00    +0.000 C 
ENDBRANCH   8   9
ENDBRANCH   7   8
ENDBRANCH   3   7
BRANCH   6  15
ATOM     15  C   UNL     1       6.047   4.365  17.283  0.00  0.00    +0.000 C 
BRANCH  15  16
ATOM     16  C   UNL     1       4.596   4.494  17.683  0.00  0.00    +0.000 A 
ATOM     17  C   UNL     1       3.615   3.658  17.131  0.00  0.00    +0.000 A 
ATOM     18  C   UNL     1       2.282   3.757  17.540  0.00  0.00    +0.000 A 
ATOM     19  C   UNL     1       1.910   4.713  18.486  0.00  0.00    +0.000 A 
ATOM     20  C   UNL     1       2.870   5.571  19.021  0.00  0.00    +0.000 A 
ATOM     21  C   UNL     1       4.214   5.432  18.657  0.00  0.00    +0.000 A 
BRANCH  20  22
ATOM     22  O   UNL     1       2.427   6.484  19.952  0.00  0.00    +0.000 OA
BRANCH  22  23
ATOM     23  C   UNL     1       2.006   7.727  19.529  0.00  0.00    +0.000 A 
ATOM     24  C   UNL     1       2.204   8.230  18.238  0.00  0.00    +0.000 A 
ATOM     25  C   UNL     1       1.764   9.509  17.911  0.00  0.00    +0.000 A 
ATOM     26  C   UNL     1       1.078  10.274  18.853  0.00  0.00    +0.000 A 
ATOM     27  C   UNL     1       0.830   9.755  20.125  0.00  0.00    +0.000 A 
ATOM     28  C   UNL     1       1.294   8.482  20.462  0.00  0.00    +0.000 A 
ENDBRANCH  22  23
ENDBRANCH  20  22
ENDBRANCH  15  16
ENDBRANCH   6  15
TORSDOF 7
ENDMDL
MODEL 2
REMARK VINA RESULT:      -7.7      0.670      1.164
REMARK  Name = 
REMARK  7 active torsions:
REMARK  status: ('A' for Active; 'I' for Inactive)
REMARK    1  A    between atoms: N_3  and  C_4
REMARK    2  A    between atoms: C_4  and  C_5
REMARK    3  A    between atoms: C_5  and  N_6
REMARK    4  A    between atoms: N_14  and  C_15
REMARK    5  A    between atoms: C_15  and  C_16
REMARK    6  A    between atoms: C_20  and  O_21
REMARK    7  A    between atoms: O_21  and  C_22
REMARK                            x       y       z     vdW  Elec       q    Type
REMARK                         _______ _______ _______ _____ _____    ______ ____
ROOT
ATOM      1  O   UNL     1       6.386   7.119  16.159  0.00  0.00    +0.000 OA
ATOM      2  C   UNL     1       6.975   6.881  17.200  0.00  0.00    +0.000 C 
ATOM      3  N   UNL     1       7.659   7.806  17.999  0.00  0.00    +0.000 N 
ATOM      4  C   UNL     1       8.410   7.117  19.026  0.00  0.00    +0.000 C 
ATOM      5  C   UNL     1       7.697   5.770  19.123  0.00  0.00    +0.000 C 
ATOM      6  N   UNL     1       7.077   5.639  17.823  0.00  0.00    +0.000 N 
ENDROOT
BRANCH   3   7
ATOM      7  C   UNL     1       7.910   9.193  17.603  0.00  0.00    +0.000 C 
BRANCH   7   8
ATOM      8  C   UNL     1       8.805   9.895  18.645  0.00  0.00    +0.000 C 
BRANCH   8   9
ATOM      9  N   UNL     1       9.766  10.919  18.185  0.00  0.00    +0.000 NA
ATOM     10  C   UNL     1      10.766  11.153  19.265  0.00  0.00    +0.000 C 
ATOM     11  C   UNL     1      10.200  11.913  20.482  0.00  0.00    +0.000 C 
ATOM     12  O   UNL     1       9.674  13.185  20.083  0.00  0.00    +0.000 OA
ATOM     13  C   UNL     1       8.646  13.021  19.096  0.00  0.00    +0.000 C 
ATOM     14  C   UNL     1       9.151  12.231  17.872  0.00  0.00    +0.000 C 
ENDBRANCH   8   9
ENDBRANCH   7   8
ENDBRANCH   3   7
BRANCH   6  15
ATOM     15  C   UNL     1       6.340   4.462  17.402  0.00  0.00    +0.000 C 
BRANCH  15  16
ATOM     16  C   UNL     1       4.867   4.542  17.727  0.00  0.00    +0.000 A 
ATOM     17  C   UNL     1       3.941   3.689  17.110  0.00  0.00    +0.000 A 
ATOM     18  C   UNL     1       2.586   3.742  17.451  0.00  0.00    +0.000 A 
ATOM     19  C   UNL     1       2.138   4.669  18.394  0.00  0.00    +0.000 A 
ATOM     20  C   UNL     1       3.045   5.542  18.993  0.00  0.00    +0.000 A 
ATOM     21  C   UNL     1       4.408   5.449  18.697  0.00  0.00    +0.000 A 
BRANCH  20  22
ATOM     22  O   UNL     1       2.527   6.424  19.917  0.00  0.00    +0.000 OA
BRANCH  22  23
ATOM     23  C   UNL     1       2.080   7.657  19.493  0.00  0.00    +0.000 A 
ATOM     24  C   UNL     1       2.207   8.137  18.185  0.00  0.00    +0.000 A 
ATOM     25  C   UNL     1       1.746   9.408  17.858  0.00  0.00    +0.000 A 
ATOM     26  C   UNL     1       1.107  10.188  18.820  0.00  0.00    +0.000 A 
ATOM     27  C   UNL     1       0.927   9.693  20.112  0.00  0.00    +0.000 A 
ATOM     28  C   UNL     1       1.414   8.427  20.448  0.00  0.00    +0.000 A 
ENDBRANCH  22  23
ENDBRANCH  20  22
ENDBRANCH  15  16
ENDBRANCH   6  15
TORSDOF 7
ENDMDL
MODEL 3
REMARK VINA RESULT:      -7.5      5.111      8.930
REMARK  Name = 
REMARK  7 active torsions:
REMARK  status: ('A' for Active; 'I' for Inactive)
REMARK    1  A    between atoms: N_3  and  C_4
REMARK    2  A    between atoms: C_4  and  C_5
REMARK    3  A    between atoms: C_5  and  N_6
REMARK    4  A    between atoms: N_14  and  C_15
REMARK    5  A    between atoms: C_15  and  C_16
REMARK    6  A    between atoms: C_20  and  O_21
REMARK    7  A    between atoms: O_21  and  C_22
REMARK                            x       y       z     vdW  Elec       q    Type
REMARK                         _______ _______ _______ _____ _____    ______ ____
ROOT
ATOM      1  O   UNL     1       1.795   9.397  17.413  0.00  0.00    +0.000 OA
ATOM      2  C   UNL     1       1.463   9.181  18.566  0.00  0.00    +0.000 C 
ATOM      3  N   UNL     1       1.966   8.177  19.403  0.00  0.00    +0.000 N 
ATOM      4  C   UNL     1       1.177   8.096  20.613  0.00  0.00    +0.000 C 
ATOM      5  C   UNL     1       0.517   9.472  20.681  0.00  0.00    +0.000 C 
ATOM      6  N   UNL     1       0.523   9.901  19.300  0.00  0.00    +0.000 N 
ENDROOT
BRANCH   3   7
ATOM      7  C   UNL     1       2.864   7.114  18.948  0.00  0.00    +0.000 C 
BRANCH   7   8
ATOM      8  C   UNL     1       2.608   5.818  19.744  0.00  0.00    +0.000 C 
BRANCH   8   9
ATOM      9  N   UNL     1       1.728   4.785  19.159  0.00  0.00    +0.000 NA
ATOM     10  C   UNL     1       1.410   3.779  20.212  0.00  0.00    +0.000 C 
ATOM     11  C   UNL     1       2.600   2.870  20.582  0.00  0.00    +0.000 C 
ATOM     12  O   UNL     1       3.077   2.167  19.429  0.00  0.00    +0.000 OA
ATOM     13  C   UNL     1       3.473   3.088  18.403  0.00  0.00    +0.000 C 
ATOM     14  C   UNL     1       2.328   4.048  18.023  0.00  0.00    +0.000 C 
ENDBRANCH   8   9
ENDBRANCH   7   8
ENDBRANCH   3   7
BRANCH   6  15
ATOM     15  C   UNL     1      -0.084  11.138  18.842  0.00  0.00    +0.000 C 
BRANCH  15  16
ATOM     16  C   UNL     1      -1.426  10.925  18.183  0.00  0.00    +0.000 A 
ATOM     17  C   UNL     1      -1.630   9.876  17.275  0.00  0.00    +0.000 A 
ATOM     18  C   UNL     1      -2.887   9.662  16.703  0.00  0.00    +0.000 A 
ATOM     19  C   UNL     1      -3.950  10.512  17.012  0.00  0.00    +0.000 A 
ATOM     20  C   UNL     1      -3.753  11.576  17.892  0.00  0.00    +0.000 A 
ATOM     21  C   UNL     1      -2.512  11.755  18.509  0.00  0.00    +0.000 A 
BRANCH  20  22
ATOM     22  O   UNL     1      -4.851  12.368  18.151  0.00  0.00    +0.000 OA
BRANCH  22  23
ATOM     23  C   UNL     1      -5.691  12.034  19.192  0.00  0.00    +0.000 A 
ATOM     24  C   UNL     1      -6.637  11.004  19.143  0.00  0.00    +0.000 A 
ATOM     25  C   UNL     1      -7.459  10.758  20.238  0.00  0.00    +0.000 A 
ATOM     26  C   UNL     1      -7.308  11.502  21.407  0.00  0.00    +0.000 A 
ATOM     27  C   UNL     1      -6.329  12.494  21.480  0.00  0.00    +0.000 A 
ATOM     28  C   UNL     1      -5.521  12.759  20.372  0.00  0.00    +0.000 A 
ENDBRANCH  22  23
ENDBRANCH  20  22
ENDBRANCH  15  16
ENDBRANCH   6  15
TORSDOF 7
ENDMDL
MODEL 4
REMARK VINA RESULT:      -7.4      5.018      8.584
REMARK  Name = 
REMARK  7 active torsions:
REMARK  status: ('A' for Active; 'I' for Inactive)
REMARK    1  A    between atoms: N_3  and  C_4
REMARK    2  A    between atoms: C_4  and  C_5
REMARK    3  A    between atoms: C_5  and  N_6
REMARK    4  A    between atoms: N_14  and  C_15
REMARK    5  A    between atoms: C_15  and  C_16
REMARK    6  A    between atoms: C_20  and  O_21
REMARK    7  A    between atoms: O_21  and  C_22
REMARK                            x       y       z     vdW  Elec       q    Type
REMARK                         _______ _______ _______ _____ _____    ______ ____
ROOT
ATOM      1  O   UNL     1       2.791   7.985  17.545  0.00  0.00    +0.000 OA
ATOM      2  C   UNL     1       2.265   8.058  18.642  0.00  0.00    +0.000 C 
ATOM      3  N   UNL     1       2.442   7.169  19.711  0.00  0.00    +0.000 N 
ATOM      4  C   UNL     1       1.490   7.459  20.761  0.00  0.00    +0.000 C 
ATOM      5  C   UNL     1       1.106   8.910  20.481  0.00  0.00    +0.000 C 
ATOM      6  N   UNL     1       1.388   9.053  19.071  0.00  0.00    +0.000 N 
ENDROOT
BRANCH   3   7
ATOM      7  C   UNL     1       3.173   5.905  19.604  0.00  0.00    +0.000 C 
BRANCH   7   8
ATOM      8  C   UNL     1       2.310   4.740  20.131  0.00  0.00    +0.000 C 
BRANCH   8   9
ATOM      9  N   UNL     1       1.275   4.163  19.248  0.00  0.00    +0.000 NA
ATOM     10  C   UNL     1       1.152   2.708  19.546  0.00  0.00    +0.000 C 
ATOM     11  C   UNL     1       2.351   1.870  19.059  0.00  0.00    +0.000 C 
ATOM     12  O   UNL     1       2.529   2.017  17.645  0.00  0.00    +0.000 OA
ATOM     13  C   UNL     1       2.732   3.395  17.301  0.00  0.00    +0.000 C 
ATOM     14  C   UNL     1       1.576   4.285  17.802  0.00  0.00    +0.000 C 
ENDBRANCH   8   9
ENDBRANCH   7   8
ENDBRANCH   3   7
BRANCH   6  15
ATOM     15  C   UNL     1       1.103  10.257  18.314  0.00  0.00    +0.000 C 
BRANCH  15  16
ATOM     16  C   UNL     1      -0.348  10.672  18.395  0.00  0.00    +0.000 A 
ATOM     17  C   UNL     1      -1.344   9.966  17.705  0.00  0.00    +0.000 A 
ATOM     18  C   UNL     1      -2.688  10.332  17.822  0.00  0.00    +0.000 A 
ATOM     19  C   UNL     1      -3.049  11.427  18.608  0.00  0.00    +0.000 A 
ATOM     20  C   UNL     1      -2.065  12.156  19.276  0.00  0.00    +0.000 A 
ATOM     21  C   UNL     1      -0.727  11.753  19.208  0.00  0.00    +0.000 A 
BRANCH  20  22
ATOM     22  O   UNL     1      -2.499  13.219  20.037  0.00  0.00    +0.000 OA
BRANCH  22  23
ATOM     23  C   UNL     1      -3.056  12.979  21.275  0.00  0.00    +0.000 A 
ATOM     24  C   UNL     1      -2.353  12.467  22.371  0.00  0.00    +0.000 A 
ATOM     25  C   UNL     1      -3.009  12.234  23.576  0.00  0.00    +0.000 A 
ATOM     26  C   UNL     1      -4.358  12.560  23.711  0.00  0.00    +0.000 A 
ATOM     27  C   UNL     1      -5.050  13.122  22.638  0.00  0.00    +0.000 A 
ATOM     28  C   UNL     1      -4.399  13.331  21.420  0.00  0.00    +0.000 A 
ENDBRANCH  22  23
ENDBRANCH  20  22
ENDBRANCH  15  16
ENDBRANCH   6  15
TORSDOF 7
ENDMDL
MODEL 5
REMARK VINA RESULT:      -7.4      4.135      7.901
REMARK  Name = 
REMARK  7 active torsions:
REMARK  status: ('A' for Active; 'I' for Inactive)
REMARK    1  A    between atoms: N_3  and  C_4
REMARK    2  A    between atoms: C_4  and  C_5
REMARK    3  A    between atoms: C_5  and  N_6
REMARK    4  A    between atoms: N_14  and  C_15
REMARK    5  A    between atoms: C_15  and  C_16
REMARK    6  A    between atoms: C_20  and  O_21
REMARK    7  A    between atoms: O_21  and  C_22
REMARK                            x       y       z     vdW  Elec       q    Type
REMARK                         _______ _______ _______ _____ _____    ______ ____
ROOT
ATOM      1  O   UNL     1       2.167  10.249  17.514  0.00  0.00    +0.000 OA
ATOM      2  C   UNL     1       2.112   9.307  18.286  0.00  0.00    +0.000 C 
ATOM      3  N   UNL     1       1.325   9.223  19.442  0.00  0.00    +0.000 N 
ATOM      4  C   UNL     1       1.692   8.054  20.210  0.00  0.00    +0.000 C 
ATOM      5  C   UNL     1       2.363   7.160  19.169  0.00  0.00    +0.000 C 
ATOM      6  N   UNL     1       2.809   8.106  18.171  0.00  0.00    +0.000 N 
ENDROOT
BRANCH   3   7
ATOM      7  C   UNL     1       0.563  10.347  19.989  0.00  0.00    +0.000 C 
BRANCH   7   8
ATOM      8  C   UNL     1      -0.883  10.328  19.451  0.00  0.00    +0.000 C 
BRANCH   8   9
ATOM      9  N   UNL     1      -1.154  10.901  18.116  0.00  0.00    +0.000 NA
ATOM     10  C   UNL     1      -2.044  12.086  18.278  0.00  0.00    +0.000 C 
ATOM     11  C   UNL     1      -3.493  11.726  18.662  0.00  0.00    +0.000 C 
ATOM     12  O   UNL     1      -4.078  10.865  17.678  0.00  0.00    +0.000 OA
ATOM     13  C   UNL     1      -3.307   9.666  17.531  0.00  0.00    +0.000 C 
ATOM     14  C   UNL     1      -1.835   9.972  17.184  0.00  0.00    +0.000 C 
ENDBRANCH   8   9
ENDBRANCH   7   8
ENDBRANCH   3   7
BRANCH   6  15
ATOM     15  C   UNL     1       3.586   7.734  17.003  0.00  0.00    +0.000 C 
BRANCH  15  16
ATOM     16  C   UNL     1       4.458   6.522  17.240  0.00  0.00    +0.000 A 
ATOM     17  C   UNL     1       5.855   6.607  17.156  0.00  0.00    +0.000 A 
ATOM     18  C   UNL     1       6.654   5.491  17.419  0.00  0.00    +0.000 A 
ATOM     19  C   UNL     1       6.063   4.268  17.743  0.00  0.00    +0.000 A 
ATOM     20  C   UNL     1       4.673   4.164  17.802  0.00  0.00    +0.000 A 
ATOM     21  C   UNL     1       3.876   5.294  17.597  0.00  0.00    +0.000 A 
BRANCH  20  22
ATOM     22  O   UNL     1       4.165   2.927  18.132  0.00  0.00    +0.000 OA
BRANCH  22  23
ATOM     23  C   UNL     1       3.148   2.842  19.059  0.00  0.00    +0.000 A 
ATOM     24  C   UNL     1       1.792   2.723  18.735  0.00  0.00    +0.000 A 
ATOM     25  C   UNL     1       0.834   2.670  19.742  0.00  0.00    +0.000 A 
ATOM     26  C   UNL     1       1.226   2.681  21.080  0.00  0.00    +0.000 A 
ATOM     27  C   UNL     1       2.580   2.744  21.409  0.00  0.00    +0.000 A 
ATOM     28  C   UNL     1       3.541   2.825  20.398  0.00  0.00    +0.000 A 
ENDBRANCH  22  23
ENDBRANCH  20  22
ENDBRANCH  15  16
ENDBRANCH   6  15
TORSDOF 7
ENDMDL
MODEL 6
REMARK VINA RESULT:      -7.3      1.041      1.268
REMARK  Name = 
REMARK  7 active torsions:
REMARK  status: ('A' for Active; 'I' for Inactive)
REMARK    1  A    between atoms: N_3  and  C_4
REMARK    2  A    between atoms: C_4  and  C_5
REMARK    3  A    between atoms: C_5  and  N_6
REMARK    4  A    between atoms: N_14  and  C_15
REMARK    5  A    between atoms: C_15  and  C_16
REMARK    6  A    between atoms: C_20  and  O_21
REMARK    7  A    between atoms: O_21  and  C_22
REMARK                            x       y       z     vdW  Elec       q    Type
REMARK                         _______ _______ _______ _____ _____    ______ ____
ROOT
ATOM      1  O   UNL     1       7.459   5.627  20.064  0.00  0.00    +0.000 OA
ATOM      2  C   UNL     1       7.292   6.017  18.921  0.00  0.00    +0.000 C 
ATOM      3  N   UNL     1       7.896   7.132  18.325  0.00  0.00    +0.000 N 
ATOM      4  C   UNL     1       7.287   7.401  17.041  0.00  0.00    +0.000 C 
ATOM      5  C   UNL     1       6.661   6.057  16.673  0.00  0.00    +0.000 C 
ATOM      6  N   UNL     1       6.476   5.425  17.960  0.00  0.00    +0.000 N 
ENDROOT
BRANCH   3   7
ATOM      7  C   UNL     1       8.707   8.106  19.059  0.00  0.00    +0.000 C 
BRANCH   7   8
ATOM      8  C   UNL     1       8.827   9.417  18.255  0.00  0.00    +0.000 C 
BRANCH   8   9
ATOM      9  N   UNL     1       8.558  10.699  18.939  0.00  0.00    +0.000 NA
ATOM     10  C   UNL     1       8.793  11.812  17.975  0.00  0.00    +0.000 C 
ATOM     11  C   UNL     1      10.282  12.045  17.649  0.00  0.00    +0.000 C 
ATOM     12  O   UNL     1      11.023  12.329  18.841  0.00  0.00    +0.000 OA
ATOM     13  C   UNL     1      10.899  11.255  19.782  0.00  0.00    +0.000 C 
ATOM     14  C   UNL     1       9.423  10.954  20.115  0.00  0.00    +0.000 C 
ENDBRANCH   8   9
ENDBRANCH   7   8
ENDBRANCH   3   7
BRANCH   6  15
ATOM     15  C   UNL     1       5.826   4.139  18.134  0.00  0.00    +0.000 C 
BRANCH  15  16
ATOM     16  C   UNL     1       4.359   4.262  18.472  0.00  0.00    +0.000 A 
ATOM     17  C   UNL     1       3.436   3.291  18.058  0.00  0.00    +0.000 A 
ATOM     18  C   UNL     1       2.087   3.393  18.413  0.00  0.00    +0.000 A 
ATOM     19  C   UNL     1       1.642   4.482  19.163  0.00  0.00    +0.000 A 
ATOM     20  C   UNL     1       2.545   5.469  19.557  0.00  0.00    +0.000 A 
ATOM     21  C   UNL     1       3.903   5.337  19.253  0.00  0.00    +0.000 A 
BRANCH  20  22
ATOM     22  O   UNL     1       2.031   6.509  20.299  0.00  0.00    +0.000 OA
BRANCH  22  23
ATOM     23  C   UNL     1       1.811   7.727  19.691  0.00  0.00    +0.000 A 
ATOM     24  C   UNL     1       2.171   8.027  18.372  0.00  0.00    +0.000 A 
ATOM     25  C   UNL     1       1.931   9.295  17.853  0.00  0.00    +0.000 A 
ATOM     26  C   UNL     1       1.283  10.256  18.627  0.00  0.00    +0.000 A 
ATOM     27  C   UNL     1       0.872   9.945  19.924  0.00  0.00    +0.000 A 
ATOM     28  C   UNL     1       1.137   8.680  20.455  0.00  0.00    +0.000 A 
ENDBRANCH  22  23
ENDBRANCH  20  22
ENDBRANCH  15  16
ENDBRANCH   6  15
TORSDOF 7
ENDMDL
MODEL 7
REMARK VINA RESULT:      -7.3      3.655      8.048
REMARK  Name = 
REMARK  7 active torsions:
REMARK  status: ('A' for Active; 'I' for Inactive)
REMARK    1  A    between atoms: N_3  and  C_4
REMARK    2  A    between atoms: C_4  and  C_5
REMARK    3  A    between atoms: C_5  and  N_6
REMARK    4  A    between atoms: N_14  and  C_15
REMARK    5  A    between atoms: C_15  and  C_16
REMARK    6  A    between atoms: C_20  and  O_21
REMARK    7  A    between atoms: O_21  and  C_22
REMARK                            x       y       z     vdW  Elec       q    Type
REMARK                         _______ _______ _______ _____ _____    ______ ____
ROOT
ATOM      1  O   UNL     1       1.020   8.620  21.640  0.00  0.00    +0.000 OA
ATOM      2  C   UNL     1       1.297   8.652  20.453  0.00  0.00    +0.000 C 
ATOM      3  N   UNL     1       1.294   9.785  19.628  0.00  0.00    +0.000 N 
ATOM      4  C   UNL     1       1.461   9.393  18.245  0.00  0.00    +0.000 C 
ATOM      5  C   UNL     1       2.106   8.013  18.358  0.00  0.00    +0.000 C 
ATOM      6  N   UNL     1       1.692   7.569  19.670  0.00  0.00    +0.000 N 
ENDROOT
BRANCH   3   7
ATOM      7  C   UNL     1       0.787  11.093  20.045  0.00  0.00    +0.000 C 
BRANCH   7   8
ATOM      8  C   UNL     1      -0.737  11.174  19.817  0.00  0.00    +0.000 C 
BRANCH   8   9
ATOM      9  N   UNL     1      -1.280  12.297  19.023  0.00  0.00    +0.000 NA
ATOM     10  C   UNL     1      -2.096  13.163  19.920  0.00  0.00    +0.000 C 
ATOM     11  C   UNL     1      -3.435  12.528  20.347  0.00  0.00    +0.000 C 
ATOM     12  O   UNL     1      -4.230  12.205  19.199  0.00  0.00    +0.000 OA
ATOM     13  C   UNL     1      -3.525  11.308  18.331  0.00  0.00    +0.000 C 
ATOM     14  C   UNL     1      -2.158  11.880  17.905  0.00  0.00    +0.000 C 
ENDBRANCH   8   9
ENDBRANCH   7   8
ENDBRANCH   3   7
BRANCH   6  15
ATOM     15  C   UNL     1       1.998   6.256  20.206  0.00  0.00    +0.000 C 
BRANCH  15  16
ATOM     16  C   UNL     1       2.458   5.282  19.147  0.00  0.00    +0.000 A 
ATOM     17  C   UNL     1       1.601   4.287  18.654  0.00  0.00    +0.000 A 
ATOM     18  C   UNL     1       2.023   3.419  17.643  0.00  0.00    +0.000 A 
ATOM     19  C   UNL     1       3.318   3.518  17.132  0.00  0.00    +0.000 A 
ATOM     20  C   UNL     1       4.190   4.484  17.633  0.00  0.00    +0.000 A 
ATOM     21  C   UNL     1       3.749   5.391  18.602  0.00  0.00    +0.000 A 
BRANCH  20  22
ATOM     22  O   UNL     1       5.449   4.522  17.075  0.00  0.00    +0.000 OA
BRANCH  22  23
ATOM     23  C   UNL     1       6.352   5.466  17.515  0.00  0.00    +0.000 A 
ATOM     24  C   UNL     1       6.529   6.724  16.927  0.00  0.00    +0.000 A 
ATOM     25  C   UNL     1       7.485   7.601  17.428  0.00  0.00    +0.000 A 
ATOM     26  C   UNL     1       8.235   7.252  18.550  0.00  0.00    +0.000 A 
ATOM     27  C   UNL     1       8.024   6.021  19.174  0.00  0.00    +0.000 A 
ATOM     28  C   UNL     1       7.083   5.129  18.656  0.00  0.00    +0.000 A 
ENDBRANCH  22  23
ENDBRANCH  20  22
ENDBRANCH  15  16
ENDBRANCH   6  15
TORSDOF 7
ENDMDL
MODEL 8
REMARK VINA RESULT:      -7.3      1.180      1.734
REMARK  Name = 
REMARK  7 active torsions:
REMARK  status: ('A' for Active; 'I' for Inactive)
REMARK    1  A    between atoms: N_3  and  C_4
REMARK    2  A    between atoms: C_4  and  C_5
REMARK    3  A    between atoms: C_5  and  N_6
REMARK    4  A    between atoms: N_14  and  C_15
REMARK    5  A    between atoms: C_15  and  C_16
REMARK    6  A    between atoms: C_20  and  O_21
REMARK    7  A    between atoms: O_21  and  C_22
REMARK                            x       y       z     vdW  Elec       q    Type
REMARK                         _______ _______ _______ _____ _____    ______ ____
ROOT
ATOM      1  O   UNL     1       7.762   5.756  19.956  0.00  0.00    +0.000 OA
ATOM      2  C   UNL     1       7.472   6.209  18.862  0.00  0.00    +0.000 C 
ATOM      3  N   UNL     1       7.983   7.378  18.284  0.00  0.00    +0.000 N 
ATOM      4  C   UNL     1       7.241   7.705  17.085  0.00  0.00    +0.000 C 
ATOM      5  C   UNL     1       6.619   6.366  16.694  0.00  0.00    +0.000 C 
ATOM      6  N   UNL     1       6.580   5.649  17.949  0.00  0.00    +0.000 N 
ENDROOT
BRANCH   3   7
ATOM      7  C   UNL     1       8.835   8.332  18.995  0.00  0.00    +0.000 C 
BRANCH   7   8
ATOM      8  C   UNL     1       8.676   9.745  18.396  0.00  0.00    +0.000 C 
BRANCH   8   9
ATOM      9  N   UNL     1       9.835  10.661  18.415  0.00  0.00    +0.000 NA
ATOM     10  C   UNL     1      10.223  10.910  19.833  0.00  0.00    +0.000 C 
ATOM     11  C   UNL     1       9.225  11.800  20.602  0.00  0.00    +0.000 C 
ATOM     12  O   UNL     1       9.078  13.069  19.955  0.00  0.00    +0.000 OA
ATOM     13  C   UNL     1       8.629  12.900  18.604  0.00  0.00    +0.000 C 
ATOM     14  C   UNL     1       9.573  11.984  17.799  0.00  0.00    +0.000 C 
ENDBRANCH   8   9
ENDBRANCH   7   8
ENDBRANCH   3   7
BRANCH   6  15
ATOM     15  C   UNL     1       5.988   4.334  18.103  0.00  0.00    +0.000 C 
BRANCH  15  16
ATOM     16  C   UNL     1       4.507   4.388  18.400  0.00  0.00    +0.000 A 
ATOM     17  C   UNL     1       3.635   3.401  17.918  0.00  0.00    +0.000 A 
ATOM     18  C   UNL     1       2.274   3.436  18.235  0.00  0.00    +0.000 A 
ATOM     19  C   UNL     1       1.764   4.475  19.017  0.00  0.00    +0.000 A 
ATOM     20  C   UNL     1       2.616   5.478  19.478  0.00  0.00    +0.000 A 
ATOM     21  C   UNL     1       3.987   5.410  19.211  0.00  0.00    +0.000 A 
BRANCH  20  22
ATOM     22  O   UNL     1       2.041   6.465  20.247  0.00  0.00    +0.000 OA
BRANCH  22  23
ATOM     23  C   UNL     1       1.806   7.703  19.688  0.00  0.00    +0.000 A 
ATOM     24  C   UNL     1       2.123   8.046  18.369  0.00  0.00    +0.000 A 
ATOM     25  C   UNL     1       1.870   9.332  17.901  0.00  0.00    +0.000 A 
ATOM     26  C   UNL     1       1.252  10.268  18.728  0.00  0.00    +0.000 A 
ATOM     27  C   UNL     1       0.884   9.914  20.027  0.00  0.00    +0.000 A 
ATOM     28  C   UNL     1       1.161   8.632  20.506  0.00  0.00    +0.000 A 
ENDBRANCH  22  23
ENDBRANCH  20  22
ENDBRANCH  15  16
ENDBRANCH   6  15
TORSDOF 7
ENDMDL
MODEL 9
REMARK VINA RESULT:      -7.2      5.171      7.710
REMARK  Name = 
REMARK  7 active torsions:
REMARK  status: ('A' for Active; 'I' for Inactive)
REMARK    1  A    between atoms: N_3  and  C_4
REMARK    2  A    between atoms: C_4  and  C_5
REMARK    3  A    between atoms: C_5  and  N_6
REMARK    4  A    between atoms: N_14  and  C_15
REMARK    5  A    between atoms: C_15  and  C_16
REMARK    6  A    between atoms: C_20  and  O_21
REMARK    7  A    between atoms: O_21  and  C_22
REMARK                            x       y       z     vdW  Elec       q    Type
REMARK                         _______ _______ _______ _____ _____    ______ ____
ROOT
ATOM      1  O   UNL     1       0.722  12.553  21.622  0.00  0.00    +0.000 OA
ATOM      2  C   UNL     1      -0.086  12.261  20.757  0.00  0.00    +0.000 C 
ATOM      3  N   UNL     1      -0.749  13.151  19.903  0.00  0.00    +0.000 N 
ATOM      4  C   UNL     1      -1.786  12.457  19.169  0.00  0.00    +0.000 C 
ATOM      5  C   UNL     1      -1.335  11.000  19.239  0.00  0.00    +0.000 C 
ATOM      6  N   UNL     1      -0.507  10.974  20.424  0.00  0.00    +0.000 N 
ENDROOT
BRANCH   3   7
ATOM      7  C   UNL     1      -0.689  14.607  20.041  0.00  0.00    +0.000 C 
BRANCH   7   8
ATOM      8  C   UNL     1       0.312  15.201  19.028  0.00  0.00    +0.000 C 
BRANCH   8   9
ATOM      9  N   UNL     1       1.384  16.089  19.523  0.00  0.00    +0.000 NA
ATOM     10  C   UNL     1       2.226  16.509  18.367  0.00  0.00    +0.000 C 
ATOM     11  C   UNL     1       3.116  15.382  17.806  0.00  0.00    +0.000 C 
ATOM     12  O   UNL     1       3.985  14.869  18.823  0.00  0.00    +0.000 OA
ATOM     13  C   UNL     1       3.226  14.376  19.935  0.00  0.00    +0.000 C 
ATOM     14  C   UNL     1       2.288  15.457  20.511  0.00  0.00    +0.000 C 
ENDBRANCH   8   9
ENDBRANCH   7   8
ENDBRANCH   3   7
BRANCH   6  15
ATOM     15  C   UNL     1       0.093   9.766  20.957  0.00  0.00    +0.000 C 
BRANCH  15  16
ATOM     16  C   UNL     1       0.989   9.066  19.962  0.00  0.00    +0.000 A 
ATOM     17  C   UNL     1       1.252   9.628  18.704  0.00  0.00    +0.000 A 
ATOM     18  C   UNL     1       2.117   8.993  17.807  0.00  0.00    +0.000 A 
ATOM     19  C   UNL     1       2.707   7.775  18.148  0.00  0.00    +0.000 A 
ATOM     20  C   UNL     1       2.430   7.192  19.384  0.00  0.00    +0.000 A 
ATOM     21  C   UNL     1       1.613   7.855  20.305  0.00  0.00    +0.000 A 
BRANCH  20  22
ATOM     22  O   UNL     1       3.054   5.993  19.649  0.00  0.00    +0.000 OA
BRANCH  22  23
ATOM     23  C   UNL     1       2.408   4.815  19.339  0.00  0.00    +0.000 A 
ATOM     24  C   UNL     1       2.677   4.043  18.204  0.00  0.00    +0.000 A 
ATOM     25  C   UNL     1       1.954   2.879  17.962  0.00  0.00    +0.000 A 
ATOM     26  C   UNL     1       0.995   2.449  18.878  0.00  0.00    +0.000 A 
ATOM     27  C   UNL     1       0.762   3.186  20.040  0.00  0.00    +0.000 A 
ATOM     28  C   UNL     1       1.469   4.369  20.270  0.00  0.00    +0.000 A 
ENDBRANCH  22  23
ENDBRANCH  20  22
ENDBRANCH  15  16
ENDBRANCH   6  15
TORSDOF 7
ENDMDL
