MODEL 1
REMARK VINA RESULT:      -7.1      0.000      0.000
REMARK  Name = 
REMARK  4 active torsions:
REMARK  status: ('A' for Active; 'I' for Inactive)
REMARK    1  A    between atoms: C_1  and  N_2
REMARK    2  A    between atoms: N_6  and  C_7
REMARK    3  A    between atoms: C_17  and  C_19
REMARK    4  A    between atoms: C_19  and  C_20
REMARK                            x       y       z     vdW  Elec       q    Type
REMARK                         _______ _______ _______ _____ _____    ______ ____
ROOT
ATOM      1  C   UNL     1       5.981   3.671  16.606  0.00  0.00    +0.000 C 
ATOM      2  N   UNL     1       5.087   4.309  17.576  0.00  0.00    +0.000 NA
ATOM      3  C   UNL     1       3.756   4.484  16.954  0.00  0.00    +0.000 C 
ATOM      4  C   UNL     1       2.715   5.201  17.823  0.00  0.00    +0.000 C 
ATOM      5  O   UNL     1       1.525   4.907  17.714  0.00  0.00    +0.000 OA
ATOM      6  N   UNL     1       3.226   6.295  18.537  0.00  0.00    +0.000 N 
ATOM      7  C   UNL     1       4.530   6.090  19.159  0.00  0.00    +0.000 C 
ATOM      8  C   UNL     1       5.607   5.558  18.177  0.00  0.00    +0.000 C 
ATOM      9  C   UNL     1       6.893   5.279  19.021  0.00  0.00    +0.000 C 
ATOM     10  C   UNL     1       7.979   6.154  18.423  0.00  0.00    +0.000 C 
ATOM     11  N   UNL     1       7.242   7.245  17.827  0.00  0.00    +0.000 N 
ATOM     12  C   UNL     1       7.568   8.586  17.841  0.00  0.00    +0.000 C 
ATOM     13  O   UNL     1       6.845   9.438  17.335  0.00  0.00    +0.000 OA
ATOM     14  C   UNL     1       6.018   6.730  17.234  0.00  0.00    +0.000 C 
ENDROOT
BRANCH   6  15
ATOM     15  C   UNL     1       2.462   7.473  18.702  0.00  0.00    +0.000 A 
ATOM     16  C   UNL     1       2.240   8.496  17.718  0.00  0.00    +0.000 A 
ATOM     17  C   UNL     1       1.513   9.565  18.190  0.00  0.00    +0.000 A 
ATOM     18  S   UNL     1       1.089   9.372  19.828  0.00  0.00    +0.000 S 
ATOM     19  C   UNL     1       1.870   7.850  19.896  0.00  0.00    +0.000 A 
ENDBRANCH   6  15
BRANCH  12  20
ATOM     20  C   UNL     1       8.871   8.929  18.555  0.00  0.00    +0.000 C 
BRANCH  20  21
ATOM     21  C   UNL     1       9.091  10.415  18.840  0.00  0.00    +0.000 C 
ATOM     22  C   UNL     1       9.523  10.643  20.294  0.00  0.00    +0.000 C 
ATOM     23  C   UNL     1      10.265  11.966  20.250  0.00  0.00    +0.000 C 
ATOM     24  C   UNL     1      11.044  11.899  18.947  0.00  0.00    +0.000 C 
ATOM     25  C   UNL     1      10.197  11.059  17.995  0.00  0.00    +0.000 C 
ENDBRANCH  20  21
ENDBRANCH  12  20
TORSDOF 3
ENDMDL
MODEL 2
REMARK VINA RESULT:      -6.6      3.968      5.090
REMARK  Name = 
REMARK  4 active torsions:
REMARK  status: ('A' for Active; 'I' for Inactive)
REMARK    1  A    between atoms: C_1  and  N_2
REMARK    2  A    between atoms: N_6  and  C_7
REMARK    3  A    between atoms: C_17  and  C_19
REMARK    4  A    between atoms: C_19  and  C_20
REMARK                            x       y       z     vdW  Elec       q    Type
REMARK                         _______ _______ _______ _____ _____    ______ ____
ROOT
ATOM      1  C   UNL     1       3.442   1.963  18.762  0.00  0.00    +0.000 C 
ATOM      2  N   UNL     1       3.406   3.286  19.392  0.00  0.00    +0.000 NA
ATOM      3  C   UNL     1       1.993   3.696  19.558  0.00  0.00    +0.000 C 
ATOM      4  C   UNL     1       1.781   5.094  20.149  0.00  0.00    +0.000 C 
ATOM      5  O   UNL     1       0.794   5.316  20.851  0.00  0.00    +0.000 OA
ATOM      6  N   UNL     1       2.663   6.064  19.648  0.00  0.00    +0.000 N 
ATOM      7  C   UNL     1       4.054   5.643  19.513  0.00  0.00    +0.000 C 
ATOM      8  C   UNL     1       4.226   4.320  18.721  0.00  0.00    +0.000 C 
ATOM      9  C   UNL     1       5.743   3.951  18.776  0.00  0.00    +0.000 C 
ATOM     10  C   UNL     1       6.210   3.900  17.333  0.00  0.00    +0.000 C 
ATOM     11  N   UNL     1       5.295   4.786  16.652  0.00  0.00    +0.000 N 
ATOM     12  C   UNL     1       5.591   5.702  15.662  0.00  0.00    +0.000 C 
ATOM     13  O   UNL     1       4.736   6.437  15.177  0.00  0.00    +0.000 OA
ATOM     14  C   UNL     1       3.963   4.625  17.214  0.00  0.00    +0.000 C 
ENDROOT
BRANCH   6  15
ATOM     15  C   UNL     1       2.220   7.381  19.388  0.00  0.00    +0.000 A 
ATOM     16  C   UNL     1       1.546   8.256  20.306  0.00  0.00    +0.000 A 
ATOM     17  C   UNL     1       1.169   9.456  19.747  0.00  0.00    +0.000 A 
ATOM     18  S   UNL     1       1.606   9.556  18.105  0.00  0.00    +0.000 S 
ATOM     19  C   UNL     1       2.311   7.997  18.151  0.00  0.00    +0.000 A 
ENDBRANCH   6  15
BRANCH  12  20
ATOM     20  C   UNL     1       7.055   5.751  15.241  0.00  0.00    +0.000 C 
BRANCH  20  21
ATOM     21  C   UNL     1       7.452   4.777  14.131  0.00  0.00    +0.000 C 
ATOM     22  C   UNL     1       6.246   3.958  13.654  0.00  0.00    +0.000 C 
ATOM     23  C   UNL     1       6.621   3.545  12.243  0.00  0.00    +0.000 C 
ATOM     24  C   UNL     1       7.312   4.776  11.680  0.00  0.00    +0.000 C 
ATOM     25  C   UNL     1       7.993   5.453  12.866  0.00  0.00    +0.000 C 
ENDBRANCH  20  21
ENDBRANCH  12  20
TORSDOF 3
ENDMDL
MODEL 3
REMARK VINA RESULT:      -6.3      4.868      8.541
REMARK  Name = 
REMARK  4 active torsions:
REMARK  status: ('A' for Active; 'I' for Inactive)
REMARK    1  A    between atoms: C_1  and  N_2
REMARK    2  A    between atoms: N_6  and  C_7
REMARK    3  A    between atoms: C_17  and  C_19
REMARK    4  A    between atoms: C_19  and  C_20
REMARK                            x       y       z     vdW  Elec       q    Type
REMARK                         _______ _______ _______ _____ _____    ______ ____
ROOT
ATOM      1  C   UNL     1      -2.310  12.277  20.086  0.00  0.00    +0.000 C 
ATOM      2  N   UNL     1      -1.028  12.876  20.466  0.00  0.00    +0.000 NA
ATOM      3  C   UNL     1      -0.885  14.174  19.769  0.00  0.00    +0.000 C 
ATOM      4  C   UNL     1       0.441  14.905  20.010  0.00  0.00    +0.000 C 
ATOM      5  O   UNL     1       0.467  16.136  20.010  0.00  0.00    +0.000 OA
ATOM      6  N   UNL     1       1.564  14.063  20.012  0.00  0.00    +0.000 N 
ATOM      7  C   UNL     1       1.404  12.799  20.723  0.00  0.00    +0.000 C 
ATOM      8  C   UNL     1       0.149  11.997  20.286  0.00  0.00    +0.000 C 
ATOM      9  C   UNL     1       0.060  10.748  21.221  0.00  0.00    +0.000 C 
ATOM     10  C   UNL     1       0.122   9.540  20.304  0.00  0.00    +0.000 C 
ATOM     11  N   UNL     1       0.840  10.029  19.150  0.00  0.00    +0.000 N 
ATOM     12  C   UNL     1       1.813   9.372  18.424  0.00  0.00    +0.000 C 
ATOM     13  O   UNL     1       2.390   9.900  17.479  0.00  0.00    +0.000 OA
ATOM     14  C   UNL     1       0.430  11.397  18.875  0.00  0.00    +0.000 C 
ENDROOT
BRANCH   6  15
ATOM     15  C   UNL     1       2.784  14.481  19.432  0.00  0.00    +0.000 A 
ATOM     16  C   UNL     1       3.072  14.593  18.029  0.00  0.00    +0.000 A 
ATOM     17  C   UNL     1       4.373  14.954  17.762  0.00  0.00    +0.000 A 
ATOM     18  S   UNL     1       5.282  15.157  19.187  0.00  0.00    +0.000 S 
ATOM     19  C   UNL     1       3.925  14.772  20.159  0.00  0.00    +0.000 A 
ENDBRANCH   6  15
BRANCH  12  20
ATOM     20  C   UNL     1       2.134   7.960  18.901  0.00  0.00    +0.000 C 
BRANCH  20  21
ATOM     21  C   UNL     1       2.563   6.980  17.808  0.00  0.00    +0.000 C 
ATOM     22  C   UNL     1       4.088   6.963  17.646  0.00  0.00    +0.000 C 
ATOM     23  C   UNL     1       4.374   5.600  17.043  0.00  0.00    +0.000 C 
ATOM     24  C   UNL     1       3.410   4.676  17.767  0.00  0.00    +0.000 C 
ATOM     25  C   UNL     1       2.180   5.522  18.086  0.00  0.00    +0.000 C 
ENDBRANCH  20  21
ENDBRANCH  12  20
TORSDOF 3
ENDMDL
MODEL 4
REMARK VINA RESULT:      -5.7      7.757     11.899
REMARK  Name = 
REMARK  4 active torsions:
REMARK  status: ('A' for Active; 'I' for Inactive)
REMARK    1  A    between atoms: C_1  and  N_2
REMARK    2  A    between atoms: N_6  and  C_7
REMARK    3  A    between atoms: C_17  and  C_19
REMARK    4  A    between atoms: C_19  and  C_20
REMARK                            x       y       z     vdW  Elec       q    Type
REMARK                         _______ _______ _______ _____ _____    ______ ____
ROOT
ATOM      1  C   UNL     1       0.180  10.051  20.252  0.00  0.00    +0.000 C 
ATOM      2  N   UNL     1       0.301  11.337  19.560  0.00  0.00    +0.000 NA
ATOM      3  C   UNL     1       0.887  12.326  20.492  0.00  0.00    +0.000 C 
ATOM      4  C   UNL     1       1.023  13.749  19.938  0.00  0.00    +0.000 C 
ATOM      5  O   UNL     1       1.952  14.463  20.314  0.00  0.00    +0.000 OA
ATOM      6  N   UNL     1      -0.081  14.173  19.182  0.00  0.00    +0.000 N 
ATOM      7  C   UNL     1      -0.628  13.187  18.255  0.00  0.00    +0.000 C 
ATOM      8  C   UNL     1      -0.943  11.821  18.920  0.00  0.00    +0.000 C 
ATOM      9  C   UNL     1      -1.396  10.854  17.779  0.00  0.00    +0.000 C 
ATOM     10  C   UNL     1      -2.801  10.411  18.145  0.00  0.00    +0.000 C 
ATOM     11  N   UNL     1      -3.296  11.499  18.958  0.00  0.00    +0.000 N 
ATOM     12  C   UNL     1      -4.559  12.056  18.938  0.00  0.00    +0.000 C 
ATOM     13  O   UNL     1      -4.862  13.010  19.648  0.00  0.00    +0.000 OA
ATOM     14  C   UNL     1      -2.220  11.998  19.798  0.00  0.00    +0.000 C 
ENDROOT
BRANCH   6  15
ATOM     15  C   UNL     1      -0.551  15.504  19.269  0.00  0.00    +0.000 A 
ATOM     16  C   UNL     1      -0.217  16.589  18.389  0.00  0.00    +0.000 A 
ATOM     17  C   UNL     1      -0.770  17.792  18.766  0.00  0.00    +0.000 A 
ATOM     18  S   UNL     1      -1.692  17.650  20.189  0.00  0.00    +0.000 S 
ATOM     19  C   UNL     1      -1.359  15.973  20.290  0.00  0.00    +0.000 A 
ENDBRANCH   6  15
BRANCH  12  20
ATOM     20  C   UNL     1      -5.532  11.420  17.952  0.00  0.00    +0.000 C 
BRANCH  20  21
ATOM     21  C   UNL     1      -6.792  10.815  18.572  0.00  0.00    +0.000 C 
ATOM     22  C   UNL     1      -6.477   9.505  19.304  0.00  0.00    +0.000 C 
ATOM     23  C   UNL     1      -7.596   9.379  20.322  0.00  0.00    +0.000 C 
ATOM     24  C   UNL     1      -7.800  10.803  20.811  0.00  0.00    +0.000 C 
ATOM     25  C   UNL     1      -7.462  11.704  19.626  0.00  0.00    +0.000 C 
ENDBRANCH  20  21
ENDBRANCH  12  20
TORSDOF 3
ENDMDL
MODEL 5
REMARK VINA RESULT:      -5.7      7.970     11.201
REMARK  Name = 
REMARK  4 active torsions:
REMARK  status: ('A' for Active; 'I' for Inactive)
REMARK    1  A    between atoms: C_1  and  N_2
REMARK    2  A    between atoms: N_6  and  C_7
REMARK    3  A    between atoms: C_17  and  C_19
REMARK    4  A    between atoms: C_19  and  C_20
REMARK                            x       y       z     vdW  Elec       q    Type
REMARK                         _______ _______ _______ _____ _____    ______ ____
ROOT
ATOM      1  C   UNL     1       1.872  15.312  20.893  0.00  0.00    +0.000 C 
ATOM      2  N   UNL     1       0.429  15.403  21.130  0.00  0.00    +0.000 NA
ATOM      3  C   UNL     1       0.192  15.520  22.586  0.00  0.00    +0.000 C 
ATOM      4  C   UNL     1      -1.280  15.561  23.011  0.00  0.00    +0.000 C 
ATOM      5  O   UNL     1      -1.610  16.208  24.004  0.00  0.00    +0.000 OA
ATOM      6  N   UNL     1      -2.100  14.663  22.310  0.00  0.00    +0.000 N 
ATOM      7  C   UNL     1      -1.862  14.581  20.872  0.00  0.00    +0.000 C 
ATOM      8  C   UNL     1      -0.375  14.329  20.505  0.00  0.00    +0.000 C 
ATOM      9  C   UNL     1      -0.275  14.393  18.946  0.00  0.00    +0.000 C 
ATOM     10  C   UNL     1       0.256  13.040  18.509  0.00  0.00    +0.000 C 
ATOM     11  N   UNL     1      -0.162  12.155  19.572  0.00  0.00    +0.000 N 
ATOM     12  C   UNL     1      -0.663  10.874  19.451  0.00  0.00    +0.000 C 
ATOM     13  O   UNL     1      -1.027  10.222  20.424  0.00  0.00    +0.000 OA
ATOM     14  C   UNL     1      -0.041  12.845  20.846  0.00  0.00    +0.000 C 
ENDROOT
BRANCH   6  15
ATOM     15  C   UNL     1      -3.140  13.967  22.966  0.00  0.00    +0.000 A 
ATOM     16  C   UNL     1      -4.544  14.267  22.905  0.00  0.00    +0.000 A 
ATOM     17  C   UNL     1      -5.314  13.459  23.710  0.00  0.00    +0.000 A 
ATOM     18  S   UNL     1      -4.371  12.330  24.566  0.00  0.00    +0.000 S 
ATOM     19  C   UNL     1      -2.933  12.918  23.846  0.00  0.00    +0.000 A 
ENDBRANCH   6  15
BRANCH  12  20
ATOM     20  C   UNL     1      -0.755  10.347  18.023  0.00  0.00    +0.000 C 
BRANCH  20  21
ATOM     21  C   UNL     1      -2.172  10.089  17.510  0.00  0.00    +0.000 C 
ATOM     22  C   UNL     1      -3.076  11.306  17.741  0.00  0.00    +0.000 C 
ATOM     23  C   UNL     1      -4.163  11.157  16.692  0.00  0.00    +0.000 C 
ATOM     24  C   UNL     1      -3.416  10.653  15.469  0.00  0.00    +0.000 C 
ATOM     25  C   UNL     1      -2.254   9.819  16.003  0.00  0.00    +0.000 C 
ENDBRANCH  20  21
ENDBRANCH  12  20
TORSDOF 3
ENDMDL
MODEL 6
REMARK VINA RESULT:      -5.7      4.827      8.662
REMARK  Name = 
REMARK  4 active torsions:
REMARK  status: ('A' for Active; 'I' for Inactive)
REMARK    1  A    between atoms: C_1  and  N_2
REMARK    2  A    between atoms: N_6  and  C_7
REMARK    3  A    between atoms: C_17  and  C_19
REMARK    4  A    between atoms: C_19  and  C_20
REMARK                            x       y       z     vdW  Elec       q    Type
REMARK                         _______ _______ _______ _____ _____    ______ ____
ROOT
ATOM      1  C   UNL     1      -2.376  12.244  20.312  0.00  0.00    +0.000 C 
ATOM      2  N   UNL     1      -1.087  12.833  20.682  0.00  0.00    +0.000 NA
ATOM      3  C   UNL     1      -0.876  14.061  19.884  0.00  0.00    +0.000 C 
ATOM      4  C   UNL     1       0.466  14.768  20.107  0.00  0.00    +0.000 C 
ATOM      5  O   UNL     1       0.534  15.992  20.003  0.00  0.00    +0.000 OA
ATOM      6  N   UNL     1       1.558  13.893  20.217  0.00  0.00    +0.000 N 
ATOM      7  C   UNL     1       1.333  12.701  21.028  0.00  0.00    +0.000 C 
ATOM      8  C   UNL     1       0.065  11.905  20.618  0.00  0.00    +0.000 C 
ATOM      9  C   UNL     1      -0.096  10.744  21.652  0.00  0.00    +0.000 C 
ATOM     10  C   UNL     1      -0.048   9.460  20.843  0.00  0.00    +0.000 C 
ATOM     11  N   UNL     1       0.722   9.826  19.677  0.00  0.00    +0.000 N 
ATOM     12  C   UNL     1       1.693   9.077  19.042  0.00  0.00    +0.000 C 
ATOM     13  O   UNL     1       2.317   9.504  18.076  0.00  0.00    +0.000 OA
ATOM     14  C   UNL     1       0.369  11.177  19.273  0.00  0.00    +0.000 C 
ENDROOT
BRANCH   6  15
ATOM     15  C   UNL     1       2.809  14.220  19.646  0.00  0.00    +0.000 A 
ATOM     16  C   UNL     1       3.995  14.619  20.351  0.00  0.00    +0.000 A 
ATOM     17  C   UNL     1       5.044  14.947  19.522  0.00  0.00    +0.000 A 
ATOM     18  S   UNL     1       4.626  14.796  17.879  0.00  0.00    +0.000 S 
ATOM     19  C   UNL     1       3.045  14.278  18.283  0.00  0.00    +0.000 A 
ENDBRANCH   6  15
BRANCH  12  20
ATOM     20  C   UNL     1       1.950   7.702  19.648  0.00  0.00    +0.000 C 
BRANCH  20  21
ATOM     21  C   UNL     1       2.793   6.756  18.792  0.00  0.00    +0.000 C 
ATOM     22  C   UNL     1       3.507   5.711  19.658  0.00  0.00    +0.000 C 
ATOM     23  C   UNL     1       3.755   4.556  18.705  0.00  0.00    +0.000 C 
ATOM     24  C   UNL     1       2.487   4.502  17.869  0.00  0.00    +0.000 C 
ATOM     25  C   UNL     1       1.985   5.940  17.776  0.00  0.00    +0.000 C 
ENDBRANCH  20  21
ENDBRANCH  12  20
TORSDOF 3
ENDMDL
MODEL 7
REMARK VINA RESULT:      -5.6      7.629     10.144
REMARK  Name = 
REMARK  4 active torsions:
REMARK  status: ('A' for Active; 'I' for Inactive)
REMARK    1  A    between atoms: C_1  and  N_2
REMARK    2  A    between atoms: N_6  and  C_7
REMARK    3  A    between atoms: C_17  and  C_19
REMARK    4  A    between atoms: C_19  and  C_20
REMARK                            x       y       z     vdW  Elec       q    Type
REMARK                         _______ _______ _______ _____ _____    ______ ____
ROOT
ATOM      1  C   UNL     1      -3.209  10.872  15.331  0.00  0.00    +0.000 C 
ATOM      2  N   UNL     1      -3.962  10.878  16.588  0.00  0.00    +0.000 NA
ATOM      3  C   UNL     1      -4.990  11.940  16.523  0.00  0.00    +0.000 C 
ATOM      4  C   UNL     1      -5.828  12.122  17.794  0.00  0.00    +0.000 C 
ATOM      5  O   UNL     1      -6.999  12.490  17.705  0.00  0.00    +0.000 OA
ATOM      6  N   UNL     1      -5.086  12.035  18.982  0.00  0.00    +0.000 N 
ATOM      7  C   UNL     1      -4.093  10.966  19.031  0.00  0.00    +0.000 C 
ATOM      8  C   UNL     1      -3.133  10.958  17.812  0.00  0.00    +0.000 C 
ATOM      9  C   UNL     1      -2.226   9.693  17.956  0.00  0.00    +0.000 C 
ATOM     10  C   UNL     1      -0.800  10.210  18.017  0.00  0.00    +0.000 C 
ATOM     11  N   UNL     1      -0.950  11.549  18.538  0.00  0.00    +0.000 N 
ATOM     12  C   UNL     1      -0.153  12.182  19.471  0.00  0.00    +0.000 C 
ATOM     13  O   UNL     1      -0.396  13.315  19.875  0.00  0.00    +0.000 OA
ATOM     14  C   UNL     1      -2.145  12.155  17.972  0.00  0.00    +0.000 C 
ENDROOT
BRANCH   6  15
ATOM     15  C   UNL     1      -5.369  12.883  20.077  0.00  0.00    +0.000 A 
ATOM     16  C   UNL     1      -5.782  12.477  21.392  0.00  0.00    +0.000 A 
ATOM     17  C   UNL     1      -6.057  13.532  22.232  0.00  0.00    +0.000 A 
ATOM     18  S   UNL     1      -5.837  15.034  21.460  0.00  0.00    +0.000 S 
ATOM     19  C   UNL     1      -5.361  14.266  20.006  0.00  0.00    +0.000 A 
ENDBRANCH   6  15
BRANCH  12  20
ATOM     20  C   UNL     1       1.027  11.361  19.979  0.00  0.00    +0.000 C 
BRANCH  20  21
ATOM     21  C   UNL     1       0.837  10.723  21.356  0.00  0.00    +0.000 C 
ATOM     22  C   UNL     1      -0.443  11.231  22.032  0.00  0.00    +0.000 C 
ATOM     23  C   UNL     1      -0.802  10.125  23.008  0.00  0.00    +0.000 C 
ATOM     24  C   UNL     1      -0.483   8.852  22.243  0.00  0.00    +0.000 C 
ATOM     25  C   UNL     1       0.687   9.197  21.325  0.00  0.00    +0.000 C 
ENDBRANCH  20  21
ENDBRANCH  12  20
TORSDOF 3
ENDMDL
MODEL 8
REMARK VINA RESULT:      -5.6      7.708     10.984
REMARK  Name = 
REMARK  4 active torsions:
REMARK  status: ('A' for Active; 'I' for Inactive)
REMARK    1  A    between atoms: C_1  and  N_2
REMARK    2  A    between atoms: N_6  and  C_7
REMARK    3  A    between atoms: C_17  and  C_19
REMARK    4  A    between atoms: C_19  and  C_20
REMARK                            x       y       z     vdW  Elec       q    Type
REMARK                         _______ _______ _______ _____ _____    ______ ____
ROOT
ATOM      1  C   UNL     1      -1.462  14.371  23.274  0.00  0.00    +0.000 C 
ATOM      2  N   UNL     1      -0.089  14.343  22.761  0.00  0.00    +0.000 NA
ATOM      3  C   UNL     1       0.344  15.731  22.484  0.00  0.00    +0.000 C 
ATOM      4  C   UNL     1       1.745  15.873  21.878  0.00  0.00    +0.000 C 
ATOM      5  O   UNL     1       2.423  16.866  22.137  0.00  0.00    +0.000 OA
ATOM      6  N   UNL     1       2.041  14.913  20.898  0.00  0.00    +0.000 N 
ATOM      7  C   UNL     1       1.623  13.548  21.204  0.00  0.00    +0.000 C 
ATOM      8  C   UNL     1       0.130  13.435  21.613  0.00  0.00    +0.000 C 
ATOM      9  C   UNL     1      -0.117  11.947  22.023  0.00  0.00    +0.000 C 
ATOM     10  C   UNL     1      -1.199  11.435  21.090  0.00  0.00    +0.000 C 
ATOM     11  N   UNL     1      -1.054  12.268  19.918  0.00  0.00    +0.000 N 
ATOM     12  C   UNL     1      -1.135  11.879  18.596  0.00  0.00    +0.000 C 
ATOM     13  O   UNL     1      -0.955  12.667  17.672  0.00  0.00    +0.000 OA
ATOM     14  C   UNL     1      -0.735  13.625  20.330  0.00  0.00    +0.000 C 
ENDROOT
BRANCH   6  15
ATOM     15  C   UNL     1       2.778  15.260  19.743  0.00  0.00    +0.000 A 
ATOM     16  C   UNL     1       4.162  14.968  19.490  0.00  0.00    +0.000 A 
ATOM     17  C   UNL     1       4.628  15.497  18.307  0.00  0.00    +0.000 A 
ATOM     18  S   UNL     1       3.420  16.365  17.479  0.00  0.00    +0.000 S 
ATOM     19  C   UNL     1       2.272  16.018  18.701  0.00  0.00    +0.000 A 
ENDBRANCH   6  15
BRANCH  12  20
ATOM     20  C   UNL     1      -1.433  10.400  18.372  0.00  0.00    +0.000 C 
BRANCH  20  21
ATOM     21  C   UNL     1      -2.715  10.100  17.595  0.00  0.00    +0.000 C 
ATOM     22  C   UNL     1      -3.769  11.191  17.820  0.00  0.00    +0.000 C 
ATOM     23  C   UNL     1      -4.655  11.101  16.590  0.00  0.00    +0.000 C 
ATOM     24  C   UNL     1      -3.674  10.840  15.460  0.00  0.00    +0.000 C 
ATOM     25  C   UNL     1      -2.529  10.040  16.075  0.00  0.00    +0.000 C 
ENDBRANCH  20  21
ENDBRANCH  12  20
TORSDOF 3
ENDMDL
MODEL 9
REMARK VINA RESULT:      -5.5      5.942      9.448
REMARK  Name = 
REMARK  4 active torsions:
REMARK  status: ('A' for Active; 'I' for Inactive)
REMARK    1  A    between atoms: C_1  and  N_2
REMARK    2  A    between atoms: N_6  and  C_7
REMARK    3  A    between atoms: C_17  and  C_19
REMARK    4  A    between atoms: C_19  and  C_20
REMARK                            x       y       z     vdW  Elec       q    Type
REMARK                         _______ _______ _______ _____ _____    ______ ____
ROOT
ATOM      1  C   UNL     1       0.983  13.605  18.694  0.00  0.00    +0.000 C 
ATOM      2  N   UNL     1      -0.424  13.481  19.081  0.00  0.00    +0.000 NA
ATOM      3  C   UNL     1      -0.753  14.561  20.037  0.00  0.00    +0.000 C 
ATOM      4  C   UNL     1      -2.182  14.535  20.593  0.00  0.00    +0.000 C 
ATOM      5  O   UNL     1      -2.744  15.591  20.879  0.00  0.00    +0.000 OA
ATOM      6  N   UNL     1      -2.644  13.249  20.912  0.00  0.00    +0.000 N 
ATOM      7  C   UNL     1      -2.327  12.204  19.943  0.00  0.00    +0.000 C 
ATOM      8  C   UNL     1      -0.821  12.142  19.573  0.00  0.00    +0.000 C 
ATOM      9  C   UNL     1      -0.674  11.068  18.447  0.00  0.00    +0.000 C 
ATOM     10  C   UNL     1       0.275  10.019  18.997  0.00  0.00    +0.000 C 
ATOM     11  N   UNL     1       0.107  10.129  20.427  0.00  0.00    +0.000 N 
ATOM     12  C   UNL     1       0.041   9.103  21.348  0.00  0.00    +0.000 C 
ATOM     13  O   UNL     1      -0.145   9.310  22.543  0.00  0.00    +0.000 OA
ATOM     14  C   UNL     1      -0.053  11.530  20.785  0.00  0.00    +0.000 C 
ENDROOT
BRANCH   6  15
ATOM     15  C   UNL     1      -3.442  13.030  22.058  0.00  0.00    +0.000 A 
ATOM     16  C   UNL     1      -4.872  13.143  22.141  0.00  0.00    +0.000 A 
ATOM     17  C   UNL     1      -5.367  12.942  23.410  0.00  0.00    +0.000 A 
ATOM     18  S   UNL     1      -4.127  12.624  24.533  0.00  0.00    +0.000 S 
ATOM     19  C   UNL     1      -2.932  12.743  23.313  0.00  0.00    +0.000 A 
ENDBRANCH   6  15
BRANCH  12  20
ATOM     20  C   UNL     1       0.185   7.701  20.767  0.00  0.00    +0.000 C 
BRANCH  20  21
ATOM     21  C   UNL     1       1.614   7.161  20.702  0.00  0.00    +0.000 C 
ATOM     22  C   UNL     1       1.635   5.631  20.797  0.00  0.00    +0.000 C 
ATOM     23  C   UNL     1       2.940   5.243  20.125  0.00  0.00    +0.000 C 
ATOM     24  C   UNL     1       3.037   6.198  18.948  0.00  0.00    +0.000 C 
ATOM     25  C   UNL     1       2.349   7.485  19.396  0.00  0.00    +0.000 C 
ENDBRANCH  20  21
ENDBRANCH  12  20
TORSDOF 3
ENDMDL
