MODEL 1
REMARK VINA RESULT:      -7.9      0.000      0.000
REMARK  Name = 
REMARK  6 active torsions:
REMARK  status: ('A' for Active; 'I' for Inactive)
REMARK    1  A    between atoms: C_1  and  C_2
REMARK    2  A    between atoms: C_2  and  C_3
REMARK    3  A    between atoms: N_5  and  C_6
REMARK    4  A    between atoms: C_15  and  N_16
REMARK    5  A    between atoms: C_17  and  C_19
REMARK    6  A    between atoms: C_19  and  C_20
REMARK                            x       y       z     vdW  Elec       q    Type
REMARK                         _______ _______ _______ _____ _____    ______ ____
ROOT
ATOM      1  C   UNL     1       4.448   5.883  17.167  0.00  0.00    +0.000 A 
ATOM      2  C   UNL     1       4.221   5.274  18.417  0.00  0.00    +0.000 A 
ATOM      3  C   UNL     1       3.383   5.847  19.381  0.00  0.00    +0.000 A 
ATOM      4  C   UNL     1       2.776   7.046  19.081  0.00  0.00    +0.000 A 
ATOM      5  C   UNL     1       3.037   7.683  17.846  0.00  0.00    +0.000 A 
ATOM      6  C   UNL     1       3.881   7.130  16.893  0.00  0.00    +0.000 A 
ATOM      7  C   UNL     1       2.241   8.962  17.739  0.00  0.00    +0.000 C 
ATOM      8  C   UNL     1       1.506   8.970  19.062  0.00  0.00    +0.000 A 
ATOM      9  C   UNL     1       0.612   9.925  19.499  0.00  0.00    +0.000 A 
ATOM     10  C   UNL     1       0.008   9.768  20.747  0.00  0.00    +0.000 A 
ATOM     11  C   UNL     1       0.322   8.633  21.525  0.00  0.00    +0.000 A 
ATOM     12  C   UNL     1       1.235   7.663  21.067  0.00  0.00    +0.000 A 
ATOM     13  C   UNL     1       1.829   7.843  19.832  0.00  0.00    +0.000 A 
ENDROOT
BRANCH   1  16
ATOM     14  C   UNL     1       6.585   5.380  16.015  0.00  0.00    +0.000 C 
ATOM     15  O   UNL     1       7.330   6.008  16.760  0.00  0.00    +0.000 OA
ATOM     16  N   UNL     1       5.210   5.266  16.149  0.00  0.00    +0.000 N 
ATOM     17  H   UNL     1       4.743   4.562  15.592  0.00  0.00    +0.000 HD
BRANCH  14  19
ATOM     18  C   UNL     1       5.990   4.022  14.010  0.00  0.00    +0.000 C 
ATOM     19  C   UNL     1       7.132   4.612  14.827  0.00  0.00    +0.000 C 
ENDBRANCH  14  19
ENDBRANCH   1  16
BRANCH  10  20
ATOM     20  N   UNL     1      -0.914  10.713  21.265  0.00  0.00    +0.000 N 
ATOM     21  C   UNL     1      -1.022  11.081  22.599  0.00  0.00    +0.000 C 
ATOM     22  O   UNL     1      -0.339  10.658  23.526  0.00  0.00    +0.000 OA
ATOM     23  H   UNL     1      -1.544  11.145  20.602  0.00  0.00    +0.000 HD
BRANCH  21  24
ATOM     24  C   UNL     1      -2.112  12.104  22.853  0.00  0.00    +0.000 C 
ATOM     25  C   UNL     1      -2.654  12.636  21.532  0.00  0.00    +0.000 C 
ENDBRANCH  21  24
ENDBRANCH  10  20
TORSDOF 4
ENDMDL
MODEL 2
REMARK VINA RESULT:      -7.8      1.818      2.649
REMARK  Name = 
REMARK  6 active torsions:
REMARK  status: ('A' for Active; 'I' for Inactive)
REMARK    1  A    between atoms: C_1  and  C_2
REMARK    2  A    between atoms: C_2  and  C_3
REMARK    3  A    between atoms: N_5  and  C_6
REMARK    4  A    between atoms: C_15  and  N_16
REMARK    5  A    between atoms: C_17  and  C_19
REMARK    6  A    between atoms: C_19  and  C_20
REMARK                            x       y       z     vdW  Elec       q    Type
REMARK                         _______ _______ _______ _____ _____    ______ ____
ROOT
ATOM      1  C   UNL     1       5.689   4.841  15.908  0.00  0.00    +0.000 A 
ATOM      2  C   UNL     1       5.404   3.842  16.860  0.00  0.00    +0.000 A 
ATOM      3  C   UNL     1       4.566   4.078  17.956  0.00  0.00    +0.000 A 
ATOM      4  C   UNL     1       4.018   5.333  18.093  0.00  0.00    +0.000 A 
ATOM      5  C   UNL     1       4.337   6.352  17.166  0.00  0.00    +0.000 A 
ATOM      6  C   UNL     1       5.181   6.130  16.088  0.00  0.00    +0.000 A 
ATOM      7  C   UNL     1       3.597   7.622  17.510  0.00  0.00    +0.000 C 
ATOM      8  C   UNL     1       2.829   7.198  18.743  0.00  0.00    +0.000 A 
ATOM      9  C   UNL     1       1.964   7.980  19.481  0.00  0.00    +0.000 A 
ATOM     10  C   UNL     1       1.322   7.422  20.587  0.00  0.00    +0.000 A 
ATOM     11  C   UNL     1       1.568   6.072  20.916  0.00  0.00    +0.000 A 
ATOM     12  C   UNL     1       2.452   5.284  20.154  0.00  0.00    +0.000 A 
ATOM     13  C   UNL     1       3.085   5.858  19.068  0.00  0.00    +0.000 A 
ENDROOT
BRANCH   1  16
ATOM     14  C   UNL     1       5.939   4.084  13.560  0.00  0.00    +0.000 C 
ATOM     15  O   UNL     1       4.763   3.806  13.347  0.00  0.00    +0.000 OA
ATOM     16  N   UNL     1       6.452   4.587  14.745  0.00  0.00    +0.000 N 
ATOM     17  H   UNL     1       7.392   4.960  14.726  0.00  0.00    +0.000 HD
BRANCH  14  19
ATOM     18  C   UNL     1       7.777   5.204  12.302  0.00  0.00    +0.000 C 
ATOM     19  C   UNL     1       6.992   3.912  12.482  0.00  0.00    +0.000 C 
ENDBRANCH  14  19
ENDBRANCH   1  16
BRANCH  10  20
ATOM     20  N   UNL     1       0.427   8.167  21.396  0.00  0.00    +0.000 N 
ATOM     21  C   UNL     1       0.798   9.093  22.361  0.00  0.00    +0.000 C 
ATOM     22  O   UNL     1       1.945   9.414  22.655  0.00  0.00    +0.000 OA
ATOM     23  H   UNL     1      -0.561   7.999  21.257  0.00  0.00    +0.000 HD
BRANCH  21  24
ATOM     24  C   UNL     1      -0.383   9.719  23.078  0.00  0.00    +0.000 C 
ATOM     25  C   UNL     1      -0.649  11.117  22.532  0.00  0.00    +0.000 C 
ENDBRANCH  21  24
ENDBRANCH  10  20
TORSDOF 4
ENDMDL
MODEL 3
REMARK VINA RESULT:      -7.7      0.263      8.794
REMARK  Name = 
REMARK  6 active torsions:
REMARK  status: ('A' for Active; 'I' for Inactive)
REMARK    1  A    between atoms: C_1  and  C_2
REMARK    2  A    between atoms: C_2  and  C_3
REMARK    3  A    between atoms: N_5  and  C_6
REMARK    4  A    between atoms: C_15  and  N_16
REMARK    5  A    between atoms: C_17  and  C_19
REMARK    6  A    between atoms: C_19  and  C_20
REMARK                            x       y       z     vdW  Elec       q    Type
REMARK                         _______ _______ _______ _____ _____    ______ ____
ROOT
ATOM      1  C   UNL     1       0.080   9.852  20.864  0.00  0.00    +0.000 A 
ATOM      2  C   UNL     1       0.381   8.695  21.610  0.00  0.00    +0.000 A 
ATOM      3  C   UNL     1       1.216   7.687  21.113  0.00  0.00    +0.000 A 
ATOM      4  C   UNL     1       1.743   7.847  19.851  0.00  0.00    +0.000 A 
ATOM      5  C   UNL     1       1.408   8.985  19.081  0.00  0.00    +0.000 A 
ATOM      6  C   UNL     1       0.567   9.979  19.560  0.00  0.00    +0.000 A 
ATOM      7  C   UNL     1       2.127   8.948  17.754  0.00  0.00    +0.000 C 
ATOM      8  C   UNL     1       2.902   7.653  17.868  0.00  0.00    +0.000 A 
ATOM      9  C   UNL     1       3.755   7.120  16.922  0.00  0.00    +0.000 A 
ATOM     10  C   UNL     1       4.405   5.918  17.198  0.00  0.00    +0.000 A 
ATOM     11  C   UNL     1       4.180   5.282  18.438  0.00  0.00    +0.000 A 
ATOM     12  C   UNL     1       3.309   5.837  19.396  0.00  0.00    +0.000 A 
ATOM     13  C   UNL     1       2.667   7.024  19.099  0.00  0.00    +0.000 A 
ENDROOT
BRANCH   1  16
ATOM     14  C   UNL     1      -0.828  11.189  22.745  0.00  0.00    +0.000 C 
ATOM     15  O   UNL     1      -0.318  10.556  23.663  0.00  0.00    +0.000 OA
ATOM     16  N   UNL     1      -0.678  10.921  21.393  0.00  0.00    +0.000 N 
ATOM     17  H   UNL     1      -0.983  11.631  20.740  0.00  0.00    +0.000 HD
BRANCH  14  19
ATOM     18  C   UNL     1      -2.362  12.873  21.730  0.00  0.00    +0.000 C 
ATOM     19  C   UNL     1      -1.700  12.399  23.017  0.00  0.00    +0.000 C 
ENDBRANCH  14  19
ENDBRANCH   1  16
BRANCH  10  20
ATOM     20  N   UNL     1       5.288   5.307  16.272  0.00  0.00    +0.000 N 
ATOM     21  C   UNL     1       6.609   5.677  16.058  0.00  0.00    +0.000 C 
ATOM     22  O   UNL     1       7.215   6.573  16.637  0.00  0.00    +0.000 OA
ATOM     23  H   UNL     1       4.915   4.545  15.721  0.00  0.00    +0.000 HD
BRANCH  21  24
ATOM     24  C   UNL     1       7.299   4.849  14.991  0.00  0.00    +0.000 C 
ATOM     25  C   UNL     1       6.297   3.925  14.310  0.00  0.00    +0.000 C 
ENDBRANCH  21  24
ENDBRANCH  10  20
TORSDOF 4
ENDMDL
MODEL 4
REMARK VINA RESULT:      -7.7      1.619      2.444
REMARK  Name = 
REMARK  6 active torsions:
REMARK  status: ('A' for Active; 'I' for Inactive)
REMARK    1  A    between atoms: C_1  and  C_2
REMARK    2  A    between atoms: C_2  and  C_3
REMARK    3  A    between atoms: N_5  and  C_6
REMARK    4  A    between atoms: C_15  and  N_16
REMARK    5  A    between atoms: C_17  and  C_19
REMARK    6  A    between atoms: C_19  and  C_20
REMARK                            x       y       z     vdW  Elec       q    Type
REMARK                         _______ _______ _______ _____ _____    ______ ____
ROOT
ATOM      1  C   UNL     1       5.100   4.667  15.618  0.00  0.00    +0.000 A 
ATOM      2  C   UNL     1       4.707   3.629  16.486  0.00  0.00    +0.000 A 
ATOM      3  C   UNL     1       3.983   3.875  17.658  0.00  0.00    +0.000 A 
ATOM      4  C   UNL     1       3.660   5.179  17.957  0.00  0.00    +0.000 A 
ATOM      5  C   UNL     1       4.090   6.229  17.113  0.00  0.00    +0.000 A 
ATOM      6  C   UNL     1       4.825   5.994  15.959  0.00  0.00    +0.000 A 
ATOM      7  C   UNL     1       3.593   7.556  17.634  0.00  0.00    +0.000 C 
ATOM      8  C   UNL     1       2.836   7.128  18.872  0.00  0.00    +0.000 A 
ATOM      9  C   UNL     1       2.155   7.953  19.745  0.00  0.00    +0.000 A 
ATOM     10  C   UNL     1       1.493   7.387  20.835  0.00  0.00    +0.000 A 
ATOM     11  C   UNL     1       1.530   5.988  21.011  0.00  0.00    +0.000 A 
ATOM     12  C   UNL     1       2.226   5.156  20.113  0.00  0.00    +0.000 A 
ATOM     13  C   UNL     1       2.884   5.737  19.045  0.00  0.00    +0.000 A 
ENDROOT
BRANCH   1  16
ATOM     14  C   UNL     1       7.029   4.835  14.068  0.00  0.00    +0.000 C 
ATOM     15  O   UNL     1       7.790   5.446  14.812  0.00  0.00    +0.000 OA
ATOM     16  N   UNL     1       5.743   4.424  14.383  0.00  0.00    +0.000 N 
ATOM     17  H   UNL     1       5.300   3.760  13.761  0.00  0.00    +0.000 HD
BRANCH  14  19
ATOM     18  C   UNL     1       6.474   3.425  12.088  0.00  0.00    +0.000 C 
ATOM     19  C   UNL     1       7.455   4.435  12.669  0.00  0.00    +0.000 C 
ENDBRANCH  14  19
ENDBRANCH   1  16
BRANCH  10  20
ATOM     20  N   UNL     1       0.781   8.173  21.777  0.00  0.00    +0.000 N 
ATOM     21  C   UNL     1      -0.069   9.225  21.466  0.00  0.00    +0.000 C 
ATOM     22  O   UNL     1      -0.342   9.628  20.339  0.00  0.00    +0.000 OA
ATOM     23  H   UNL     1       0.915   7.946  22.753  0.00  0.00    +0.000 HD
BRANCH  21  24
ATOM     24  C   UNL     1      -0.677   9.888  22.687  0.00  0.00    +0.000 C 
ATOM     25  C   UNL     1      -0.953  11.359  22.405  0.00  0.00    +0.000 C 
ENDBRANCH  21  24
ENDBRANCH  10  20
TORSDOF 4
ENDMDL
MODEL 5
REMARK VINA RESULT:      -7.6      2.209      9.416
REMARK  Name = 
REMARK  6 active torsions:
REMARK  status: ('A' for Active; 'I' for Inactive)
REMARK    1  A    between atoms: C_1  and  C_2
REMARK    2  A    between atoms: C_2  and  C_3
REMARK    3  A    between atoms: N_5  and  C_6
REMARK    4  A    between atoms: C_15  and  N_16
REMARK    5  A    between atoms: C_17  and  C_19
REMARK    6  A    between atoms: C_19  and  C_20
REMARK                            x       y       z     vdW  Elec       q    Type
REMARK                         _______ _______ _______ _____ _____    ______ ____
ROOT
ATOM      1  C   UNL     1      -1.168  11.685  22.380  0.00  0.00    +0.000 A 
ATOM      2  C   UNL     1      -1.038  12.195  21.073  0.00  0.00    +0.000 A 
ATOM      3  C   UNL     1      -0.315  11.521  20.082  0.00  0.00    +0.000 A 
ATOM      4  C   UNL     1       0.286  10.329  20.417  0.00  0.00    +0.000 A 
ATOM      5  C   UNL     1       0.197   9.836  21.740  0.00  0.00    +0.000 A 
ATOM      6  C   UNL     1      -0.503  10.508  22.732  0.00  0.00    +0.000 A 
ATOM      7  C   UNL     1       0.910   8.510  21.852  0.00  0.00    +0.000 C 
ATOM      8  C   UNL     1       1.413   8.318  20.438  0.00  0.00    +0.000 A 
ATOM      9  C   UNL     1       2.136   7.243  19.962  0.00  0.00    +0.000 A 
ATOM     10  C   UNL     1       2.508   7.218  18.618  0.00  0.00    +0.000 A 
ATOM     11  C   UNL     1       2.129   8.288  17.780  0.00  0.00    +0.000 A 
ATOM     12  C   UNL     1       1.389   9.379  18.276  0.00  0.00    +0.000 A 
ATOM     13  C   UNL     1       1.039   9.389  19.613  0.00  0.00    +0.000 A 
ENDROOT
BRANCH   1  16
ATOM     14  C   UNL     1      -3.342  12.517  23.237  0.00  0.00    +0.000 C 
ATOM     15  O   UNL     1      -4.036  12.190  22.280  0.00  0.00    +0.000 OA
ATOM     16  N   UNL     1      -1.978  12.303  23.361  0.00  0.00    +0.000 N 
ATOM     17  H   UNL     1      -1.565  12.438  24.275  0.00  0.00    +0.000 HD
BRANCH  14  19
ATOM     18  C   UNL     1      -3.186  14.485  24.761  0.00  0.00    +0.000 C 
ATOM     19  C   UNL     1      -3.948  13.204  24.445  0.00  0.00    +0.000 C 
ENDBRANCH  14  19
ENDBRANCH   1  16
BRANCH  10  20
ATOM     20  N   UNL     1       3.258   6.152  18.061  0.00  0.00    +0.000 N 
ATOM     21  C   UNL     1       2.755   4.899  17.738  0.00  0.00    +0.000 C 
ATOM     22  O   UNL     1       1.593   4.527  17.873  0.00  0.00    +0.000 OA
ATOM     23  H   UNL     1       4.241   6.323  17.896  0.00  0.00    +0.000 HD
BRANCH  21  24
ATOM     24  C   UNL     1       3.801   3.958  17.173  0.00  0.00    +0.000 C 
ATOM     25  C   UNL     1       4.924   4.752  16.516  0.00  0.00    +0.000 C 
ENDBRANCH  21  24
ENDBRANCH  10  20
TORSDOF 4
ENDMDL
MODEL 6
REMARK VINA RESULT:      -7.6      2.063      9.299
REMARK  Name = 
REMARK  6 active torsions:
REMARK  status: ('A' for Active; 'I' for Inactive)
REMARK    1  A    between atoms: C_1  and  C_2
REMARK    2  A    between atoms: C_2  and  C_3
REMARK    3  A    between atoms: N_5  and  C_6
REMARK    4  A    between atoms: C_15  and  N_16
REMARK    5  A    between atoms: C_17  and  C_19
REMARK    6  A    between atoms: C_19  and  C_20
REMARK                            x       y       z     vdW  Elec       q    Type
REMARK                         _______ _______ _______ _____ _____    ______ ____
ROOT
ATOM      1  C   UNL     1      -1.304  11.770  21.846  0.00  0.00    +0.000 A 
ATOM      2  C   UNL     1      -1.081  12.229  20.533  0.00  0.00    +0.000 A 
ATOM      3  C   UNL     1      -0.281  11.524  19.626  0.00  0.00    +0.000 A 
ATOM      4  C   UNL     1       0.302  10.352  20.053  0.00  0.00    +0.000 A 
ATOM      5  C   UNL     1       0.119   9.911  21.384  0.00  0.00    +0.000 A 
ATOM      6  C   UNL     1      -0.658  10.614  22.294  0.00  0.00    +0.000 A 
ATOM      7  C   UNL     1       0.830   8.598  21.602  0.00  0.00    +0.000 C 
ATOM      8  C   UNL     1       1.438   8.355  20.238  0.00  0.00    +0.000 A 
ATOM      9  C   UNL     1       2.203   7.269  19.861  0.00  0.00    +0.000 A 
ATOM     10  C   UNL     1       2.674   7.195  18.550  0.00  0.00    +0.000 A 
ATOM     11  C   UNL     1       2.351   8.228  17.643  0.00  0.00    +0.000 A 
ATOM     12  C   UNL     1       1.568   9.329  18.040  0.00  0.00    +0.000 A 
ATOM     13  C   UNL     1       1.119   9.388  19.345  0.00  0.00    +0.000 A 
ENDROOT
BRANCH   1  16
ATOM     14  C   UNL     1      -1.860  13.518  23.516  0.00  0.00    +0.000 C 
ATOM     15  O   UNL     1      -0.774  14.088  23.530  0.00  0.00    +0.000 OA
ATOM     16  N   UNL     1      -2.189  12.418  22.738  0.00  0.00    +0.000 N 
ATOM     17  H   UNL     1      -3.168  12.170  22.671  0.00  0.00    +0.000 HD
BRANCH  14  19
ATOM     18  C   UNL     1      -4.039  12.891  24.554  0.00  0.00    +0.000 C 
ATOM     19  C   UNL     1      -3.009  14.000  24.380  0.00  0.00    +0.000 C 
ENDBRANCH  14  19
ENDBRANCH   1  16
BRANCH  10  20
ATOM     20  N   UNL     1       3.471   6.115  18.094  0.00  0.00    +0.000 N 
ATOM     21  C   UNL     1       2.994   4.866  17.720  0.00  0.00    +0.000 C 
ATOM     22  O   UNL     1       1.819   4.510  17.716  0.00  0.00    +0.000 OA
ATOM     23  H   UNL     1       4.469   6.273  18.047  0.00  0.00    +0.000 HD
BRANCH  21  24
ATOM     24  C   UNL     1       4.088   3.908  17.290  0.00  0.00    +0.000 C 
ATOM     25  C   UNL     1       5.062   4.608  16.351  0.00  0.00    +0.000 C 
ENDBRANCH  21  24
ENDBRANCH  10  20
TORSDOF 4
ENDMDL
MODEL 7
REMARK VINA RESULT:      -7.6      2.106      9.225
REMARK  Name = 
REMARK  6 active torsions:
REMARK  status: ('A' for Active; 'I' for Inactive)
REMARK    1  A    between atoms: C_1  and  C_2
REMARK    2  A    between atoms: C_2  and  C_3
REMARK    3  A    between atoms: N_5  and  C_6
REMARK    4  A    between atoms: C_15  and  N_16
REMARK    5  A    between atoms: C_17  and  C_19
REMARK    6  A    between atoms: C_19  and  C_20
REMARK                            x       y       z     vdW  Elec       q    Type
REMARK                         _______ _______ _______ _____ _____    ______ ____
ROOT
ATOM      1  C   UNL     1       1.704   7.113  20.581  0.00  0.00    +0.000 A 
ATOM      2  C   UNL     1       1.683   5.706  20.643  0.00  0.00    +0.000 A 
ATOM      3  C   UNL     1       2.348   4.911  19.703  0.00  0.00    +0.000 A 
ATOM      4  C   UNL     1       3.034   5.543  18.690  0.00  0.00    +0.000 A 
ATOM      5  C   UNL     1       3.021   6.954  18.598  0.00  0.00    +0.000 A 
ATOM      6  C   UNL     1       2.348   7.748  19.516  0.00  0.00    +0.000 A 
ATOM      7  C   UNL     1       3.861   7.409  17.428  0.00  0.00    +0.000 C 
ATOM      8  C   UNL     1       4.343   6.087  16.872  0.00  0.00    +0.000 A 
ATOM      9  C   UNL     1       5.171   5.907  15.783  0.00  0.00    +0.000 A 
ATOM     10  C   UNL     1       5.533   4.611  15.414  0.00  0.00    +0.000 A 
ATOM     11  C   UNL     1       5.050   3.521  16.168  0.00  0.00    +0.000 A 
ATOM     12  C   UNL     1       4.207   3.717  17.279  0.00  0.00    +0.000 A 
ATOM     13  C   UNL     1       3.852   5.008  17.622  0.00  0.00    +0.000 A 
ENDROOT
BRANCH   1  16
ATOM     14  C   UNL     1       0.136   8.875  21.349  0.00  0.00    +0.000 C 
ATOM     15  O   UNL     1      -0.376   9.128  20.264  0.00  0.00    +0.000 OA
ATOM     16  N   UNL     1       1.122   7.927  21.580  0.00  0.00    +0.000 N 
ATOM     17  H   UNL     1       1.313   7.678  22.542  0.00  0.00    +0.000 HD
BRANCH  14  19
ATOM     18  C   UNL     1      -0.429  11.093  22.338  0.00  0.00    +0.000 C 
ATOM     19  C   UNL     1      -0.297   9.600  22.608  0.00  0.00    +0.000 C 
ENDBRANCH  14  19
ENDBRANCH   1  16
BRANCH  10  20
ATOM     20  N   UNL     1       6.373   4.350  14.302  0.00  0.00    +0.000 N 
ATOM     21  C   UNL     1       5.944   3.912  13.057  0.00  0.00    +0.000 C 
ATOM     22  O   UNL     1       4.782   3.694  12.725  0.00  0.00    +0.000 OA
ATOM     23  H   UNL     1       7.366   4.490  14.438  0.00  0.00    +0.000 HD
BRANCH  21  24
ATOM     24  C   UNL     1       7.076   3.703  12.070  0.00  0.00    +0.000 C 
ATOM     25  C   UNL     1       6.921   2.360  11.367  0.00  0.00    +0.000 C 
ENDBRANCH  21  24
ENDBRANCH  10  20
TORSDOF 4
ENDMDL
MODEL 8
REMARK VINA RESULT:      -7.6      2.200      3.330
REMARK  Name = 
REMARK  6 active torsions:
REMARK  status: ('A' for Active; 'I' for Inactive)
REMARK    1  A    between atoms: C_1  and  C_2
REMARK    2  A    between atoms: C_2  and  C_3
REMARK    3  A    between atoms: N_5  and  C_6
REMARK    4  A    between atoms: C_15  and  N_16
REMARK    5  A    between atoms: C_17  and  C_19
REMARK    6  A    between atoms: C_19  and  C_20
REMARK                            x       y       z     vdW  Elec       q    Type
REMARK                         _______ _______ _______ _____ _____    ______ ____
ROOT
ATOM      1  C   UNL     1       5.747   4.243  15.326  0.00  0.00    +0.000 A 
ATOM      2  C   UNL     1       5.298   3.268  16.239  0.00  0.00    +0.000 A 
ATOM      3  C   UNL     1       4.505   3.596  17.345  0.00  0.00    +0.000 A 
ATOM      4  C   UNL     1       4.170   4.918  17.532  0.00  0.00    +0.000 A 
ATOM      5  C   UNL     1       4.656   5.906  16.645  0.00  0.00    +0.000 A 
ATOM      6  C   UNL     1       5.457   5.591  15.557  0.00  0.00    +0.000 A 
ATOM      7  C   UNL     1       4.134   7.266  17.040  0.00  0.00    +0.000 C 
ATOM      8  C   UNL     1       3.300   6.926  18.257  0.00  0.00    +0.000 A 
ATOM      9  C   UNL     1       2.572   7.810  19.027  0.00  0.00    +0.000 A 
ATOM     10  C   UNL     1       1.842   7.322  20.111  0.00  0.00    +0.000 A 
ATOM     11  C   UNL     1       1.863   5.938  20.387  0.00  0.00    +0.000 A 
ATOM     12  C   UNL     1       2.608   5.046  19.593  0.00  0.00    +0.000 A 
ATOM     13  C   UNL     1       3.332   5.550  18.529  0.00  0.00    +0.000 A 
ENDROOT
BRANCH   1  16
ATOM     14  C   UNL     1       5.880   3.628  12.927  0.00  0.00    +0.000 C 
ATOM     15  O   UNL     1       4.678   3.637  12.684  0.00  0.00    +0.000 OA
ATOM     16  N   UNL     1       6.463   3.914  14.152  0.00  0.00    +0.000 N 
ATOM     17  H   UNL     1       7.463   4.067  14.169  0.00  0.00    +0.000 HD
BRANCH  14  19
ATOM     18  C   UNL     1       6.648   1.910  11.291  0.00  0.00    +0.000 C 
ATOM     19  C   UNL     1       6.895   3.306  11.847  0.00  0.00    +0.000 C 
ENDBRANCH  14  19
ENDBRANCH   1  16
BRANCH  10  20
ATOM     20  N   UNL     1       1.079   8.172  20.951  0.00  0.00    +0.000 N 
ATOM     21  C   UNL     1       0.453   9.345  20.551  0.00  0.00    +0.000 C 
ATOM     22  O   UNL     1       0.456   9.819  19.419  0.00  0.00    +0.000 OA
ATOM     23  H   UNL     1       0.993   7.897  21.921  0.00  0.00    +0.000 HD
BRANCH  21  24
ATOM     24  C   UNL     1      -0.279  10.049  21.677  0.00  0.00    +0.000 C 
ATOM     25  C   UNL     1       0.065   9.404  23.014  0.00  0.00    +0.000 C 
ENDBRANCH  21  24
ENDBRANCH  10  20
TORSDOF 4
ENDMDL
MODEL 9
REMARK VINA RESULT:      -7.5      2.032      3.327
REMARK  Name = 
REMARK  6 active torsions:
REMARK  status: ('A' for Active; 'I' for Inactive)
REMARK    1  A    between atoms: C_1  and  C_2
REMARK    2  A    between atoms: C_2  and  C_3
REMARK    3  A    between atoms: N_5  and  C_6
REMARK    4  A    between atoms: C_15  and  N_16
REMARK    5  A    between atoms: C_17  and  C_19
REMARK    6  A    between atoms: C_19  and  C_20
REMARK                            x       y       z     vdW  Elec       q    Type
REMARK                         _______ _______ _______ _____ _____    ______ ____
ROOT
ATOM      1  C   UNL     1       2.856   7.144  18.414  0.00  0.00    +0.000 A 
ATOM      2  C   UNL     1       2.502   8.249  17.616  0.00  0.00    +0.000 A 
ATOM      3  C   UNL     1       1.694   9.286  18.099  0.00  0.00    +0.000 A 
ATOM      4  C   UNL     1       1.237   9.200  19.395  0.00  0.00    +0.000 A 
ATOM      5  C   UNL     1       1.552   8.070  20.185  0.00  0.00    +0.000 A 
ATOM      6  C   UNL     1       2.337   7.030  19.707  0.00  0.00    +0.000 A 
ATOM      7  C   UNL     1       0.964   8.218  21.568  0.00  0.00    +0.000 C 
ATOM      8  C   UNL     1       0.277   9.563  21.459  0.00  0.00    +0.000 A 
ATOM      9  C   UNL     1      -0.425  10.209  22.456  0.00  0.00    +0.000 A 
ATOM     10  C   UNL     1      -0.984  11.459  22.190  0.00  0.00    +0.000 A 
ATOM     11  C   UNL     1      -0.810  12.032  20.912  0.00  0.00    +0.000 A 
ATOM     12  C   UNL     1      -0.089  11.364  19.903  0.00  0.00    +0.000 A 
ATOM     13  C   UNL     1       0.449  10.122  20.185  0.00  0.00    +0.000 A 
ENDROOT
BRANCH   1  16
ATOM     14  C   UNL     1       3.375   4.867  17.579  0.00  0.00    +0.000 C 
ATOM     15  O   UNL     1       2.228   4.434  17.544  0.00  0.00    +0.000 OA
ATOM     16  N   UNL     1       3.750   6.142  17.972  0.00  0.00    +0.000 N 
ATOM     17  H   UNL     1       4.697   6.435  17.766  0.00  0.00    +0.000 HD
BRANCH  14  19
ATOM     18  C   UNL     1       5.470   4.788  16.229  0.00  0.00    +0.000 C 
ATOM     19  C   UNL     1       4.550   4.006  17.157  0.00  0.00    +0.000 C 
ENDBRANCH  14  19
ENDBRANCH   1  16
BRANCH  10  20
ATOM     20  N   UNL     1      -1.726  12.177  23.161  0.00  0.00    +0.000 N 
ATOM     21  C   UNL     1      -3.081  12.469  23.083  0.00  0.00    +0.000 C 
ATOM     22  O   UNL     1      -3.841  12.147  22.175  0.00  0.00    +0.000 OA
ATOM     23  H   UNL     1      -1.218  12.505  23.972  0.00  0.00    +0.000 HD
BRANCH  21  24
ATOM     24  C   UNL     1      -3.593  13.267  24.267  0.00  0.00    +0.000 C 
ATOM     25  C   UNL     1      -4.682  12.488  24.995  0.00  0.00    +0.000 C 
ENDBRANCH  21  24
ENDBRANCH  10  20
TORSDOF 4
ENDMDL
