MODEL 1
REMARK VINA RESULT:      -8.5      0.000      0.000
REMARK  Name = 
REMARK  8 active torsions:
REMARK  status: ('A' for Active; 'I' for Inactive)
REMARK    1  A    between atoms: C_1  and  C_2
REMARK    2  A    between atoms: C_6  and  C_7
REMARK    3  A    between atoms: C_10  and  C_11
REMARK    4  A    between atoms: C_12  and  C_13
REMARK    5  A    between atoms: C_15  and  C_16
REMARK    6  A    between atoms: C_20  and  N_21
REMARK    7  A    between atoms: C_26  and  C_27
REMARK    8  A    between atoms: C_30  and  C_31
REMARK                            x       y       z     vdW  Elec       q    Type
REMARK                         _______ _______ _______ _____ _____    ______ ____
ROOT
ATOM      1  C   UNL     1       2.714   7.296  19.034  0.00  0.00    +0.000 C 
ATOM      2  C   UNL     1       3.061   6.838  17.818  0.00  0.00    +0.000 C 
ENDROOT
BRANCH   2   3
ATOM      3  C   UNL     1       3.972   5.651  17.631  0.00  0.00    +0.000 C 
ATOM      4  C   UNL     1       4.869   5.835  16.380  0.00  0.00    +0.000 C 
ATOM      5  C   UNL     1       6.001   6.889  16.544  0.00  0.00    +0.000 C 
ATOM      6  C   UNL     1       6.328   7.475  17.917  0.00  0.00    +0.000 C 
ATOM      7  O   UNL     1       7.221   6.223  16.199  0.00  0.00    +0.000 OA
ATOM      8  C   UNL     1       7.020   4.876  16.315  0.00  0.00    +0.000 C 
ATOM      9  O   UNL     1       7.906   4.066  16.517  0.00  0.00    +0.000 OA
ATOM     10  C   UNL     1       5.589   4.568  15.873  0.00  0.00    +0.000 C 
ATOM     11  C   UNL     1       5.050   3.204  16.320  0.00  0.00    +0.000 C 
ATOM     12  C   UNL     1       4.184   3.211  17.558  0.00  0.00    +0.000 C 
ATOM     13  F   UNL     1       3.546   2.014  17.638  0.00  0.00    +0.000 F 
ATOM     14  F   UNL     1       4.963   3.304  18.664  0.00  0.00    +0.000 F 
ATOM     15  C   UNL     1       3.163   4.343  17.539  0.00  0.00    +0.000 C 
ATOM     16  C   UNL     1       2.129   4.160  18.659  0.00  0.00    +0.000 C 
BRANCH  10  17
ATOM     17  N   UNL     1       5.673   4.541  14.376  0.00  0.00    +0.000 NA
ATOM     18  H   UNL     1       5.946   3.591  14.093  0.00  0.00    +0.000 HD
ATOM     19  H   UNL     1       4.755   4.674  13.951  0.00  0.00    +0.000 HD
ENDBRANCH  10  17
ENDBRANCH   2   3
BRANCH   1  23
ATOM     20  C   UNL     1       0.144  10.588  19.737  0.00  0.00    +0.000 A 
ATOM     21  C   UNL     1       0.744  10.419  18.478  0.00  0.00    +0.000 A 
ATOM     22  C   UNL     1       1.602   9.348  18.233  0.00  0.00    +0.000 A 
ATOM     23  C   UNL     1       1.832   8.439  19.253  0.00  0.00    +0.000 A 
ATOM     24  N   UNL     1       1.280   8.559  20.475  0.00  0.00    +0.000 NA
ATOM     25  C   UNL     1       0.471   9.622  20.689  0.00  0.00    +0.000 A 
BRANCH  20  31
ATOM     26  C   UNL     1      -0.812  15.310  21.447  0.00  0.00    +0.000 C 
ATOM     27  C   UNL     1      -1.255  13.992  20.867  0.00  0.00    +0.000 A 
ATOM     28  C   UNL     1      -2.607  13.797  20.569  0.00  0.00    +0.000 A 
ATOM     29  C   UNL     1      -3.044  12.612  20.009  0.00  0.00    +0.000 A 
ATOM     30  C   UNL     1      -2.134  11.595  19.725  0.00  0.00    +0.000 A 
ATOM     31  C   UNL     1      -0.750  11.736  20.023  0.00  0.00    +0.000 A 
ATOM     32  C   UNL     1      -0.329  12.954  20.609  0.00  0.00    +0.000 A 
BRANCH  32  33
ATOM     33  C   UNL     1       1.051  13.176  20.969  0.00  0.00    +0.000 C 
ATOM     34  N   UNL     1       2.173  13.326  21.227  0.00  0.00    +0.000 NA
ENDBRANCH  32  33
ENDBRANCH  20  31
ENDBRANCH   1  23
TORSDOF 5
ENDMDL
MODEL 2
REMARK VINA RESULT:      -8.5      2.407      3.294
REMARK  Name = 
REMARK  8 active torsions:
REMARK  status: ('A' for Active; 'I' for Inactive)
REMARK    1  A    between atoms: C_1  and  C_2
REMARK    2  A    between atoms: C_6  and  C_7
REMARK    3  A    between atoms: C_10  and  C_11
REMARK    4  A    between atoms: C_12  and  C_13
REMARK    5  A    between atoms: C_15  and  C_16
REMARK    6  A    between atoms: C_20  and  N_21
REMARK    7  A    between atoms: C_26  and  C_27
REMARK    8  A    between atoms: C_30  and  C_31
REMARK                            x       y       z     vdW  Elec       q    Type
REMARK                         _______ _______ _______ _____ _____    ______ ____
ROOT
ATOM      1  C   UNL     1       2.446   6.947  19.720  0.00  0.00    +0.000 C 
ATOM      2  C   UNL     1       2.531   6.645  18.413  0.00  0.00    +0.000 C 
ENDROOT
BRANCH   2   3
ATOM      3  C   UNL     1       3.284   5.440  17.908  0.00  0.00    +0.000 C 
ATOM      4  C   UNL     1       3.406   4.362  19.014  0.00  0.00    +0.000 C 
ATOM      5  C   UNL     1       2.084   3.608  19.334  0.00  0.00    +0.000 C 
ATOM      6  C   UNL     1       0.859   3.765  18.434  0.00  0.00    +0.000 C 
ATOM      7  O   UNL     1       2.378   2.212  19.208  0.00  0.00    +0.000 OA
ATOM      8  C   UNL     1       3.497   2.079  18.436  0.00  0.00    +0.000 C 
ATOM      9  O   UNL     1       3.770   1.083  17.790  0.00  0.00    +0.000 OA
ATOM     10  C   UNL     1       4.437   3.242  18.754  0.00  0.00    +0.000 C 
ATOM     11  C   UNL     1       5.532   3.498  17.712  0.00  0.00    +0.000 C 
ATOM     12  C   UNL     1       5.248   4.594  16.711  0.00  0.00    +0.000 C 
ATOM     13  F   UNL     1       6.409   4.902  16.076  0.00  0.00    +0.000 F 
ATOM     14  F   UNL     1       4.398   4.138  15.758  0.00  0.00    +0.000 F 
ATOM     15  C   UNL     1       4.673   5.841  17.374  0.00  0.00    +0.000 C 
ATOM     16  C   UNL     1       4.655   7.019  16.389  0.00  0.00    +0.000 C 
BRANCH  10  17
ATOM     17  N   UNL     1       5.121   2.817  20.019  0.00  0.00    +0.000 NA
ATOM     18  H   UNL     1       4.729   1.908  20.299  0.00  0.00    +0.000 HD
ATOM     19  H   UNL     1       6.110   2.622  19.859  0.00  0.00    +0.000 HD
ENDBRANCH  10  17
ENDBRANCH   2   3
BRANCH   1  23
ATOM     20  C   UNL     1       0.362  10.272  21.311  0.00  0.00    +0.000 A 
ATOM     21  C   UNL     1       0.483  10.117  19.920  0.00  0.00    +0.000 A 
ATOM     22  C   UNL     1       1.176   9.034  19.380  0.00  0.00    +0.000 A 
ATOM     23  C   UNL     1       1.724   8.102  20.245  0.00  0.00    +0.000 A 
ATOM     24  N   UNL     1       1.633   8.209  21.585  0.00  0.00    +0.000 NA
ATOM     25  C   UNL     1       0.975   9.282  22.079  0.00  0.00    +0.000 A 
BRANCH  20  31
ATOM     26  C   UNL     1      -0.306  15.271  22.151  0.00  0.00    +0.000 C 
ATOM     27  C   UNL     1      -0.683  13.827  22.356  0.00  0.00    +0.000 A 
ATOM     28  C   UNL     1      -1.779  13.517  23.167  0.00  0.00    +0.000 A 
ATOM     29  C   UNL     1      -2.172  12.206  23.355  0.00  0.00    +0.000 A 
ATOM     30  C   UNL     1      -1.480  11.173  22.725  0.00  0.00    +0.000 A 
ATOM     31  C   UNL     1      -0.349  11.432  21.903  0.00  0.00    +0.000 A 
ATOM     32  C   UNL     1       0.042  12.782  21.737  0.00  0.00    +0.000 A 
BRANCH  32  33
ATOM     33  C   UNL     1       1.192  13.138  20.942  0.00  0.00    +0.000 C 
ATOM     34  N   UNL     1       2.134  13.383  20.309  0.00  0.00    +0.000 NA
ENDBRANCH  32  33
ENDBRANCH  20  31
ENDBRANCH   1  23
TORSDOF 5
ENDMDL
MODEL 3
REMARK VINA RESULT:      -8.2      2.118      3.074
REMARK  Name = 
REMARK  8 active torsions:
REMARK  status: ('A' for Active; 'I' for Inactive)
REMARK    1  A    between atoms: C_1  and  C_2
REMARK    2  A    between atoms: C_6  and  C_7
REMARK    3  A    between atoms: C_10  and  C_11
REMARK    4  A    between atoms: C_12  and  C_13
REMARK    5  A    between atoms: C_15  and  C_16
REMARK    6  A    between atoms: C_20  and  N_21
REMARK    7  A    between atoms: C_26  and  C_27
REMARK    8  A    between atoms: C_30  and  C_31
REMARK                            x       y       z     vdW  Elec       q    Type
REMARK                         _______ _______ _______ _____ _____    ______ ____
ROOT
ATOM      1  C   UNL     1       2.544   7.339  19.025  0.00  0.00    +0.000 C 
ATOM      2  C   UNL     1       2.458   6.607  17.901  0.00  0.00    +0.000 C 
ENDROOT
BRANCH   2   3
ATOM      3  C   UNL     1       3.307   5.382  17.666  0.00  0.00    +0.000 C 
ATOM      4  C   UNL     1       3.287   4.451  18.905  0.00  0.00    +0.000 C 
ATOM      5  C   UNL     1       1.950   3.687  19.120  0.00  0.00    +0.000 C 
ATOM      6  C   UNL     1       0.872   3.682  18.037  0.00  0.00    +0.000 C 
ATOM      7  O   UNL     1       2.292   2.299  19.214  0.00  0.00    +0.000 OA
ATOM      8  C   UNL     1       3.518   2.122  18.637  0.00  0.00    +0.000 C 
ATOM      9  O   UNL     1       3.909   1.067  18.169  0.00  0.00    +0.000 OA
ATOM     10  C   UNL     1       4.371   3.353  18.942  0.00  0.00    +0.000 C 
ATOM     11  C   UNL     1       5.605   3.527  18.048  0.00  0.00    +0.000 C 
ATOM     12  C   UNL     1       5.449   4.482  16.887  0.00  0.00    +0.000 C 
ATOM     13  F   UNL     1       6.685   4.759  16.395  0.00  0.00    +0.000 F 
ATOM     14  F   UNL     1       4.763   3.879  15.884  0.00  0.00    +0.000 F 
ATOM     15  C   UNL     1       4.751   5.774  17.296  0.00  0.00    +0.000 C 
ATOM     16  C   UNL     1       4.854   6.823  16.179  0.00  0.00    +0.000 C 
BRANCH  10  17
ATOM     17  N   UNL     1       4.867   3.112  20.336  0.00  0.00    +0.000 NA
ATOM     18  H   UNL     1       5.880   3.291  20.346  0.00  0.00    +0.000 HD
ATOM     19  H   UNL     1       4.488   3.798  20.989  0.00  0.00    +0.000 HD
ENDBRANCH  10  17
ENDBRANCH   2   3
BRANCH   1  23
ATOM     20  C   UNL     1       0.190  10.761  19.854  0.00  0.00    +0.000 A 
ATOM     21  C   UNL     1       0.727  10.569  18.570  0.00  0.00    +0.000 A 
ATOM     22  C   UNL     1       1.514   9.454  18.283  0.00  0.00    +0.000 A 
ATOM     23  C   UNL     1       1.736   8.526  19.287  0.00  0.00    +0.000 A 
ATOM     24  N   UNL     1       1.242   8.668  20.533  0.00  0.00    +0.000 NA
ATOM     25  C   UNL     1       0.503   9.771  20.786  0.00  0.00    +0.000 A 
BRANCH  20  31
ATOM     26  C   UNL     1      -0.426  15.529  21.590  0.00  0.00    +0.000 C 
ATOM     27  C   UNL     1      -0.967  14.235  21.042  0.00  0.00    +0.000 A 
ATOM     28  C   UNL     1      -2.342  14.109  20.821  0.00  0.00    +0.000 A 
ATOM     29  C   UNL     1      -2.870  12.947  20.293  0.00  0.00    +0.000 A 
ATOM     30  C   UNL     1      -2.030  11.884  19.964  0.00  0.00    +0.000 A 
ATOM     31  C   UNL     1      -0.626  11.954  20.183  0.00  0.00    +0.000 A 
ATOM     32  C   UNL     1      -0.111  13.150  20.738  0.00  0.00    +0.000 A 
BRANCH  32  33
ATOM     33  C   UNL     1       1.296  13.302  21.020  0.00  0.00    +0.000 C 
ATOM     34  N   UNL     1       2.434  13.434  21.204  0.00  0.00    +0.000 NA
ENDBRANCH  32  33
ENDBRANCH  20  31
ENDBRANCH   1  23
TORSDOF 5
ENDMDL
MODEL 4
REMARK VINA RESULT:      -8.2      2.549      3.561
REMARK  Name = 
REMARK  8 active torsions:
REMARK  status: ('A' for Active; 'I' for Inactive)
REMARK    1  A    between atoms: C_1  and  C_2
REMARK    2  A    between atoms: C_6  and  C_7
REMARK    3  A    between atoms: C_10  and  C_11
REMARK    4  A    between atoms: C_12  and  C_13
REMARK    5  A    between atoms: C_15  and  C_16
REMARK    6  A    between atoms: C_20  and  N_21
REMARK    7  A    between atoms: C_26  and  C_27
REMARK    8  A    between atoms: C_30  and  C_31
REMARK                            x       y       z     vdW  Elec       q    Type
REMARK                         _______ _______ _______ _____ _____    ______ ____
ROOT
ATOM      1  C   UNL     1       1.777   7.625  19.181  0.00  0.00    +0.000 C 
ATOM      2  C   UNL     1       2.500   6.633  19.731  0.00  0.00    +0.000 C 
ENDROOT
BRANCH   2   3
ATOM      3  C   UNL     1       3.091   5.513  18.912  0.00  0.00    +0.000 C 
ATOM      4  C   UNL     1       3.410   4.286  19.803  0.00  0.00    +0.000 C 
ATOM      5  C   UNL     1       2.161   3.496  20.287  0.00  0.00    +0.000 C 
ATOM      6  C   UNL     1       0.780   3.782  19.699  0.00  0.00    +0.000 C 
ATOM      7  O   UNL     1       2.377   2.132  19.906  0.00  0.00    +0.000 OA
ATOM      8  C   UNL     1       3.305   2.112  18.902  0.00  0.00    +0.000 C 
ATOM      9  O   UNL     1       3.404   1.219  18.079  0.00  0.00    +0.000 OA
ATOM     10  C   UNL     1       4.326   3.215  19.175  0.00  0.00    +0.000 C 
ATOM     11  C   UNL     1       5.185   3.618  17.970  0.00  0.00    +0.000 C 
ATOM     12  C   UNL     1       4.732   4.848  17.218  0.00  0.00    +0.000 C 
ATOM     13  F   UNL     1       5.743   5.243  16.400  0.00  0.00    +0.000 F 
ATOM     14  F   UNL     1       3.687   4.535  16.412  0.00  0.00    +0.000 F 
ATOM     15  C   UNL     1       4.349   5.986  18.157  0.00  0.00    +0.000 C 
ATOM     16  C   UNL     1       4.162   7.294  17.375  0.00  0.00    +0.000 C 
BRANCH  10  17
ATOM     17  N   UNL     1       5.248   2.611  20.192  0.00  0.00    +0.000 NA
ATOM     18  H   UNL     1       5.962   2.069  19.687  0.00  0.00    +0.000 HD
ATOM     19  H   UNL     1       5.781   3.328  20.683  0.00  0.00    +0.000 HD
ENDBRANCH  10  17
ENDBRANCH   2   3
BRANCH   1  23
ATOM     20  C   UNL     1       0.068  10.852  21.325  0.00  0.00    +0.000 A 
ATOM     21  C   UNL     1       0.646   9.775  22.017  0.00  0.00    +0.000 A 
ATOM     22  C   UNL     1       1.203   8.699  21.327  0.00  0.00    +0.000 A 
ATOM     23  C   UNL     1       1.194   8.726  19.942  0.00  0.00    +0.000 A 
ATOM     24  N   UNL     1       0.650   9.736  19.236  0.00  0.00    +0.000 NA
ATOM     25  C   UNL     1       0.098  10.754  19.934  0.00  0.00    +0.000 A 
BRANCH  20  31
ATOM     26  C   UNL     1      -0.187  15.759  22.738  0.00  0.00    +0.000 C 
ATOM     27  C   UNL     1      -0.689  14.339  22.771  0.00  0.00    +0.000 A 
ATOM     28  C   UNL     1      -1.821  14.033  23.533  0.00  0.00    +0.000 A 
ATOM     29  C   UNL     1      -2.327  12.748  23.563  0.00  0.00    +0.000 A 
ATOM     30  C   UNL     1      -1.716  11.738  22.823  0.00  0.00    +0.000 A 
ATOM     31  C   UNL     1      -0.552  11.992  22.044  0.00  0.00    +0.000 A 
ATOM     32  C   UNL     1      -0.045  13.314  22.039  0.00  0.00    +0.000 A 
BRANCH  32  33
ATOM     33  C   UNL     1       1.145  13.659  21.299  0.00  0.00    +0.000 C 
ATOM     34  N   UNL     1       2.091  13.905  20.674  0.00  0.00    +0.000 NA
ENDBRANCH  32  33
ENDBRANCH  20  31
ENDBRANCH   1  23
TORSDOF 5
ENDMDL
MODEL 5
REMARK VINA RESULT:      -8.2      1.078      2.038
REMARK  Name = 
REMARK  8 active torsions:
REMARK  status: ('A' for Active; 'I' for Inactive)
REMARK    1  A    between atoms: C_1  and  C_2
REMARK    2  A    between atoms: C_6  and  C_7
REMARK    3  A    between atoms: C_10  and  C_11
REMARK    4  A    between atoms: C_12  and  C_13
REMARK    5  A    between atoms: C_15  and  C_16
REMARK    6  A    between atoms: C_20  and  N_21
REMARK    7  A    between atoms: C_26  and  C_27
REMARK    8  A    between atoms: C_30  and  C_31
REMARK                            x       y       z     vdW  Elec       q    Type
REMARK                         _______ _______ _______ _____ _____    ______ ____
ROOT
ATOM      1  C   UNL     1       2.776   7.227  18.990  0.00  0.00    +0.000 C 
ATOM      2  C   UNL     1       2.861   6.517  17.852  0.00  0.00    +0.000 C 
ENDROOT
BRANCH   2   3
ATOM      3  C   UNL     1       3.870   5.412  17.661  0.00  0.00    +0.000 C 
ATOM      4  C   UNL     1       4.735   5.666  16.400  0.00  0.00    +0.000 C 
ATOM      5  C   UNL     1       5.773   6.814  16.546  0.00  0.00    +0.000 C 
ATOM      6  C   UNL     1       6.062   7.436  17.912  0.00  0.00    +0.000 C 
ATOM      7  O   UNL     1       7.043   6.254  16.192  0.00  0.00    +0.000 OA
ATOM      8  C   UNL     1       6.960   4.896  16.317  0.00  0.00    +0.000 C 
ATOM      9  O   UNL     1       7.915   4.166  16.513  0.00  0.00    +0.000 OA
ATOM     10  C   UNL     1       5.557   4.462  15.892  0.00  0.00    +0.000 C 
ATOM     11  C   UNL     1       5.143   3.060  16.352  0.00  0.00    +0.000 C 
ATOM     12  C   UNL     1       4.291   2.999  17.600  0.00  0.00    +0.000 C 
ATOM     13  F   UNL     1       3.760   1.752  17.693  0.00  0.00    +0.000 F 
ATOM     14  F   UNL     1       5.071   3.167  18.697  0.00  0.00    +0.000 F 
ATOM     15  C   UNL     1       3.176   4.039  17.585  0.00  0.00    +0.000 C 
ATOM     16  C   UNL     1       2.173   3.774  18.718  0.00  0.00    +0.000 C 
BRANCH  10  17
ATOM     17  N   UNL     1       5.627   4.433  14.394  0.00  0.00    +0.000 NA
ATOM     18  H   UNL     1       6.074   3.549  14.117  0.00  0.00    +0.000 HD
ATOM     19  H   UNL     1       4.696   4.382  13.980  0.00  0.00    +0.000 HD
ENDBRANCH  10  17
ENDBRANCH   2   3
BRANCH   1  23
ATOM     20  C   UNL     1      -0.035  10.314  19.699  0.00  0.00    +0.000 A 
ATOM     21  C   UNL     1       0.597  10.211  18.448  0.00  0.00    +0.000 A 
ATOM     22  C   UNL     1       1.534   9.208  18.202  0.00  0.00    +0.000 A 
ATOM     23  C   UNL     1       1.811   8.300  19.211  0.00  0.00    +0.000 A 
ATOM     24  N   UNL     1       1.229   8.359  20.425  0.00  0.00    +0.000 NA
ATOM     25  C   UNL     1       0.343   9.357  20.641  0.00  0.00    +0.000 A 
BRANCH  20  31
ATOM     26  C   UNL     1      -4.544  12.653  19.120  0.00  0.00    +0.000 C 
ATOM     27  C   UNL     1      -3.161  12.562  19.709  0.00  0.00    +0.000 A 
ATOM     28  C   UNL     1      -2.729  13.554  20.594  0.00  0.00    +0.000 A 
ATOM     29  C   UNL     1      -1.478  13.488  21.177  0.00  0.00    +0.000 A 
ATOM     30  C   UNL     1      -0.631  12.418  20.892  0.00  0.00    +0.000 A 
ATOM     31  C   UNL     1      -1.015  11.390  19.986  0.00  0.00    +0.000 A 
ATOM     32  C   UNL     1      -2.296  11.488  19.393  0.00  0.00    +0.000 A 
BRANCH  32  33
ATOM     33  C   UNL     1      -2.760  10.506  18.442  0.00  0.00    +0.000 C 
ATOM     34  N   UNL     1      -3.096   9.693  17.686  0.00  0.00    +0.000 NA
ENDBRANCH  32  33
ENDBRANCH  20  31
ENDBRANCH   1  23
TORSDOF 5
ENDMDL
MODEL 6
REMARK VINA RESULT:      -8.2      2.514      3.586
REMARK  Name = 
REMARK  8 active torsions:
REMARK  status: ('A' for Active; 'I' for Inactive)
REMARK    1  A    between atoms: C_1  and  C_2
REMARK    2  A    between atoms: C_6  and  C_7
REMARK    3  A    between atoms: C_10  and  C_11
REMARK    4  A    between atoms: C_12  and  C_13
REMARK    5  A    between atoms: C_15  and  C_16
REMARK    6  A    between atoms: C_20  and  N_21
REMARK    7  A    between atoms: C_26  and  C_27
REMARK    8  A    between atoms: C_30  and  C_31
REMARK                            x       y       z     vdW  Elec       q    Type
REMARK                         _______ _______ _______ _____ _____    ______ ____
ROOT
ATOM      1  C   UNL     1       2.365   7.152  19.547  0.00  0.00    +0.000 C 
ATOM      2  C   UNL     1       2.265   6.555  18.346  0.00  0.00    +0.000 C 
ENDROOT
BRANCH   2   3
ATOM      3  C   UNL     1       3.154   5.408  17.937  0.00  0.00    +0.000 C 
ATOM      4  C   UNL     1       3.241   4.347  19.063  0.00  0.00    +0.000 C 
ATOM      5  C   UNL     1       1.953   3.498  19.256  0.00  0.00    +0.000 C 
ATOM      6  C   UNL     1       0.820   3.557  18.232  0.00  0.00    +0.000 C 
ATOM      7  O   UNL     1       2.361   2.127  19.178  0.00  0.00    +0.000 OA
ATOM      8  C   UNL     1       3.562   2.075  18.528  0.00  0.00    +0.000 C 
ATOM      9  O   UNL     1       3.973   1.099  17.926  0.00  0.00    +0.000 OA
ATOM     10  C   UNL     1       4.374   3.308  18.926  0.00  0.00    +0.000 C 
ATOM     11  C   UNL     1       5.549   3.639  17.999  0.00  0.00    +0.000 C 
ATOM     12  C   UNL     1       5.289   4.706  16.960  0.00  0.00    +0.000 C 
ATOM     13  F   UNL     1       6.484   5.097  16.444  0.00  0.00    +0.000 F 
ATOM     14  F   UNL     1       4.579   4.182  15.930  0.00  0.00    +0.000 F 
ATOM     15  C   UNL     1       4.557   5.910  17.544  0.00  0.00    +0.000 C 
ATOM     16  C   UNL     1       4.554   7.078  16.547  0.00  0.00    +0.000 C 
BRANCH  10  17
ATOM     17  N   UNL     1       4.953   2.941  20.260  0.00  0.00    +0.000 NA
ATOM     18  H   UNL     1       5.055   3.806  20.807  0.00  0.00    +0.000 HD
ATOM     19  H   UNL     1       4.301   2.378  20.805  0.00  0.00    +0.000 HD
ENDBRANCH  10  17
ENDBRANCH   2   3
BRANCH   1  23
ATOM     20  C   UNL     1      -0.108  10.331  20.855  0.00  0.00    +0.000 A 
ATOM     21  C   UNL     1       0.629  10.456  19.665  0.00  0.00    +0.000 A 
ATOM     22  C   UNL     1       1.457   9.424  19.226  0.00  0.00    +0.000 A 
ATOM     23  C   UNL     1       1.520   8.262  19.978  0.00  0.00    +0.000 A 
ATOM     24  N   UNL     1       0.832   8.097  21.124  0.00  0.00    +0.000 NA
ATOM     25  C   UNL     1       0.056   9.125  21.536  0.00  0.00    +0.000 A 
BRANCH  20  31
ATOM     26  C   UNL     1      -3.899  13.726  20.367  0.00  0.00    +0.000 C 
ATOM     27  C   UNL     1      -2.770  13.098  21.140  0.00  0.00    +0.000 A 
ATOM     28  C   UNL     1      -2.480  13.566  22.426  0.00  0.00    +0.000 A 
ATOM     29  C   UNL     1      -1.470  12.995  23.176  0.00  0.00    +0.000 A 
ATOM     30  C   UNL     1      -0.730  11.933  22.658  0.00  0.00    +0.000 A 
ATOM     31  C   UNL     1      -0.973  11.429  21.350  0.00  0.00    +0.000 A 
ATOM     32  C   UNL     1      -2.005  12.040  20.597  0.00  0.00    +0.000 A 
BRANCH  32  33
ATOM     33  C   UNL     1      -2.304  11.613  19.251  0.00  0.00    +0.000 C 
ATOM     34  N   UNL     1      -2.530  11.229  18.179  0.00  0.00    +0.000 NA
ENDBRANCH  32  33
ENDBRANCH  20  31
ENDBRANCH   1  23
TORSDOF 5
ENDMDL
MODEL 7
REMARK VINA RESULT:      -8.2      5.089     10.333
REMARK  Name = 
REMARK  8 active torsions:
REMARK  status: ('A' for Active; 'I' for Inactive)
REMARK    1  A    between atoms: C_1  and  C_2
REMARK    2  A    between atoms: C_6  and  C_7
REMARK    3  A    between atoms: C_10  and  C_11
REMARK    4  A    between atoms: C_12  and  C_13
REMARK    5  A    between atoms: C_15  and  C_16
REMARK    6  A    between atoms: C_20  and  N_21
REMARK    7  A    between atoms: C_26  and  C_27
REMARK    8  A    between atoms: C_30  and  C_31
REMARK                            x       y       z     vdW  Elec       q    Type
REMARK                         _______ _______ _______ _____ _____    ______ ____
ROOT
ATOM      1  C   UNL     1       0.292  10.468  19.932  0.00  0.00    +0.000 C 
ATOM      2  C   UNL     1       0.754  11.351  20.833  0.00  0.00    +0.000 C 
ENDROOT
BRANCH   2   3
ATOM      3  C   UNL     1      -0.090  12.483  21.363  0.00  0.00    +0.000 C 
ATOM      4  C   UNL     1       0.714  13.807  21.387  0.00  0.00    +0.000 C 
ATOM      5  C   UNL     1       0.972  14.435  19.988  0.00  0.00    +0.000 C 
ATOM      6  C   UNL     1       0.254  13.900  18.749  0.00  0.00    +0.000 C 
ATOM      7  O   UNL     1       0.493  15.783  20.059  0.00  0.00    +0.000 OA
ATOM      8  C   UNL     1      -0.391  15.867  21.097  0.00  0.00    +0.000 C 
ATOM      9  O   UNL     1      -1.277  16.700  21.177  0.00  0.00    +0.000 OA
ATOM     10  C   UNL     1       0.102  14.954  22.219  0.00  0.00    +0.000 C 
ATOM     11  C   UNL     1      -0.950  14.597  23.276  0.00  0.00    +0.000 C 
ATOM     12  C   UNL     1      -1.633  13.259  23.101  0.00  0.00    +0.000 C 
ATOM     13  F   UNL     1      -2.285  12.961  24.256  0.00  0.00    +0.000 F 
ATOM     14  F   UNL     1      -2.582  13.349  22.137  0.00  0.00    +0.000 F 
ATOM     15  C   UNL     1      -0.644  12.150  22.763  0.00  0.00    +0.000 C 
ATOM     16  C   UNL     1      -1.317  10.773  22.864  0.00  0.00    +0.000 C 
BRANCH  10  17
ATOM     17  N   UNL     1       1.159  15.765  22.906  0.00  0.00    +0.000 NA
ATOM     18  H   UNL     1       0.731  16.650  23.209  0.00  0.00    +0.000 HD
ATOM     19  H   UNL     1       1.460  15.324  23.774  0.00  0.00    +0.000 HD
ENDBRANCH  10  17
ENDBRANCH   2   3
BRANCH   1  23
ATOM     20  C   UNL     1       2.580   7.224  18.455  0.00  0.00    +0.000 A 
ATOM     21  C   UNL     1       2.143   8.233  17.581  0.00  0.00    +0.000 A 
ATOM     22  C   UNL     1       1.379   9.302  18.048  0.00  0.00    +0.000 A 
ATOM     23  C   UNL     1       1.079   9.359  19.400  0.00  0.00    +0.000 A 
ATOM     24  N   UNL     1       1.476   8.415  20.275  0.00  0.00    +0.000 NA
ATOM     25  C   UNL     1       2.196   7.379  19.787  0.00  0.00    +0.000 A 
BRANCH  20  31
ATOM     26  C   UNL     1       3.535   2.223  17.995  0.00  0.00    +0.000 C 
ATOM     27  C   UNL     1       3.881   3.669  17.755  0.00  0.00    +0.000 A 
ATOM     28  C   UNL     1       5.035   3.983  17.030  0.00  0.00    +0.000 A 
ATOM     29  C   UNL     1       5.368   5.298  16.766  0.00  0.00    +0.000 A 
ATOM     30  C   UNL     1       4.547   6.330  17.215  0.00  0.00    +0.000 A 
ATOM     31  C   UNL     1       3.371   6.067  17.971  0.00  0.00    +0.000 A 
ATOM     32  C   UNL     1       3.058   4.712  18.240  0.00  0.00    +0.000 A 
BRANCH  32  33
ATOM     33  C   UNL     1       1.900   4.351  19.020  0.00  0.00    +0.000 C 
ATOM     34  N   UNL     1       0.995   4.039  19.677  0.00  0.00    +0.000 NA
ENDBRANCH  32  33
ENDBRANCH  20  31
ENDBRANCH   1  23
TORSDOF 5
ENDMDL
MODEL 8
REMARK VINA RESULT:      -8.1      4.815     10.073
REMARK  Name = 
REMARK  8 active torsions:
REMARK  status: ('A' for Active; 'I' for Inactive)
REMARK    1  A    between atoms: C_1  and  C_2
REMARK    2  A    between atoms: C_6  and  C_7
REMARK    3  A    between atoms: C_10  and  C_11
REMARK    4  A    between atoms: C_12  and  C_13
REMARK    5  A    between atoms: C_15  and  C_16
REMARK    6  A    between atoms: C_20  and  N_21
REMARK    7  A    between atoms: C_26  and  C_27
REMARK    8  A    between atoms: C_30  and  C_31
REMARK                            x       y       z     vdW  Elec       q    Type
REMARK                         _______ _______ _______ _____ _____    ______ ____
ROOT
ATOM      1  C   UNL     1       1.078  10.442  19.823  0.00  0.00    +0.000 C 
ATOM      2  C   UNL     1      -0.147  10.634  20.343  0.00  0.00    +0.000 C 
ENDROOT
BRANCH   2   3
ATOM      3  C   UNL     1      -0.610  11.977  20.850  0.00  0.00    +0.000 C 
ATOM      4  C   UNL     1       0.241  13.120  20.242  0.00  0.00    +0.000 C 
ATOM      5  C   UNL     1      -0.036  13.406  18.738  0.00  0.00    +0.000 C 
ATOM      6  C   UNL     1      -1.233  12.772  18.032  0.00  0.00    +0.000 C 
ATOM      7  O   UNL     1      -0.333  14.804  18.645  0.00  0.00    +0.000 OA
ATOM      8  C   UNL     1      -0.714  15.243  19.881  0.00  0.00    +0.000 C 
ATOM      9  O   UNL     1      -1.420  16.216  20.075  0.00  0.00    +0.000 OA
ATOM     10  C   UNL     1       0.113  14.496  20.928  0.00  0.00    +0.000 C 
ATOM     11  C   UNL     1      -0.450  14.542  22.354  0.00  0.00    +0.000 C 
ATOM     12  C   UNL     1      -1.252  13.335  22.785  0.00  0.00    +0.000 C 
ATOM     13  F   UNL     1      -1.406  13.387  24.134  0.00  0.00    +0.000 F 
ATOM     14  F   UNL     1      -2.498  13.398  22.254  0.00  0.00    +0.000 F 
ATOM     15  C   UNL     1      -0.578  12.026  22.390  0.00  0.00    +0.000 C 
ATOM     16  C   UNL     1      -1.263  10.835  23.074  0.00  0.00    +0.000 C 
BRANCH  10  17
ATOM     17  N   UNL     1       1.420  15.230  20.945  0.00  0.00    +0.000 NA
ATOM     18  H   UNL     1       1.238  16.205  20.675  0.00  0.00    +0.000 HD
ATOM     19  H   UNL     1       1.794  15.300  21.892  0.00  0.00    +0.000 HD
ENDBRANCH  10  17
ENDBRANCH   2   3
BRANCH   1  23
ATOM     20  C   UNL     1       2.473   6.694  18.431  0.00  0.00    +0.000 A 
ATOM     21  C   UNL     1       2.224   7.735  17.521  0.00  0.00    +0.000 A 
ATOM     22  C   UNL     1       1.753   8.971  17.961  0.00  0.00    +0.000 A 
ATOM     23  C   UNL     1       1.558   9.158  19.320  0.00  0.00    +0.000 A 
ATOM     24  N   UNL     1       1.783   8.191  20.229  0.00  0.00    +0.000 NA
ATOM     25  C   UNL     1       2.217   6.995  19.769  0.00  0.00    +0.000 A 
BRANCH  20  31
ATOM     26  C   UNL     1       5.803   3.590  16.104  0.00  0.00    +0.000 C 
ATOM     27  C   UNL     1       4.513   3.843  16.838  0.00  0.00    +0.000 A 
ATOM     28  C   UNL     1       3.669   2.766  17.127  0.00  0.00    +0.000 A 
ATOM     29  C   UNL     1       2.492   2.956  17.824  0.00  0.00    +0.000 A 
ATOM     30  C   UNL     1       2.135   4.232  18.259  0.00  0.00    +0.000 A 
ATOM     31  C   UNL     1       2.950   5.364  17.978  0.00  0.00    +0.000 A 
ATOM     32  C   UNL     1       4.144   5.145  17.250  0.00  0.00    +0.000 A 
BRANCH  32  33
ATOM     33  C   UNL     1       5.019   6.238  16.898  0.00  0.00    +0.000 C 
ATOM     34  N   UNL     1       5.738   7.115  16.655  0.00  0.00    +0.000 NA
ENDBRANCH  32  33
ENDBRANCH  20  31
ENDBRANCH   1  23
TORSDOF 5
ENDMDL
MODEL 9
REMARK VINA RESULT:      -8.0      5.407     10.561
REMARK  Name = 
REMARK  8 active torsions:
REMARK  status: ('A' for Active; 'I' for Inactive)
REMARK    1  A    between atoms: C_1  and  C_2
REMARK    2  A    between atoms: C_6  and  C_7
REMARK    3  A    between atoms: C_10  and  C_11
REMARK    4  A    between atoms: C_12  and  C_13
REMARK    5  A    between atoms: C_15  and  C_16
REMARK    6  A    between atoms: C_20  and  N_21
REMARK    7  A    between atoms: C_26  and  C_27
REMARK    8  A    between atoms: C_30  and  C_31
REMARK                            x       y       z     vdW  Elec       q    Type
REMARK                         _______ _______ _______ _____ _____    ______ ____
ROOT
ATOM      1  C   UNL     1      -0.420  10.417  20.311  0.00  0.00    +0.000 C 
ATOM      2  C   UNL     1      -1.104  11.374  19.661  0.00  0.00    +0.000 C 
ENDROOT
BRANCH   2   3
ATOM      3  C   UNL     1      -2.077  12.290  20.359  0.00  0.00    +0.000 C 
ATOM      4  C   UNL     1      -1.957  12.153  21.898  0.00  0.00    +0.000 C 
ATOM      5  C   UNL     1      -0.671  12.782  22.506  0.00  0.00    +0.000 C 
ATOM      6  C   UNL     1       0.235  13.675  21.660  0.00  0.00    +0.000 C 
ATOM      7  O   UNL     1      -1.111  13.680  23.532  0.00  0.00    +0.000 OA
ATOM      8  C   UNL     1      -2.418  13.997  23.290  0.00  0.00    +0.000 C 
ATOM      9  O   UNL     1      -2.959  15.017  23.679  0.00  0.00    +0.000 OA
ATOM     10  C   UNL     1      -3.112  12.759  22.723  0.00  0.00    +0.000 C 
ATOM     11  C   UNL     1      -4.443  13.029  22.010  0.00  0.00    +0.000 C 
ATOM     12  C   UNL     1      -4.377  13.124  20.503  0.00  0.00    +0.000 C 
ATOM     13  F   UNL     1      -5.643  13.051  20.016  0.00  0.00    +0.000 F 
ATOM     14  F   UNL     1      -3.896  14.340  20.141  0.00  0.00    +0.000 F 
ATOM     15  C   UNL     1      -3.522  12.019  19.894  0.00  0.00    +0.000 C 
ATOM     16  C   UNL     1      -3.696  11.975  18.370  0.00  0.00    +0.000 C 
BRANCH  10  17
ATOM     17  N   UNL     1      -3.420  11.932  23.935  0.00  0.00    +0.000 NA
ATOM     18  H   UNL     1      -2.837  11.085  23.895  0.00  0.00    +0.000 HD
ATOM     19  H   UNL     1      -3.120  12.400  24.790  0.00  0.00    +0.000 HD
ENDBRANCH  10  17
ENDBRANCH   2   3
BRANCH   1  23
ATOM     20  C   UNL     1       2.354   7.772  18.511  0.00  0.00    +0.000 A 
ATOM     21  C   UNL     1       1.711   8.751  17.736  0.00  0.00    +0.000 A 
ATOM     22  C   UNL     1       0.786   9.623  18.310  0.00  0.00    +0.000 A 
ATOM     23  C   UNL     1       0.532   9.516  19.668  0.00  0.00    +0.000 A 
ATOM     24  N   UNL     1       1.125   8.593  20.450  0.00  0.00    +0.000 NA
ATOM     25  C   UNL     1       1.999   7.748  19.860  0.00  0.00    +0.000 A 
BRANCH  20  31
ATOM     26  C   UNL     1       4.110   3.076  17.512  0.00  0.00    +0.000 C 
ATOM     27  C   UNL     1       4.214   4.576  17.438  0.00  0.00    +0.000 A 
ATOM     28  C   UNL     1       5.296   5.153  16.766  0.00  0.00    +0.000 A 
ATOM     29  C   UNL     1       5.409   6.525  16.653  0.00  0.00    +0.000 A 
ATOM     30  C   UNL     1       4.433   7.354  17.203  0.00  0.00    +0.000 A 
ATOM     31  C   UNL     1       3.321   6.820  17.911  0.00  0.00    +0.000 A 
ATOM     32  C   UNL     1       3.235   5.411  18.025  0.00  0.00    +0.000 A 
BRANCH  32  33
ATOM     33  C   UNL     1       2.156   4.781  18.747  0.00  0.00    +0.000 C 
ATOM     34  N   UNL     1       1.260   4.287  19.295  0.00  0.00    +0.000 NA
ENDBRANCH  32  33
ENDBRANCH  20  31
ENDBRANCH   1  23
TORSDOF 5
ENDMDL
