MODEL 1
REMARK VINA RESULT:      -7.2      0.000      0.000
REMARK  Name = 
REMARK  12 active torsions:
REMARK  status: ('A' for Active; 'I' for Inactive)
REMARK    1  A    between atoms: C_1  and  O_2
REMARK    2  A    between atoms: O_2  and  C_3
REMARK    3  A    between atoms: C_6  and  N_7
REMARK    4  A    between atoms: N_7  and  C_8
REMARK    5  A    between atoms: N_7  and  S_19
REMARK    6  A    between atoms: C_8  and  C_9
REMARK    7  A    between atoms: N_11  and  C_12
REMARK    8  A    between atoms: S_19  and  C_22
REMARK    9  A    between atoms: C_25  and  O_26
REMARK   10  A    between atoms: O_26  and  C_27
REMARK   11  A    between atoms: C_28  and  O_29
REMARK   12  A    between atoms: O_29  and  C_30
REMARK                            x       y       z     vdW  Elec       q    Type
REMARK                         _______ _______ _______ _____ _____    ______ ____
ROOT
ATOM      1  N   UNL     1       0.599  10.793  20.311  0.00  0.00    +0.000 N 
ENDROOT
BRANCH   1   5
ATOM      2  C   UNL     1      -2.907  11.168  17.902  0.00  0.00    +0.000 A 
ATOM      3  C   UNL     1      -1.838  10.384  17.459  0.00  0.00    +0.000 A 
ATOM      4  C   UNL     1      -0.686  10.228  18.243  0.00  0.00    +0.000 A 
ATOM      5  C   UNL     1      -0.591  10.867  19.482  0.00  0.00    +0.000 A 
ATOM      6  C   UNL     1      -1.650  11.675  19.911  0.00  0.00    +0.000 A 
ATOM      7  C   UNL     1      -2.808  11.819  19.129  0.00  0.00    +0.000 A 
BRANCH   2   9
ATOM      8  C   UNL     1      -3.730  10.787  15.704  0.00  0.00    +0.000 C 
ATOM      9  O   UNL     1      -3.952  11.265  17.025  0.00  0.00    +0.000 OA
ENDBRANCH   2   9
ENDBRANCH   1   5
BRANCH   1  10
ATOM     10  S   UNL     1       0.721   9.284  21.176  0.00  0.00    +0.000 S 
ATOM     11  O   UNL     1       1.559   9.485  22.346  0.00  0.00    +0.000 OA
ATOM     12  O   UNL     1      -0.611   8.705  21.291  0.00  0.00    +0.000 OA
BRANCH  10  13
ATOM     13  C   UNL     1       1.584   8.231  20.029  0.00  0.00    +0.000 A 
ATOM     14  C   UNL     1       2.193   8.739  18.889  0.00  0.00    +0.000 A 
ATOM     15  C   UNL     1       2.898   7.863  18.054  0.00  0.00    +0.000 A 
ATOM     16  C   UNL     1       3.005   6.493  18.349  0.00  0.00    +0.000 A 
ATOM     17  C   UNL     1       2.400   5.991  19.517  0.00  0.00    +0.000 A 
ATOM     18  C   UNL     1       1.703   6.873  20.349  0.00  0.00    +0.000 A 
BRANCH  16  19
ATOM     19  O   UNL     1       3.738   5.812  17.408  0.00  0.00    +0.000 OA
ATOM     20  C   UNL     1       4.758   6.500  16.697  0.00  0.00    +0.000 C 
ENDBRANCH  16  19
BRANCH  17  21
ATOM     21  O   UNL     1       2.526   4.657  19.802  0.00  0.00    +0.000 OA
ATOM     22  C   UNL     1       2.318   4.231  21.140  0.00  0.00    +0.000 C 
ENDBRANCH  17  21
ENDBRANCH  10  13
ENDBRANCH   1  10
BRANCH   1  23
ATOM     23  C   UNL     1       0.837  11.996  21.169  0.00  0.00    +0.000 C 
BRANCH  23  24
ATOM     24  C   UNL     1       1.742  13.059  20.587  0.00  0.00    +0.000 C 
ATOM     25  O   UNL     1       2.796  13.322  21.166  0.00  0.00    +0.000 OA
ATOM     26  N   UNL     1       1.251  13.739  19.483  0.00  0.00    +0.000 N 
ATOM     27  H   UNL     1       0.303  13.536  19.191  0.00  0.00    +0.000 HD
BRANCH  26  28
ATOM     28  C   UNL     1       1.934  14.760  18.765  0.00  0.00    +0.000 A 
ATOM     29  C   UNL     1       3.107  14.532  18.040  0.00  0.00    +0.000 A 
ATOM     30  C   UNL     1       3.713  15.561  17.306  0.00  0.00    +0.000 A 
ATOM     31  C   UNL     1       3.157  16.835  17.292  0.00  0.00    +0.000 A 
ATOM     32  C   UNL     1       1.998  17.086  18.026  0.00  0.00    +0.000 A 
ATOM     33  C   UNL     1       1.398  16.053  18.749  0.00  0.00    +0.000 A 
ATOM     34  F   UNL     1       0.283  16.320  19.447  0.00  0.00    +0.000 F 
ENDBRANCH  26  28
ENDBRANCH  23  24
ENDBRANCH   1  23
TORSDOF 9
ENDMDL
MODEL 2
REMARK VINA RESULT:      -7.2      1.299      1.672
REMARK  Name = 
REMARK  12 active torsions:
REMARK  status: ('A' for Active; 'I' for Inactive)
REMARK    1  A    between atoms: C_1  and  O_2
REMARK    2  A    between atoms: O_2  and  C_3
REMARK    3  A    between atoms: C_6  and  N_7
REMARK    4  A    between atoms: N_7  and  C_8
REMARK    5  A    between atoms: N_7  and  S_19
REMARK    6  A    between atoms: C_8  and  C_9
REMARK    7  A    between atoms: N_11  and  C_12
REMARK    8  A    between atoms: S_19  and  C_22
REMARK    9  A    between atoms: C_25  and  O_26
REMARK   10  A    between atoms: O_26  and  C_27
REMARK   11  A    between atoms: C_28  and  O_29
REMARK   12  A    between atoms: O_29  and  C_30
REMARK                            x       y       z     vdW  Elec       q    Type
REMARK                         _______ _______ _______ _____ _____    ______ ____
ROOT
ATOM      1  N   UNL     1       0.695  10.673  19.808  0.00  0.00    +0.000 N 
ENDROOT
BRANCH   1   5
ATOM      2  C   UNL     1      -3.098  11.149  17.904  0.00  0.00    +0.000 A 
ATOM      3  C   UNL     1      -2.144  10.291  17.351  0.00  0.00    +0.000 A 
ATOM      4  C   UNL     1      -0.900  10.101  17.970  0.00  0.00    +0.000 A 
ATOM      5  C   UNL     1      -0.597  10.781  19.152  0.00  0.00    +0.000 A 
ATOM      6  C   UNL     1      -1.542  11.662  19.690  0.00  0.00    +0.000 A 
ATOM      7  C   UNL     1      -2.792  11.840  19.074  0.00  0.00    +0.000 A 
BRANCH   2   9
ATOM      8  C   UNL     1      -5.472  11.291  17.912  0.00  0.00    +0.000 C 
ATOM      9  O   UNL     1      -4.253  11.269  17.180  0.00  0.00    +0.000 OA
ENDBRANCH   2   9
ENDBRANCH   1   5
BRANCH   1  10
ATOM     10  S   UNL     1       0.738   9.401  21.000  0.00  0.00    +0.000 S 
ATOM     11  O   UNL     1       1.594   9.822  22.097  0.00  0.00    +0.000 OA
ATOM     12  O   UNL     1      -0.623   8.941  21.238  0.00  0.00    +0.000 OA
BRANCH  10  13
ATOM     13  C   UNL     1       1.534   8.065  20.134  0.00  0.00    +0.000 A 
ATOM     14  C   UNL     1       2.098   8.243  18.877  0.00  0.00    +0.000 A 
ATOM     15  C   UNL     1       2.751   7.162  18.272  0.00  0.00    +0.000 A 
ATOM     16  C   UNL     1       2.852   5.914  18.910  0.00  0.00    +0.000 A 
ATOM     17  C   UNL     1       2.294   5.749  20.192  0.00  0.00    +0.000 A 
ATOM     18  C   UNL     1       1.648   6.834  20.792  0.00  0.00    +0.000 A 
BRANCH  16  19
ATOM     19  O   UNL     1       3.532   4.993  18.152  0.00  0.00    +0.000 OA
ATOM     20  C   UNL     1       2.797   4.013  17.432  0.00  0.00    +0.000 C 
ENDBRANCH  16  19
BRANCH  17  21
ATOM     21  O   UNL     1       2.412   4.532  20.810  0.00  0.00    +0.000 OA
ATOM     22  C   UNL     1       1.280   3.677  20.837  0.00  0.00    +0.000 C 
ENDBRANCH  17  21
ENDBRANCH  10  13
ENDBRANCH   1  10
BRANCH   1  23
ATOM     23  C   UNL     1       1.257  11.972  20.296  0.00  0.00    +0.000 C 
BRANCH  23  24
ATOM     24  C   UNL     1       1.312  13.095  19.284  0.00  0.00    +0.000 C 
ATOM     25  O   UNL     1       1.790  12.868  18.172  0.00  0.00    +0.000 OA
ATOM     26  N   UNL     1       0.908  14.341  19.736  0.00  0.00    +0.000 N 
ATOM     27  H   UNL     1       0.678  14.432  20.718  0.00  0.00    +0.000 HD
BRANCH  26  28
ATOM     28  C   UNL     1       0.858  15.532  18.958  0.00  0.00    +0.000 A 
ATOM     29  C   UNL     1      -0.337  16.132  18.554  0.00  0.00    +0.000 A 
ATOM     30  C   UNL     1      -0.332  17.334  17.831  0.00  0.00    +0.000 A 
ATOM     31  C   UNL     1       0.870  17.948  17.497  0.00  0.00    +0.000 A 
ATOM     32  C   UNL     1       2.073  17.352  17.876  0.00  0.00    +0.000 A 
ATOM     33  C   UNL     1       2.057  16.158  18.600  0.00  0.00    +0.000 A 
ATOM     34  F   UNL     1       3.229  15.605  18.953  0.00  0.00    +0.000 F 
ENDBRANCH  26  28
ENDBRANCH  23  24
ENDBRANCH   1  23
TORSDOF 9
ENDMDL
MODEL 3
REMARK VINA RESULT:      -7.2      1.116      1.280
REMARK  Name = 
REMARK  12 active torsions:
REMARK  status: ('A' for Active; 'I' for Inactive)
REMARK    1  A    between atoms: C_1  and  O_2
REMARK    2  A    between atoms: O_2  and  C_3
REMARK    3  A    between atoms: C_6  and  N_7
REMARK    4  A    between atoms: N_7  and  C_8
REMARK    5  A    between atoms: N_7  and  S_19
REMARK    6  A    between atoms: C_8  and  C_9
REMARK    7  A    between atoms: N_11  and  C_12
REMARK    8  A    between atoms: S_19  and  C_22
REMARK    9  A    between atoms: C_25  and  O_26
REMARK   10  A    between atoms: O_26  and  C_27
REMARK   11  A    between atoms: C_28  and  O_29
REMARK   12  A    between atoms: O_29  and  C_30
REMARK                            x       y       z     vdW  Elec       q    Type
REMARK                         _______ _______ _______ _____ _____    ______ ____
ROOT
ATOM      1  N   UNL     1       0.502  10.995  19.610  0.00  0.00    +0.000 N 
ENDROOT
BRANCH   1   5
ATOM      2  C   UNL     1      -3.392  11.295  17.882  0.00  0.00    +0.000 A 
ATOM      3  C   UNL     1      -2.436  10.456  17.304  0.00  0.00    +0.000 A 
ATOM      4  C   UNL     1      -1.158  10.324  17.866  0.00  0.00    +0.000 A 
ATOM      5  C   UNL     1      -0.822  11.043  19.016  0.00  0.00    +0.000 A 
ATOM      6  C   UNL     1      -1.771  11.905  19.578  0.00  0.00    +0.000 A 
ATOM      7  C   UNL     1      -3.055  12.025  19.020  0.00  0.00    +0.000 A 
BRANCH   2   9
ATOM      8  C   UNL     1      -5.680  11.941  17.906  0.00  0.00    +0.000 C 
ATOM      9  O   UNL     1      -4.583  11.358  17.214  0.00  0.00    +0.000 OA
ENDBRANCH   2   9
ENDBRANCH   1   5
BRANCH   1  10
ATOM     10  S   UNL     1       0.707   9.638  20.684  0.00  0.00    +0.000 S 
ATOM     11  O   UNL     1       1.524  10.056  21.811  0.00  0.00    +0.000 OA
ATOM     12  O   UNL     1      -0.589   9.004  20.885  0.00  0.00    +0.000 OA
BRANCH  10  13
ATOM     13  C   UNL     1       1.638   8.483  19.701  0.00  0.00    +0.000 A 
ATOM     14  C   UNL     1       2.127   8.821  18.446  0.00  0.00    +0.000 A 
ATOM     15  C   UNL     1       2.894   7.882  17.745  0.00  0.00    +0.000 A 
ATOM     16  C   UNL     1       3.181   6.617  18.286  0.00  0.00    +0.000 A 
ATOM     17  C   UNL     1       2.697   6.290  19.568  0.00  0.00    +0.000 A 
ATOM     18  C   UNL     1       1.937   7.236  20.264  0.00  0.00    +0.000 A 
BRANCH  16  19
ATOM     19  O   UNL     1       3.948   5.850  17.444  0.00  0.00    +0.000 OA
ATOM     20  C   UNL     1       4.855   6.493  16.558  0.00  0.00    +0.000 C 
ENDBRANCH  16  19
BRANCH  17  21
ATOM     21  O   UNL     1       2.998   5.061  20.090  0.00  0.00    +0.000 OA
ATOM     22  C   UNL     1       2.189   4.561  21.145  0.00  0.00    +0.000 C 
ENDBRANCH  17  21
ENDBRANCH  10  13
ENDBRANCH   1  10
BRANCH   1  23
ATOM     23  C   UNL     1       0.974  12.293  20.187  0.00  0.00    +0.000 C 
BRANCH  23  24
ATOM     24  C   UNL     1       1.306  13.382  19.191  0.00  0.00    +0.000 C 
ATOM     25  O   UNL     1       2.014  13.105  18.223  0.00  0.00    +0.000 OA
ATOM     26  N   UNL     1       0.865  14.657  19.513  0.00  0.00    +0.000 N 
ATOM     27  H   UNL     1       0.422  14.786  20.415  0.00  0.00    +0.000 HD
BRANCH  26  28
ATOM     28  C   UNL     1       1.045  15.824  18.719  0.00  0.00    +0.000 A 
ATOM     29  C   UNL     1       2.271  16.184  18.155  0.00  0.00    +0.000 A 
ATOM     30  C   UNL     1       2.384  17.318  17.338  0.00  0.00    +0.000 A 
ATOM     31  C   UNL     1       1.271  18.111  17.079  0.00  0.00    +0.000 A 
ATOM     32  C   UNL     1       0.043  17.776  17.650  0.00  0.00    +0.000 A 
ATOM     33  C   UNL     1      -0.060  16.643  18.458  0.00  0.00    +0.000 A 
ATOM     34  F   UNL     1      -1.253  16.343  18.995  0.00  0.00    +0.000 F 
ENDBRANCH  26  28
ENDBRANCH  23  24
ENDBRANCH   1  23
TORSDOF 9
ENDMDL
MODEL 4
REMARK VINA RESULT:      -7.2      2.738      7.650
REMARK  Name = 
REMARK  12 active torsions:
REMARK  status: ('A' for Active; 'I' for Inactive)
REMARK    1  A    between atoms: C_1  and  O_2
REMARK    2  A    between atoms: O_2  and  C_3
REMARK    3  A    between atoms: C_6  and  N_7
REMARK    4  A    between atoms: N_7  and  C_8
REMARK    5  A    between atoms: N_7  and  S_19
REMARK    6  A    between atoms: C_8  and  C_9
REMARK    7  A    between atoms: N_11  and  C_12
REMARK    8  A    between atoms: S_19  and  C_22
REMARK    9  A    between atoms: C_25  and  O_26
REMARK   10  A    between atoms: O_26  and  C_27
REMARK   11  A    between atoms: C_28  and  O_29
REMARK   12  A    between atoms: O_29  and  C_30
REMARK                            x       y       z     vdW  Elec       q    Type
REMARK                         _______ _______ _______ _____ _____    ______ ____
ROOT
ATOM      1  N   UNL     1       0.621  11.454  20.048  0.00  0.00    +0.000 N 
ENDROOT
BRANCH   1   5
ATOM      2  C   UNL     1       3.583  14.467  19.420  0.00  0.00    +0.000 A 
ATOM      3  C   UNL     1       3.055  13.771  18.330  0.00  0.00    +0.000 A 
ATOM      4  C   UNL     1       2.066  12.793  18.509  0.00  0.00    +0.000 A 
ATOM      5  C   UNL     1       1.600  12.496  19.792  0.00  0.00    +0.000 A 
ATOM      6  C   UNL     1       2.149  13.175  20.886  0.00  0.00    +0.000 A 
ATOM      7  C   UNL     1       3.131  14.163  20.703  0.00  0.00    +0.000 A 
BRANCH   2   9
ATOM      8  C   UNL     1       5.810  15.218  19.780  0.00  0.00    +0.000 C 
ATOM      9  O   UNL     1       4.565  15.366  19.109  0.00  0.00    +0.000 OA
ENDBRANCH   2   9
ENDBRANCH   1   5
BRANCH   1  10
ATOM     10  S   UNL     1      -0.999  12.078  20.202  0.00  0.00    +0.000 S 
ATOM     11  O   UNL     1      -1.603  11.511  21.397  0.00  0.00    +0.000 OA
ATOM     12  O   UNL     1      -0.966  13.517  19.983  0.00  0.00    +0.000 OA
BRANCH  10  13
ATOM     13  C   UNL     1      -1.825  11.411  18.773  0.00  0.00    +0.000 A 
ATOM     14  C   UNL     1      -1.243  10.424  17.988  0.00  0.00    +0.000 A 
ATOM     15  C   UNL     1      -1.968   9.909  16.906  0.00  0.00    +0.000 A 
ATOM     16  C   UNL     1      -3.264  10.362  16.607  0.00  0.00    +0.000 A 
ATOM     17  C   UNL     1      -3.853  11.350  17.420  0.00  0.00    +0.000 A 
ATOM     18  C   UNL     1      -3.125  11.855  18.502  0.00  0.00    +0.000 A 
BRANCH  16  19
ATOM     19  O   UNL     1      -3.799   9.729  15.513  0.00  0.00    +0.000 OA
ATOM     20  C   UNL     1      -3.361  10.104  14.214  0.00  0.00    +0.000 C 
ENDBRANCH  16  19
BRANCH  17  21
ATOM     21  O   UNL     1      -5.122  11.772  17.127  0.00  0.00    +0.000 OA
ATOM     22  C   UNL     1      -6.193  11.290  17.924  0.00  0.00    +0.000 C 
ENDBRANCH  17  21
ENDBRANCH  10  13
ENDBRANCH   1  10
BRANCH   1  23
ATOM     23  C   UNL     1       1.002  10.496  21.133  0.00  0.00    +0.000 C 
BRANCH  23  24
ATOM     24  C   UNL     1       0.829   9.027  20.815  0.00  0.00    +0.000 C 
ATOM     25  O   UNL     1      -0.219   8.469  21.141  0.00  0.00    +0.000 OA
ATOM     26  N   UNL     1       1.930   8.390  20.264  0.00  0.00    +0.000 N 
ATOM     27  H   UNL     1       2.788   8.923  20.183  0.00  0.00    +0.000 HD
BRANCH  26  28
ATOM     28  C   UNL     1       1.989   7.024  19.869  0.00  0.00    +0.000 A 
ATOM     29  C   UNL     1       1.697   5.965  20.731  0.00  0.00    +0.000 A 
ATOM     30  C   UNL     1       1.720   4.638  20.278  0.00  0.00    +0.000 A 
ATOM     31  C   UNL     1       2.043   4.354  18.956  0.00  0.00    +0.000 A 
ATOM     32  C   UNL     1       2.356   5.398  18.086  0.00  0.00    +0.000 A 
ATOM     33  C   UNL     1       2.325   6.715  18.546  0.00  0.00    +0.000 A 
ATOM     34  F   UNL     1       2.632   7.703  17.689  0.00  0.00    +0.000 F 
ENDBRANCH  26  28
ENDBRANCH  23  24
ENDBRANCH   1  23
TORSDOF 9
ENDMDL
MODEL 5
REMARK VINA RESULT:      -7.1      2.629      7.654
REMARK  Name = 
REMARK  12 active torsions:
REMARK  status: ('A' for Active; 'I' for Inactive)
REMARK    1  A    between atoms: C_1  and  O_2
REMARK    2  A    between atoms: O_2  and  C_3
REMARK    3  A    between atoms: C_6  and  N_7
REMARK    4  A    between atoms: N_7  and  C_8
REMARK    5  A    between atoms: N_7  and  S_19
REMARK    6  A    between atoms: C_8  and  C_9
REMARK    7  A    between atoms: N_11  and  C_12
REMARK    8  A    between atoms: S_19  and  C_22
REMARK    9  A    between atoms: C_25  and  O_26
REMARK   10  A    between atoms: O_26  and  C_27
REMARK   11  A    between atoms: C_28  and  O_29
REMARK   12  A    between atoms: O_29  and  C_30
REMARK                            x       y       z     vdW  Elec       q    Type
REMARK                         _______ _______ _______ _____ _____    ______ ____
ROOT
ATOM      1  N   UNL     1       0.608  11.329  20.186  0.00  0.00    +0.000 N 
ENDROOT
BRANCH   1   5
ATOM      2  C   UNL     1       3.419  14.432  19.341  0.00  0.00    +0.000 A 
ATOM      3  C   UNL     1       3.072  14.146  20.665  0.00  0.00    +0.000 A 
ATOM      4  C   UNL     1       2.169  13.118  20.968  0.00  0.00    +0.000 A 
ATOM      5  C   UNL     1       1.595  12.366  19.940  0.00  0.00    +0.000 A 
ATOM      6  C   UNL     1       1.921  12.671  18.613  0.00  0.00    +0.000 A 
ATOM      7  C   UNL     1       2.836  13.694  18.313  0.00  0.00    +0.000 A 
BRANCH   2   9
ATOM      8  C   UNL     1       4.002  16.392  18.130  0.00  0.00    +0.000 C 
ATOM      9  O   UNL     1       4.282  15.481  19.185  0.00  0.00    +0.000 OA
ENDBRANCH   2   9
ENDBRANCH   1   5
BRANCH   1  10
ATOM     10  S   UNL     1      -1.005  11.966  20.365  0.00  0.00    +0.000 S 
ATOM     11  O   UNL     1      -1.616  11.360  21.536  0.00  0.00    +0.000 OA
ATOM     12  O   UNL     1      -0.954  13.412  20.203  0.00  0.00    +0.000 OA
BRANCH  10  13
ATOM     13  C   UNL     1      -1.839  11.367  18.911  0.00  0.00    +0.000 A 
ATOM     14  C   UNL     1      -1.236  10.466  18.043  0.00  0.00    +0.000 A 
ATOM     15  C   UNL     1      -1.966   9.997  16.944  0.00  0.00    +0.000 A 
ATOM     16  C   UNL     1      -3.287  10.413  16.708  0.00  0.00    +0.000 A 
ATOM     17  C   UNL     1      -3.896  11.312  17.603  0.00  0.00    +0.000 A 
ATOM     18  C   UNL     1      -3.163  11.772  18.703  0.00  0.00    +0.000 A 
BRANCH  16  19
ATOM     19  O   UNL     1      -3.823   9.836  15.583  0.00  0.00    +0.000 OA
ATOM     20  C   UNL     1      -3.240  10.117  14.318  0.00  0.00    +0.000 C 
ENDBRANCH  16  19
BRANCH  17  21
ATOM     21  O   UNL     1      -5.190  11.698  17.371  0.00  0.00    +0.000 OA
ATOM     22  C   UNL     1      -5.782  12.639  18.253  0.00  0.00    +0.000 C 
ENDBRANCH  17  21
ENDBRANCH  10  13
ENDBRANCH   1  10
BRANCH   1  23
ATOM     23  C   UNL     1       0.987  10.348  21.250  0.00  0.00    +0.000 C 
BRANCH  23  24
ATOM     24  C   UNL     1       0.818   8.887  20.900  0.00  0.00    +0.000 C 
ATOM     25  O   UNL     1      -0.243   8.329  21.179  0.00  0.00    +0.000 OA
ATOM     26  N   UNL     1       1.935   8.253  20.377  0.00  0.00    +0.000 N 
ATOM     27  H   UNL     1       2.798   8.782  20.336  0.00  0.00    +0.000 HD
BRANCH  26  28
ATOM     28  C   UNL     1       2.000   6.894  19.960  0.00  0.00    +0.000 A 
ATOM     29  C   UNL     1       1.719   5.819  20.807  0.00  0.00    +0.000 A 
ATOM     30  C   UNL     1       1.748   4.500  20.332  0.00  0.00    +0.000 A 
ATOM     31  C   UNL     1       2.066   4.239  19.004  0.00  0.00    +0.000 A 
ATOM     32  C   UNL     1       2.368   5.298  18.150  0.00  0.00    +0.000 A 
ATOM     33  C   UNL     1       2.331   6.608  18.630  0.00  0.00    +0.000 A 
ATOM     34  F   UNL     1       2.627   7.611  17.788  0.00  0.00    +0.000 F 
ENDBRANCH  26  28
ENDBRANCH  23  24
ENDBRANCH   1  23
TORSDOF 9
ENDMDL
MODEL 6
REMARK VINA RESULT:      -7.1      2.915      7.777
REMARK  Name = 
REMARK  12 active torsions:
REMARK  status: ('A' for Active; 'I' for Inactive)
REMARK    1  A    between atoms: C_1  and  O_2
REMARK    2  A    between atoms: O_2  and  C_3
REMARK    3  A    between atoms: C_6  and  N_7
REMARK    4  A    between atoms: N_7  and  C_8
REMARK    5  A    between atoms: N_7  and  S_19
REMARK    6  A    between atoms: C_8  and  C_9
REMARK    7  A    between atoms: N_11  and  C_12
REMARK    8  A    between atoms: S_19  and  C_22
REMARK    9  A    between atoms: C_25  and  O_26
REMARK   10  A    between atoms: O_26  and  C_27
REMARK   11  A    between atoms: C_28  and  O_29
REMARK   12  A    between atoms: O_29  and  C_30
REMARK                            x       y       z     vdW  Elec       q    Type
REMARK                         _______ _______ _______ _____ _____    ______ ____
ROOT
ATOM      1  N   UNL     1       0.672  11.045  19.043  0.00  0.00    +0.000 N 
ENDROOT
BRANCH   1   5
ATOM      2  C   UNL     1       3.317  14.332  19.708  0.00  0.00    +0.000 A 
ATOM      3  C   UNL     1       2.968  13.972  18.404  0.00  0.00    +0.000 A 
ATOM      4  C   UNL     1       2.084  12.910  18.161  0.00  0.00    +0.000 A 
ATOM      5  C   UNL     1       1.545  12.191  19.231  0.00  0.00    +0.000 A 
ATOM      6  C   UNL     1       1.917  12.535  20.536  0.00  0.00    +0.000 A 
ATOM      7  C   UNL     1       2.793  13.607  20.776  0.00  0.00    +0.000 A 
BRANCH   2   9
ATOM      8  C   UNL     1       3.686  16.680  19.781  0.00  0.00    +0.000 C 
ATOM      9  O   UNL     1       4.215  15.360  19.800  0.00  0.00    +0.000 OA
ENDBRANCH   2   9
ENDBRANCH   1   5
BRANCH   1  10
ATOM     10  S   UNL     1      -0.957  11.347  19.586  0.00  0.00    +0.000 S 
ATOM     11  O   UNL     1      -1.296  10.368  20.605  0.00  0.00    +0.000 OA
ATOM     12  O   UNL     1      -1.109  12.774  19.829  0.00  0.00    +0.000 OA
BRANCH  10  13
ATOM     13  C   UNL     1      -1.932  11.019  18.133  0.00  0.00    +0.000 A 
ATOM     14  C   UNL     1      -1.523  10.105  17.170  0.00  0.00    +0.000 A 
ATOM     15  C   UNL     1      -2.361   9.858  16.075  0.00  0.00    +0.000 A 
ATOM     16  C   UNL     1      -3.599  10.507  15.937  0.00  0.00    +0.000 A 
ATOM     17  C   UNL     1      -4.014  11.418  16.928  0.00  0.00    +0.000 A 
ATOM     18  C   UNL     1      -3.174  11.655  18.021  0.00  0.00    +0.000 A 
BRANCH  16  19
ATOM     19  O   UNL     1      -4.266  10.124  14.800  0.00  0.00    +0.000 OA
ATOM     20  C   UNL     1      -3.526   9.904  13.607  0.00  0.00    +0.000 C 
ENDBRANCH  16  19
BRANCH  17  21
ATOM     21  O   UNL     1      -5.230  12.032  16.789  0.00  0.00    +0.000 OA
ATOM     22  C   UNL     1      -5.866  12.537  17.953  0.00  0.00    +0.000 C 
ENDBRANCH  17  21
ENDBRANCH  10  13
ENDBRANCH   1  10
BRANCH   1  23
ATOM     23  C   UNL     1       1.236   9.747  19.529  0.00  0.00    +0.000 C 
BRANCH  23  24
ATOM     24  C   UNL     1       1.913   8.884  18.488  0.00  0.00    +0.000 C 
ATOM     25  O   UNL     1       1.875   9.237  17.309  0.00  0.00    +0.000 OA
ATOM     26  N   UNL     1       2.441   7.685  18.941  0.00  0.00    +0.000 N 
ATOM     27  H   UNL     1       2.275   7.435  19.908  0.00  0.00    +0.000 HD
BRANCH  26  28
ATOM     28  C   UNL     1       3.135   6.729  18.147  0.00  0.00    +0.000 A 
ATOM     29  C   UNL     1       4.255   7.045  17.374  0.00  0.00    +0.000 A 
ATOM     30  C   UNL     1       4.934   6.055  16.650  0.00  0.00    +0.000 A 
ATOM     31  C   UNL     1       4.497   4.736  16.684  0.00  0.00    +0.000 A 
ATOM     32  C   UNL     1       3.369   4.406  17.435  0.00  0.00    +0.000 A 
ATOM     33  C   UNL     1       2.703   5.398  18.157  0.00  0.00    +0.000 A 
ATOM     34  F   UNL     1       1.619   5.055  18.872  0.00  0.00    +0.000 F 
ENDBRANCH  26  28
ENDBRANCH  23  24
ENDBRANCH   1  23
TORSDOF 9
ENDMDL
MODEL 7
REMARK VINA RESULT:      -7.1      1.190      1.447
REMARK  Name = 
REMARK  12 active torsions:
REMARK  status: ('A' for Active; 'I' for Inactive)
REMARK    1  A    between atoms: C_1  and  O_2
REMARK    2  A    between atoms: O_2  and  C_3
REMARK    3  A    between atoms: C_6  and  N_7
REMARK    4  A    between atoms: N_7  and  C_8
REMARK    5  A    between atoms: N_7  and  S_19
REMARK    6  A    between atoms: C_8  and  C_9
REMARK    7  A    between atoms: N_11  and  C_12
REMARK    8  A    between atoms: S_19  and  C_22
REMARK    9  A    between atoms: C_25  and  O_26
REMARK   10  A    between atoms: O_26  and  C_27
REMARK   11  A    between atoms: C_28  and  O_29
REMARK   12  A    between atoms: O_29  and  C_30
REMARK                            x       y       z     vdW  Elec       q    Type
REMARK                         _______ _______ _______ _____ _____    ______ ____
ROOT
ATOM      1  N   UNL     1       0.285  11.007  19.973  0.00  0.00    +0.000 N 
ENDROOT
BRANCH   1   5
ATOM      2  C   UNL     1      -3.104  10.824  17.380  0.00  0.00    +0.000 A 
ATOM      3  C   UNL     1      -1.983  10.030  17.120  0.00  0.00    +0.000 A 
ATOM      4  C   UNL     1      -0.868  10.056  17.969  0.00  0.00    +0.000 A 
ATOM      5  C   UNL     1      -0.862  10.890  19.090  0.00  0.00    +0.000 A 
ATOM      6  C   UNL     1      -1.973  11.706  19.334  0.00  0.00    +0.000 A 
ATOM      7  C   UNL     1      -3.094  11.668  18.488  0.00  0.00    +0.000 A 
BRANCH   2   9
ATOM      8  C   UNL     1      -3.713  10.549  15.098  0.00  0.00    +0.000 C 
ATOM      9  O   UNL     1      -4.105  10.728  16.454  0.00  0.00    +0.000 OA
ENDBRANCH   2   9
ENDBRANCH   1   5
BRANCH   1  10
ATOM     10  S   UNL     1       0.513   9.593  20.968  0.00  0.00    +0.000 S 
ATOM     11  O   UNL     1       1.316   9.961  22.121  0.00  0.00    +0.000 OA
ATOM     12  O   UNL     1      -0.771   8.923  21.124  0.00  0.00    +0.000 OA
BRANCH  10  13
ATOM     13  C   UNL     1       1.472   8.516  19.924  0.00  0.00    +0.000 A 
ATOM     14  C   UNL     1       1.948   8.933  18.687  0.00  0.00    +0.000 A 
ATOM     15  C   UNL     1       2.737   8.052  17.937  0.00  0.00    +0.000 A 
ATOM     16  C   UNL     1       3.060   6.769  18.411  0.00  0.00    +0.000 A 
ATOM     17  C   UNL     1       2.589   6.363  19.674  0.00  0.00    +0.000 A 
ATOM     18  C   UNL     1       1.805   7.250  20.420  0.00  0.00    +0.000 A 
BRANCH  16  19
ATOM     19  O   UNL     1       3.844   6.069  17.528  0.00  0.00    +0.000 OA
ATOM     20  C   UNL     1       5.255   6.077  17.699  0.00  0.00    +0.000 C 
ENDBRANCH  16  19
BRANCH  17  21
ATOM     21  O   UNL     1       2.923   5.116  20.131  0.00  0.00    +0.000 OA
ATOM     22  C   UNL     1       1.929   4.353  20.797  0.00  0.00    +0.000 C 
ENDBRANCH  17  21
ENDBRANCH  10  13
ENDBRANCH   1  10
BRANCH   1  23
ATOM     23  C   UNL     1       0.358  12.293  20.734  0.00  0.00    +0.000 C 
BRANCH  23  24
ATOM     24  C   UNL     1       1.626  13.099  20.559  0.00  0.00    +0.000 C 
ATOM     25  O   UNL     1       2.525  12.978  21.391  0.00  0.00    +0.000 OA
ATOM     26  N   UNL     1       1.630  14.008  19.512  0.00  0.00    +0.000 N 
ATOM     27  H   UNL     1       0.770  14.124  18.989  0.00  0.00    +0.000 HD
BRANCH  26  28
ATOM     28  C   UNL     1       2.715  14.854  19.149  0.00  0.00    +0.000 A 
ATOM     29  C   UNL     1       2.847  16.167  19.606  0.00  0.00    +0.000 A 
ATOM     30  C   UNL     1       3.963  16.943  19.260  0.00  0.00    +0.000 A 
ATOM     31  C   UNL     1       4.960  16.415  18.446  0.00  0.00    +0.000 A 
ATOM     32  C   UNL     1       4.834  15.112  17.965  0.00  0.00    +0.000 A 
ATOM     33  C   UNL     1       3.722  14.346  18.320  0.00  0.00    +0.000 A 
ATOM     34  F   UNL     1       3.624  13.095  17.844  0.00  0.00    +0.000 F 
ENDBRANCH  26  28
ENDBRANCH  23  24
ENDBRANCH   1  23
TORSDOF 9
ENDMDL
MODEL 8
REMARK VINA RESULT:      -6.9      1.369      1.437
REMARK  Name = 
REMARK  12 active torsions:
REMARK  status: ('A' for Active; 'I' for Inactive)
REMARK    1  A    between atoms: C_1  and  O_2
REMARK    2  A    between atoms: O_2  and  C_3
REMARK    3  A    between atoms: C_6  and  N_7
REMARK    4  A    between atoms: N_7  and  C_8
REMARK    5  A    between atoms: N_7  and  S_19
REMARK    6  A    between atoms: C_8  and  C_9
REMARK    7  A    between atoms: N_11  and  C_12
REMARK    8  A    between atoms: S_19  and  C_22
REMARK    9  A    between atoms: C_25  and  O_26
REMARK   10  A    between atoms: O_26  and  C_27
REMARK   11  A    between atoms: C_28  and  O_29
REMARK   12  A    between atoms: O_29  and  C_30
REMARK                            x       y       z     vdW  Elec       q    Type
REMARK                         _______ _______ _______ _____ _____    ______ ____
ROOT
ATOM      1  N   UNL     1       0.396  10.933  19.857  0.00  0.00    +0.000 N 
ENDROOT
BRANCH   1   5
ATOM      2  C   UNL     1      -3.468  11.227  18.063  0.00  0.00    +0.000 A 
ATOM      3  C   UNL     1      -2.518  10.352  17.531  0.00  0.00    +0.000 A 
ATOM      4  C   UNL     1      -1.250  10.221  18.116  0.00  0.00    +0.000 A 
ATOM      5  C   UNL     1      -0.919  10.979  19.242  0.00  0.00    +0.000 A 
ATOM      6  C   UNL     1      -1.862  11.876  19.758  0.00  0.00    +0.000 A 
ATOM      7  C   UNL     1      -3.135  11.995  19.176  0.00  0.00    +0.000 A 
BRANCH   2   9
ATOM      8  C   UNL     1      -5.841  11.093  18.125  0.00  0.00    +0.000 C 
ATOM      9  O   UNL     1      -4.649  11.283  17.374  0.00  0.00    +0.000 OA
ENDBRANCH   2   9
ENDBRANCH   1   5
BRANCH   1  10
ATOM     10  S   UNL     1       0.605   9.544  20.891  0.00  0.00    +0.000 S 
ATOM     11  O   UNL     1       1.435   9.928  22.021  0.00  0.00    +0.000 OA
ATOM     12  O   UNL     1      -0.691   8.910  21.086  0.00  0.00    +0.000 OA
BRANCH  10  13
ATOM     13  C   UNL     1       1.523   8.414  19.867  0.00  0.00    +0.000 A 
ATOM     14  C   UNL     1       1.954   8.768  18.594  0.00  0.00    +0.000 A 
ATOM     15  C   UNL     1       2.713   7.848  17.860  0.00  0.00    +0.000 A 
ATOM     16  C   UNL     1       3.051   6.589  18.385  0.00  0.00    +0.000 A 
ATOM     17  C   UNL     1       2.626   6.247  19.683  0.00  0.00    +0.000 A 
ATOM     18  C   UNL     1       1.873   7.173  20.412  0.00  0.00    +0.000 A 
BRANCH  16  19
ATOM     19  O   UNL     1       3.800   5.843  17.509  0.00  0.00    +0.000 OA
ATOM     20  C   UNL     1       4.937   6.434  16.895  0.00  0.00    +0.000 C 
ENDBRANCH  16  19
BRANCH  17  21
ATOM     21  O   UNL     1       2.975   5.023  20.189  0.00  0.00    +0.000 OA
ATOM     22  C   UNL     1       1.983   4.009  20.244  0.00  0.00    +0.000 C 
ENDBRANCH  17  21
ENDBRANCH  10  13
ENDBRANCH   1  10
BRANCH   1  23
ATOM     23  C   UNL     1       0.836  12.219  20.483  0.00  0.00    +0.000 C 
BRANCH  23  24
ATOM     24  C   UNL     1       1.934  12.969  19.762  0.00  0.00    +0.000 C 
ATOM     25  O   UNL     1       2.360  12.518  18.698  0.00  0.00    +0.000 OA
ATOM     26  N   UNL     1       2.455  14.070  20.423  0.00  0.00    +0.000 N 
ATOM     27  H   UNL     1       2.125  14.252  21.364  0.00  0.00    +0.000 HD
BRANCH  26  28
ATOM     28  C   UNL     1       3.474  14.932  19.929  0.00  0.00    +0.000 A 
ATOM     29  C   UNL     1       4.796  14.890  20.378  0.00  0.00    +0.000 A 
ATOM     30  C   UNL     1       5.774  15.726  19.822  0.00  0.00    +0.000 A 
ATOM     31  C   UNL     1       5.440  16.621  18.811  0.00  0.00    +0.000 A 
ATOM     32  C   UNL     1       4.121  16.689  18.364  0.00  0.00    +0.000 A 
ATOM     33  C   UNL     1       3.156  15.849  18.921  0.00  0.00    +0.000 A 
ATOM     34  F   UNL     1       1.893  15.935  18.473  0.00  0.00    +0.000 F 
ENDBRANCH  26  28
ENDBRANCH  23  24
ENDBRANCH   1  23
TORSDOF 9
ENDMDL
MODEL 9
REMARK VINA RESULT:      -6.8      1.091      1.544
REMARK  Name = 
REMARK  12 active torsions:
REMARK  status: ('A' for Active; 'I' for Inactive)
REMARK    1  A    between atoms: C_1  and  O_2
REMARK    2  A    between atoms: O_2  and  C_3
REMARK    3  A    between atoms: C_6  and  N_7
REMARK    4  A    between atoms: N_7  and  C_8
REMARK    5  A    between atoms: N_7  and  S_19
REMARK    6  A    between atoms: C_8  and  C_9
REMARK    7  A    between atoms: N_11  and  C_12
REMARK    8  A    between atoms: S_19  and  C_22
REMARK    9  A    between atoms: C_25  and  O_26
REMARK   10  A    between atoms: O_26  and  C_27
REMARK   11  A    between atoms: C_28  and  O_29
REMARK   12  A    between atoms: O_29  and  C_30
REMARK                            x       y       z     vdW  Elec       q    Type
REMARK                         _______ _______ _______ _____ _____    ______ ____
ROOT
ATOM      1  N   UNL     1       0.957  10.555  20.064  0.00  0.00    +0.000 N 
ENDROOT
BRANCH   1   5
ATOM      2  C   UNL     1      -2.748  11.141  18.021  0.00  0.00    +0.000 A 
ATOM      3  C   UNL     1      -2.508  11.798  19.231  0.00  0.00    +0.000 A 
ATOM      4  C   UNL     1      -1.290  11.639  19.909  0.00  0.00    +0.000 A 
ATOM      5  C   UNL     1      -0.299  10.808  19.380  0.00  0.00    +0.000 A 
ATOM      6  C   UNL     1      -0.551  10.129  18.182  0.00  0.00    +0.000 A 
ATOM      7  C   UNL     1      -1.767  10.300  17.499  0.00  0.00    +0.000 A 
BRANCH   2   9
ATOM      8  C   UNL     1      -4.197  10.914  16.150  0.00  0.00    +0.000 C 
ATOM      9  O   UNL     1      -3.987  11.355  17.485  0.00  0.00    +0.000 OA
ENDBRANCH   2   9
ENDBRANCH   1   5
BRANCH   1  10
ATOM     10  S   UNL     1       0.833   9.281  21.247  0.00  0.00    +0.000 S 
ATOM     11  O   UNL     1       1.740   9.575  22.344  0.00  0.00    +0.000 OA
ATOM     12  O   UNL     1      -0.577   9.005  21.487  0.00  0.00    +0.000 OA
BRANCH  10  13
ATOM     13  C   UNL     1       1.440   7.856  20.370  0.00  0.00    +0.000 A 
ATOM     14  C   UNL     1       2.208   7.980  19.219  0.00  0.00    +0.000 A 
ATOM     15  C   UNL     1       2.695   6.820  18.605  0.00  0.00    +0.000 A 
ATOM     16  C   UNL     1       2.429   5.544  19.130  0.00  0.00    +0.000 A 
ATOM     17  C   UNL     1       1.666   5.429  20.308  0.00  0.00    +0.000 A 
ATOM     18  C   UNL     1       1.188   6.593  20.919  0.00  0.00    +0.000 A 
BRANCH  16  19
ATOM     19  O   UNL     1       2.999   4.543  18.383  0.00  0.00    +0.000 OA
ATOM     20  C   UNL     1       2.184   3.804  17.483  0.00  0.00    +0.000 C 
ENDBRANCH  16  19
BRANCH  17  21
ATOM     21  O   UNL     1       1.427   4.181  20.818  0.00  0.00    +0.000 OA
ATOM     22  C   UNL     1       2.405   3.602  21.669  0.00  0.00    +0.000 C 
ENDBRANCH  17  21
ENDBRANCH  10  13
ENDBRANCH   1  10
BRANCH   1  23
ATOM     23  C   UNL     1       1.646  11.782  20.574  0.00  0.00    +0.000 C 
BRANCH  23  24
ATOM     24  C   UNL     1       1.848  12.897  19.572  0.00  0.00    +0.000 C 
ATOM     25  O   UNL     1       2.517  12.673  18.563  0.00  0.00    +0.000 OA
ATOM     26  N   UNL     1       1.341  14.137  19.930  0.00  0.00    +0.000 N 
ATOM     27  H   UNL     1       0.943  14.230  20.856  0.00  0.00    +0.000 HD
BRANCH  26  28
ATOM     28  C   UNL     1       1.398  15.318  19.138  0.00  0.00    +0.000 A 
ATOM     29  C   UNL     1       2.585  15.827  18.607  0.00  0.00    +0.000 A 
ATOM     30  C   UNL     1       2.580  16.967  17.790  0.00  0.00    +0.000 A 
ATOM     31  C   UNL     1       1.385  17.617  17.500  0.00  0.00    +0.000 A 
ATOM     32  C   UNL     1       0.193  17.133  18.037  0.00  0.00    +0.000 A 
ATOM     33  C   UNL     1       0.208  15.994  18.845  0.00  0.00    +0.000 A 
ATOM     34  F   UNL     1      -0.953  15.549  19.351  0.00  0.00    +0.000 F 
ENDBRANCH  26  28
ENDBRANCH  23  24
ENDBRANCH   1  23
TORSDOF 9
ENDMDL
