MODEL 1
REMARK VINA RESULT:      -7.8      0.000      0.000
REMARK  Name = 
REMARK  6 active torsions:
REMARK  status: ('A' for Active; 'I' for Inactive)
REMARK    1  A    between atoms: C_1  and  C_2
REMARK    2  A    between atoms: C_2  and  O_3
REMARK    3  A    between atoms: O_3  and  C_4
REMARK    4  A    between atoms: C_4  and  C_6
REMARK    5  A    between atoms: C_6  and  N_7
REMARK    6  A    between atoms: N_14  and  C_15
REMARK                            x       y       z     vdW  Elec       q    Type
REMARK                         _______ _______ _______ _____ _____    ______ ____
ROOT
ATOM      1  N   UNL     1       6.834   5.020  14.562  0.00  0.00    +0.000 N 
ATOM      2  C   UNL     1       6.590   5.562  15.825  0.00  0.00    +0.000 A 
ATOM      3  N   UNL     1       7.439   6.475  16.251  0.00  0.00    +0.000 NA
ATOM      4  C   UNL     1       7.158   6.941  17.459  0.00  0.00    +0.000 A 
ATOM      5 CL   UNL     1       8.303   8.018  18.130  0.00  0.00    +0.000 Cl
ATOM      6  N   UNL     1       6.114   6.662  18.224  0.00  0.00    +0.000 NA
ATOM      7  C   UNL     1       5.311   5.760  17.694  0.00  0.00    +0.000 A 
ATOM      8  N   UNL     1       4.143   5.462  18.396  0.00  0.00    +0.000 N 
ATOM      9  N   UNL     1       5.536   5.166  16.523  0.00  0.00    +0.000 NA
ATOM     10  H   UNL     1       6.619   5.774  13.909  0.00  0.00    +0.000 HD
ATOM     11  H   UNL     1       4.102   5.985  19.260  0.00  0.00    +0.000 HD
ENDROOT
BRANCH   8  12
ATOM     12  C   UNL     1       3.416   4.262  18.402  0.00  0.00    +0.000 A 
ATOM     13  C   UNL     1       4.029   3.014  18.564  0.00  0.00    +0.000 A 
ATOM     14  C   UNL     1       3.275   1.839  18.569  0.00  0.00    +0.000 A 
ATOM     15  C   UNL     1       1.898   1.900  18.387  0.00  0.00    +0.000 A 
ATOM     16  C   UNL     1       1.271   3.132  18.220  0.00  0.00    +0.000 A 
ATOM     17  C   UNL     1       2.026   4.306  18.235  0.00  0.00    +0.000 A 
ENDBRANCH   8  12
BRANCH   1  18
ATOM     18  C   UNL     1       6.046   3.816  14.248  0.00  0.00    +0.000 C 
BRANCH  18  19
ATOM     19  C   UNL     1       5.942   3.568  12.749  0.00  0.00    +0.000 C 
ATOM     20  O   UNL     1       6.882   3.218  12.044  0.00  0.00    +0.000 OA
BRANCH  19  21
ATOM     21  O   UNL     1       4.669   3.798  12.320  0.00  0.00    +0.000 OA
BRANCH  21  23
ATOM     22  C   UNL     1       3.260   3.716  10.312  0.00  0.00    +0.000 C 
ATOM     23  C   UNL     1       4.255   2.999  11.204  0.00  0.00    +0.000 C 
ENDBRANCH  21  23
ENDBRANCH  19  21
ENDBRANCH  18  19
ENDBRANCH   1  18
TORSDOF 5
ENDMDL
MODEL 2
REMARK VINA RESULT:      -7.3      0.458      1.145
REMARK  Name = 
REMARK  6 active torsions:
REMARK  status: ('A' for Active; 'I' for Inactive)
REMARK    1  A    between atoms: C_1  and  C_2
REMARK    2  A    between atoms: C_2  and  O_3
REMARK    3  A    between atoms: O_3  and  C_4
REMARK    4  A    between atoms: C_4  and  C_6
REMARK    5  A    between atoms: C_6  and  N_7
REMARK    6  A    between atoms: N_14  and  C_15
REMARK                            x       y       z     vdW  Elec       q    Type
REMARK                         _______ _______ _______ _____ _____    ______ ____
ROOT
ATOM      1  N   UNL     1       7.042   5.108  14.555  0.00  0.00    +0.000 N 
ATOM      2  C   UNL     1       6.742   5.632  15.813  0.00  0.00    +0.000 A 
ATOM      3  N   UNL     1       7.588   6.515  16.304  0.00  0.00    +0.000 NA
ATOM      4  C   UNL     1       7.252   6.965  17.503  0.00  0.00    +0.000 A 
ATOM      5 CL   UNL     1       8.384   8.000  18.258  0.00  0.00    +0.000 Cl
ATOM      6  N   UNL     1       6.161   6.697  18.205  0.00  0.00    +0.000 NA
ATOM      7  C   UNL     1       5.367   5.825  17.614  0.00  0.00    +0.000 A 
ATOM      8  N   UNL     1       4.156   5.543  18.244  0.00  0.00    +0.000 N 
ATOM      9  N   UNL     1       5.642   5.249  16.444  0.00  0.00    +0.000 NA
ATOM     10  H   UNL     1       6.881   5.880  13.906  0.00  0.00    +0.000 HD
ATOM     11  H   UNL     1       4.079   6.051  19.115  0.00  0.00    +0.000 HD
ENDROOT
BRANCH   8  12
ATOM     12  C   UNL     1       3.401   4.362  18.186  0.00  0.00    +0.000 A 
ATOM     13  C   UNL     1       2.004   4.368  18.086  0.00  0.00    +0.000 A 
ATOM     14  C   UNL     1       1.284   3.173  18.027  0.00  0.00    +0.000 A 
ATOM     15  C   UNL     1       1.955   1.957  18.090  0.00  0.00    +0.000 A 
ATOM     16  C   UNL     1       3.344   1.931  18.192  0.00  0.00    +0.000 A 
ATOM     17  C   UNL     1       4.062   3.128  18.232  0.00  0.00    +0.000 A 
ENDBRANCH   8  12
BRANCH   1  18
ATOM     18  C   UNL     1       6.244   3.931  14.174  0.00  0.00    +0.000 C 
BRANCH  18  19
ATOM     19  C   UNL     1       6.322   3.638  12.681  0.00  0.00    +0.000 C 
ATOM     20  O   UNL     1       7.193   4.077  11.939  0.00  0.00    +0.000 OA
BRANCH  19  21
ATOM     21  O   UNL     1       5.288   2.833  12.303  0.00  0.00    +0.000 OA
BRANCH  21  23
ATOM     22  C   UNL     1       3.625   3.100  10.519  0.00  0.00    +0.000 C 
ATOM     23  C   UNL     1       4.103   3.528  11.893  0.00  0.00    +0.000 C 
ENDBRANCH  21  23
ENDBRANCH  19  21
ENDBRANCH  18  19
ENDBRANCH   1  18
TORSDOF 5
ENDMDL
MODEL 3
REMARK VINA RESULT:      -7.2      3.505      5.391
REMARK  Name = 
REMARK  6 active torsions:
REMARK  status: ('A' for Active; 'I' for Inactive)
REMARK    1  A    between atoms: C_1  and  C_2
REMARK    2  A    between atoms: C_2  and  O_3
REMARK    3  A    between atoms: O_3  and  C_4
REMARK    4  A    between atoms: C_4  and  C_6
REMARK    5  A    between atoms: C_6  and  N_7
REMARK    6  A    between atoms: N_14  and  C_15
REMARK                            x       y       z     vdW  Elec       q    Type
REMARK                         _______ _______ _______ _____ _____    ______ ____
ROOT
ATOM      1  N   UNL     1       7.641   6.535  16.298  0.00  0.00    +0.000 N 
ATOM      2  C   UNL     1       6.928   5.451  15.783  0.00  0.00    +0.000 A 
ATOM      3  N   UNL     1       7.216   5.085  14.551  0.00  0.00    +0.000 NA
ATOM      4  C   UNL     1       6.498   4.059  14.118  0.00  0.00    +0.000 A 
ATOM      5 CL   UNL     1       6.719   3.630  12.478  0.00  0.00    +0.000 Cl
ATOM      6  N   UNL     1       5.611   3.337  14.787  0.00  0.00    +0.000 NA
ATOM      7  C   UNL     1       5.417   3.768  16.019  0.00  0.00    +0.000 A 
ATOM      8  N   UNL     1       4.558   3.020  16.822  0.00  0.00    +0.000 N 
ATOM      9  N   UNL     1       6.025   4.836  16.533  0.00  0.00    +0.000 NA
ATOM     10  H   UNL     1       8.587   6.179  16.441  0.00  0.00    +0.000 HD
ATOM     11  H   UNL     1       4.173   2.241  16.306  0.00  0.00    +0.000 HD
ENDROOT
BRANCH   8  12
ATOM     12  C   UNL     1       3.767   3.462  17.893  0.00  0.00    +0.000 A 
ATOM     13  C   UNL     1       4.108   3.218  19.229  0.00  0.00    +0.000 A 
ATOM     14  C   UNL     1       3.300   3.675  20.272  0.00  0.00    +0.000 A 
ATOM     15  C   UNL     1       2.125   4.362  19.987  0.00  0.00    +0.000 A 
ATOM     16  C   UNL     1       1.768   4.612  18.664  0.00  0.00    +0.000 A 
ATOM     17  C   UNL     1       2.588   4.170  17.624  0.00  0.00    +0.000 A 
ENDBRANCH   8  12
BRANCH   1  18
ATOM     18  C   UNL     1       7.097   7.089  17.549  0.00  0.00    +0.000 C 
BRANCH  18  19
ATOM     19  C   UNL     1       8.042   6.894  18.727  0.00  0.00    +0.000 C 
ATOM     20  O   UNL     1       8.087   5.877  19.411  0.00  0.00    +0.000 OA
BRANCH  19  21
ATOM     21  O   UNL     1       8.810   8.006  18.906  0.00  0.00    +0.000 OA
BRANCH  21  23
ATOM     22  C   UNL     1       9.065  10.433  18.651  0.00  0.00    +0.000 C 
ATOM     23  C   UNL     1       8.360   9.169  18.198  0.00  0.00    +0.000 C 
ENDBRANCH  21  23
ENDBRANCH  19  21
ENDBRANCH  18  19
ENDBRANCH   1  18
TORSDOF 5
ENDMDL
MODEL 4
REMARK VINA RESULT:      -7.2      3.490      5.468
REMARK  Name = 
REMARK  6 active torsions:
REMARK  status: ('A' for Active; 'I' for Inactive)
REMARK    1  A    between atoms: C_1  and  C_2
REMARK    2  A    between atoms: C_2  and  O_3
REMARK    3  A    between atoms: O_3  and  C_4
REMARK    4  A    between atoms: C_4  and  C_6
REMARK    5  A    between atoms: C_6  and  N_7
REMARK    6  A    between atoms: N_14  and  C_15
REMARK                            x       y       z     vdW  Elec       q    Type
REMARK                         _______ _______ _______ _____ _____    ______ ____
ROOT
ATOM      1  N   UNL     1       7.566   6.594  16.236  0.00  0.00    +0.000 N 
ATOM      2  C   UNL     1       6.830   5.496  15.784  0.00  0.00    +0.000 A 
ATOM      3  N   UNL     1       7.073   5.086  14.557  0.00  0.00    +0.000 NA
ATOM      4  C   UNL     1       6.336   4.050  14.186  0.00  0.00    +0.000 A 
ATOM      5 CL   UNL     1       6.496   3.562  12.556  0.00  0.00    +0.000 Cl
ATOM      6  N   UNL     1       5.471   3.356  14.911  0.00  0.00    +0.000 NA
ATOM      7  C   UNL     1       5.322   3.831  16.133  0.00  0.00    +0.000 A 
ATOM      8  N   UNL     1       4.490   3.116  16.993  0.00  0.00    +0.000 N 
ATOM      9  N   UNL     1       5.953   4.912  16.588  0.00  0.00    +0.000 NA
ATOM     10  H   UNL     1       8.515   6.238  16.358  0.00  0.00    +0.000 HD
ATOM     11  H   UNL     1       4.083   2.321  16.518  0.00  0.00    +0.000 HD
ENDROOT
BRANCH   8  12
ATOM     12  C   UNL     1       3.739   3.599  18.075  0.00  0.00    +0.000 A 
ATOM     13  C   UNL     1       2.874   4.693  17.960  0.00  0.00    +0.000 A 
ATOM     14  C   UNL     1       2.138   5.146  19.057  0.00  0.00    +0.000 A 
ATOM     15  C   UNL     1       2.280   4.521  20.290  0.00  0.00    +0.000 A 
ATOM     16  C   UNL     1       3.138   3.432  20.425  0.00  0.00    +0.000 A 
ATOM     17  C   UNL     1       3.858   2.970  19.322  0.00  0.00    +0.000 A 
ENDBRANCH   8  12
BRANCH   1  18
ATOM     18  C   UNL     1       7.069   7.194  17.485  0.00  0.00    +0.000 C 
BRANCH  18  19
ATOM     19  C   UNL     1       8.032   6.990  18.647  0.00  0.00    +0.000 C 
ATOM     20  O   UNL     1       8.131   5.946  19.283  0.00  0.00    +0.000 OA
BRANCH  19  21
ATOM     21  O   UNL     1       8.747   8.128  18.873  0.00  0.00    +0.000 OA
BRANCH  21  23
ATOM     22  C   UNL     1       9.153  10.503  18.403  0.00  0.00    +0.000 C 
ATOM     23  C   UNL     1       8.294   9.279  18.148  0.00  0.00    +0.000 C 
ENDBRANCH  21  23
ENDBRANCH  19  21
ENDBRANCH  18  19
ENDBRANCH   1  18
TORSDOF 5
ENDMDL
MODEL 5
REMARK VINA RESULT:      -7.2      0.826      1.064
REMARK  Name = 
REMARK  6 active torsions:
REMARK  status: ('A' for Active; 'I' for Inactive)
REMARK    1  A    between atoms: C_1  and  C_2
REMARK    2  A    between atoms: C_2  and  O_3
REMARK    3  A    between atoms: O_3  and  C_4
REMARK    4  A    between atoms: C_4  and  C_6
REMARK    5  A    between atoms: C_6  and  N_7
REMARK    6  A    between atoms: N_14  and  C_15
REMARK                            x       y       z     vdW  Elec       q    Type
REMARK                         _______ _______ _______ _____ _____    ______ ____
ROOT
ATOM      1  N   UNL     1       6.933   5.174  14.627  0.00  0.00    +0.000 N 
ATOM      2  C   UNL     1       6.680   5.681  15.903  0.00  0.00    +0.000 A 
ATOM      3  N   UNL     1       7.530   6.576  16.363  0.00  0.00    +0.000 NA
ATOM      4  C   UNL     1       7.240   7.009  17.581  0.00  0.00    +0.000 A 
ATOM      5 CL   UNL     1       8.384   8.060  18.294  0.00  0.00    +0.000 Cl
ATOM      6  N   UNL     1       6.187   6.713  18.329  0.00  0.00    +0.000 NA
ATOM      7  C   UNL     1       5.384   5.831  17.765  0.00  0.00    +0.000 A 
ATOM      8  N   UNL     1       4.209   5.519  18.447  0.00  0.00    +0.000 N 
ATOM      9  N   UNL     1       5.617   5.271  16.579  0.00  0.00    +0.000 NA
ATOM     10  H   UNL     1       6.727   5.947  13.994  0.00  0.00    +0.000 HD
ATOM     11  H   UNL     1       4.162   6.017  19.326  0.00  0.00    +0.000 HD
ENDROOT
BRANCH   8  12
ATOM     12  C   UNL     1       3.476   4.323  18.412  0.00  0.00    +0.000 A 
ATOM     13  C   UNL     1       4.075   3.070  18.583  0.00  0.00    +0.000 A 
ATOM     14  C   UNL     1       3.315   1.899  18.545  0.00  0.00    +0.000 A 
ATOM     15  C   UNL     1       1.947   1.970  18.312  0.00  0.00    +0.000 A 
ATOM     16  C   UNL     1       1.332   3.208  18.136  0.00  0.00    +0.000 A 
ATOM     17  C   UNL     1       2.093   4.378  18.193  0.00  0.00    +0.000 A 
ENDBRANCH   8  12
BRANCH   1  18
ATOM     18  C   UNL     1       6.142   3.984  14.271  0.00  0.00    +0.000 C 
BRANCH  18  19
ATOM     19  C   UNL     1       6.268   3.626  12.797  0.00  0.00    +0.000 C 
ATOM     20  O   UNL     1       7.086   4.129  12.034  0.00  0.00    +0.000 OA
BRANCH  19  21
ATOM     21  O   UNL     1       5.344   2.682  12.459  0.00  0.00    +0.000 OA
BRANCH  21  23
ATOM     22  C   UNL     1       6.341   0.854  11.161  0.00  0.00    +0.000 C 
ATOM     23  C   UNL     1       5.506   2.120  11.151  0.00  0.00    +0.000 C 
ENDBRANCH  21  23
ENDBRANCH  19  21
ENDBRANCH  18  19
ENDBRANCH   1  18
TORSDOF 5
ENDMDL
MODEL 6
REMARK VINA RESULT:      -7.2      2.371      5.930
REMARK  Name = 
REMARK  6 active torsions:
REMARK  status: ('A' for Active; 'I' for Inactive)
REMARK    1  A    between atoms: C_1  and  C_2
REMARK    2  A    between atoms: C_2  and  O_3
REMARK    3  A    between atoms: O_3  and  C_4
REMARK    4  A    between atoms: C_4  and  C_6
REMARK    5  A    between atoms: C_6  and  N_7
REMARK    6  A    between atoms: N_14  and  C_15
REMARK                            x       y       z     vdW  Elec       q    Type
REMARK                         _______ _______ _______ _____ _____    ______ ____
ROOT
ATOM      1  N   UNL     1       4.896   3.686  18.030  0.00  0.00    +0.000 N 
ATOM      2  C   UNL     1       5.734   4.470  17.234  0.00  0.00    +0.000 A 
ATOM      3  N   UNL     1       6.309   5.501  17.818  0.00  0.00    +0.000 NA
ATOM      4  C   UNL     1       7.082   6.209  17.007  0.00  0.00    +0.000 A 
ATOM      5 CL   UNL     1       7.739   7.643  17.664  0.00  0.00    +0.000 Cl
ATOM      6  N   UNL     1       7.392   5.960  15.744  0.00  0.00    +0.000 NA
ATOM      7  C   UNL     1       6.787   4.890  15.263  0.00  0.00    +0.000 A 
ATOM      8  N   UNL     1       7.116   4.507  13.964  0.00  0.00    +0.000 N 
ATOM      9  N   UNL     1       5.930   4.149  15.964  0.00  0.00    +0.000 NA
ATOM     10  H   UNL     1       5.525   3.195  18.666  0.00  0.00    +0.000 HD
ATOM     11  H   UNL     1       7.777   5.155  13.557  0.00  0.00    +0.000 HD
ENDROOT
BRANCH   8  12
ATOM     12  C   UNL     1       6.322   3.818  13.035  0.00  0.00    +0.000 A 
ATOM     13  C   UNL     1       4.969   4.118  12.836  0.00  0.00    +0.000 A 
ATOM     14  C   UNL     1       4.209   3.414  11.900  0.00  0.00    +0.000 A 
ATOM     15  C   UNL     1       4.791   2.385  11.168  0.00  0.00    +0.000 A 
ATOM     16  C   UNL     1       6.135   2.071  11.355  0.00  0.00    +0.000 A 
ATOM     17  C   UNL     1       6.897   2.789  12.278  0.00  0.00    +0.000 A 
ENDBRANCH   8  12
BRANCH   1  18
ATOM     18  C   UNL     1       4.058   2.732  17.284  0.00  0.00    +0.000 C 
BRANCH  18  19
ATOM     19  C   UNL     1       2.598   2.785  17.715  0.00  0.00    +0.000 C 
ATOM     20  O   UNL     1       1.764   3.540  17.228  0.00  0.00    +0.000 OA
BRANCH  19  21
ATOM     21  O   UNL     1       2.368   1.886  18.713  0.00  0.00    +0.000 OA
BRANCH  21  23
ATOM     22  C   UNL     1       2.523   2.987  20.901  0.00  0.00    +0.000 C 
ATOM     23  C   UNL     1       1.627   2.399  19.828  0.00  0.00    +0.000 C 
ENDBRANCH  21  23
ENDBRANCH  19  21
ENDBRANCH  18  19
ENDBRANCH   1  18
TORSDOF 5
ENDMDL
MODEL 7
REMARK VINA RESULT:      -7.1      3.994      5.673
REMARK  Name = 
REMARK  6 active torsions:
REMARK  status: ('A' for Active; 'I' for Inactive)
REMARK    1  A    between atoms: C_1  and  C_2
REMARK    2  A    between atoms: C_2  and  O_3
REMARK    3  A    between atoms: O_3  and  C_4
REMARK    4  A    between atoms: C_4  and  C_6
REMARK    5  A    between atoms: C_6  and  N_7
REMARK    6  A    between atoms: N_14  and  C_15
REMARK                            x       y       z     vdW  Elec       q    Type
REMARK                         _______ _______ _______ _____ _____    ______ ____
ROOT
ATOM      1  N   UNL     1       5.287   3.531  18.823  0.00  0.00    +0.000 N 
ATOM      2  C   UNL     1       4.168   3.770  19.623  0.00  0.00    +0.000 A 
ATOM      3  N   UNL     1       3.720   2.755  20.332  0.00  0.00    +0.000 NA
ATOM      4  C   UNL     1       2.652   3.044  21.061  0.00  0.00    +0.000 A 
ATOM      5 CL   UNL     1       1.934   1.732  21.889  0.00  0.00    +0.000 Cl
ATOM      6  N   UNL     1       2.054   4.216  21.212  0.00  0.00    +0.000 NA
ATOM      7  C   UNL     1       2.597   5.172  20.482  0.00  0.00    +0.000 A 
ATOM      8  N   UNL     1       2.081   6.457  20.637  0.00  0.00    +0.000 N 
ATOM      9  N   UNL     1       3.623   4.977  19.655  0.00  0.00    +0.000 NA
ATOM     10  H   UNL     1       6.060   3.426  19.481  0.00  0.00    +0.000 HD
ATOM     11  H   UNL     1       1.313   6.457  21.295  0.00  0.00    +0.000 HD
ENDROOT
BRANCH   8  12
ATOM     12  C   UNL     1       2.049   7.499  19.699  0.00  0.00    +0.000 A 
ATOM     13  C   UNL     1       1.375   8.703  19.936  0.00  0.00    +0.000 A 
ATOM     14  C   UNL     1       1.366   9.722  18.981  0.00  0.00    +0.000 A 
ATOM     15  C   UNL     1       2.013   9.536  17.765  0.00  0.00    +0.000 A 
ATOM     16  C   UNL     1       2.687   8.344  17.510  0.00  0.00    +0.000 A 
ATOM     17  C   UNL     1       2.710   7.335  18.474  0.00  0.00    +0.000 A 
ENDBRANCH   8  12
BRANCH   1  18
ATOM     18  C   UNL     1       5.577   4.589  17.841  0.00  0.00    +0.000 C 
BRANCH  18  19
ATOM     19  C   UNL     1       7.060   4.676  17.505  0.00  0.00    +0.000 C 
ATOM     20  O   UNL     1       7.961   4.463  18.310  0.00  0.00    +0.000 OA
BRANCH  19  21
ATOM     21  O   UNL     1       7.229   5.026  16.199  0.00  0.00    +0.000 OA
BRANCH  21  23
ATOM     22  C   UNL     1       6.146   4.018  14.242  0.00  0.00    +0.000 C 
ATOM     23  C   UNL     1       6.036   4.984  15.405  0.00  0.00    +0.000 C 
ENDBRANCH  21  23
ENDBRANCH  19  21
ENDBRANCH  18  19
ENDBRANCH   1  18
TORSDOF 5
ENDMDL
MODEL 8
REMARK VINA RESULT:      -7.1      2.367      5.820
REMARK  Name = 
REMARK  6 active torsions:
REMARK  status: ('A' for Active; 'I' for Inactive)
REMARK    1  A    between atoms: C_1  and  C_2
REMARK    2  A    between atoms: C_2  and  O_3
REMARK    3  A    between atoms: O_3  and  C_4
REMARK    4  A    between atoms: C_4  and  C_6
REMARK    5  A    between atoms: C_6  and  N_7
REMARK    6  A    between atoms: N_14  and  C_15
REMARK                            x       y       z     vdW  Elec       q    Type
REMARK                         _______ _______ _______ _____ _____    ______ ____
ROOT
ATOM      1  N   UNL     1       4.885   3.687  18.017  0.00  0.00    +0.000 N 
ATOM      2  C   UNL     1       5.731   4.463  17.223  0.00  0.00    +0.000 A 
ATOM      3  N   UNL     1       6.310   5.493  17.805  0.00  0.00    +0.000 NA
ATOM      4  C   UNL     1       7.091   6.192  16.996  0.00  0.00    +0.000 A 
ATOM      5 CL   UNL     1       7.754   7.626  17.650  0.00  0.00    +0.000 Cl
ATOM      6  N   UNL     1       7.406   5.937  15.735  0.00  0.00    +0.000 NA
ATOM      7  C   UNL     1       6.797   4.869  15.256  0.00  0.00    +0.000 A 
ATOM      8  N   UNL     1       7.130   4.479  13.960  0.00  0.00    +0.000 N 
ATOM      9  N   UNL     1       5.932   4.136  15.955  0.00  0.00    +0.000 NA
ATOM     10  H   UNL     1       5.508   3.195  18.658  0.00  0.00    +0.000 HD
ATOM     11  H   UNL     1       7.797   5.121  13.553  0.00  0.00    +0.000 HD
ENDROOT
BRANCH   8  12
ATOM     12  C   UNL     1       6.337   3.791  13.029  0.00  0.00    +0.000 A 
ATOM     13  C   UNL     1       6.841   2.757  12.232  0.00  0.00    +0.000 A 
ATOM     14  C   UNL     1       6.023   2.090  11.318  0.00  0.00    +0.000 A 
ATOM     15  C   UNL     1       4.693   2.469  11.175  0.00  0.00    +0.000 A 
ATOM     16  C   UNL     1       4.174   3.497  11.958  0.00  0.00    +0.000 A 
ATOM     17  C   UNL     1       4.990   4.149  12.884  0.00  0.00    +0.000 A 
ENDBRANCH   8  12
BRANCH   1  18
ATOM     18  C   UNL     1       4.045   2.735  17.272  0.00  0.00    +0.000 C 
BRANCH  18  19
ATOM     19  C   UNL     1       2.584   2.795  17.699  0.00  0.00    +0.000 C 
ATOM     20  O   UNL     1       1.747   3.526  17.181  0.00  0.00    +0.000 OA
BRANCH  19  21
ATOM     21  O   UNL     1       2.358   1.933  18.730  0.00  0.00    +0.000 OA
BRANCH  21  23
ATOM     22  C   UNL     1       2.211   3.362  20.719  0.00  0.00    +0.000 C 
ATOM     23  C   UNL     1       1.493   2.436  19.757  0.00  0.00    +0.000 C 
ENDBRANCH  21  23
ENDBRANCH  19  21
ENDBRANCH  18  19
ENDBRANCH   1  18
TORSDOF 5
ENDMDL
MODEL 9
REMARK VINA RESULT:      -7.1      3.984      5.599
REMARK  Name = 
REMARK  6 active torsions:
REMARK  status: ('A' for Active; 'I' for Inactive)
REMARK    1  A    between atoms: C_1  and  C_2
REMARK    2  A    between atoms: C_2  and  O_3
REMARK    3  A    between atoms: O_3  and  C_4
REMARK    4  A    between atoms: C_4  and  C_6
REMARK    5  A    between atoms: C_6  and  N_7
REMARK    6  A    between atoms: N_14  and  C_15
REMARK                            x       y       z     vdW  Elec       q    Type
REMARK                         _______ _______ _______ _____ _____    ______ ____
ROOT
ATOM      1  N   UNL     1       5.389   3.718  18.839  0.00  0.00    +0.000 N 
ATOM      2  C   UNL     1       4.241   3.906  19.611  0.00  0.00    +0.000 A 
ATOM      3  N   UNL     1       3.806   2.864  20.289  0.00  0.00    +0.000 NA
ATOM      4  C   UNL     1       2.710   3.105  20.992  0.00  0.00    +0.000 A 
ATOM      5 CL   UNL     1       2.012   1.756  21.776  0.00  0.00    +0.000 Cl
ATOM      6  N   UNL     1       2.071   4.255  21.148  0.00  0.00    +0.000 NA
ATOM      7  C   UNL     1       2.602   5.241  20.450  0.00  0.00    +0.000 A 
ATOM      8  N   UNL     1       2.042   6.506  20.615  0.00  0.00    +0.000 N 
ATOM      9  N   UNL     1       3.657   5.095  19.649  0.00  0.00    +0.000 NA
ATOM     10  H   UNL     1       6.146   3.625  19.516  0.00  0.00    +0.000 HD
ATOM     11  H   UNL     1       1.256   6.470  21.251  0.00  0.00    +0.000 HD
ENDROOT
BRANCH   8  12
ATOM     12  C   UNL     1       2.002   7.564  19.694  0.00  0.00    +0.000 A 
ATOM     13  C   UNL     1       2.613   7.489  18.437  0.00  0.00    +0.000 A 
ATOM     14  C   UNL     1       2.551   8.560  17.543  0.00  0.00    +0.000 A 
ATOM     15  C   UNL     1       1.895   9.729  17.909  0.00  0.00    +0.000 A 
ATOM     16  C   UNL     1       1.283   9.824  19.157  0.00  0.00    +0.000 A 
ATOM     17  C   UNL     1       1.331   8.745  20.041  0.00  0.00    +0.000 A 
ENDBRANCH   8  12
BRANCH   1  18
ATOM     18  C   UNL     1       5.672   4.803  17.885  0.00  0.00    +0.000 C 
BRANCH  18  19
ATOM     19  C   UNL     1       7.090   4.735  17.336  0.00  0.00    +0.000 C 
ATOM     20  O   UNL     1       8.014   4.147  17.888  0.00  0.00    +0.000 OA
BRANCH  19  21
ATOM     21  O   UNL     1       7.176   5.422  16.162  0.00  0.00    +0.000 OA
BRANCH  21  23
ATOM     22  C   UNL     1       6.315   3.995  14.361  0.00  0.00    +0.000 C 
ATOM     23  C   UNL     1       6.089   5.200  15.253  0.00  0.00    +0.000 C 
ENDBRANCH  21  23
ENDBRANCH  19  21
ENDBRANCH  18  19
ENDBRANCH   1  18
TORSDOF 5
ENDMDL
