MODEL 1
REMARK VINA RESULT:      -7.3      0.000      0.000
REMARK  Name = 
REMARK  13 active torsions:
REMARK  status: ('A' for Active; 'I' for Inactive)
REMARK    1  A    between atoms: C_1  and  O_2
REMARK    2  A    between atoms: O_2  and  C_3
REMARK    3  A    between atoms: C_9  and  C_10
REMARK    4  A    between atoms: C_10  and  C_11
REMARK    5  A    between atoms: N_13  and  CA_14
REMARK    6  A    between atoms: CA_14  and  C_15
REMARK    7  A    between atoms: CA_14  and  CB_17
REMARK    8  A    between atoms: C_15  and  O_16
REMARK    9  A    between atoms: CB_17  and  CG_18
REMARK   10  A    between atoms: CG_18  and  CD1_19
REMARK   11  A    between atoms: CG_18  and  CD2_20
REMARK   12  A    between atoms: C_21  and  C_22
REMARK   13  A    between atoms: C_24  and  C_26
REMARK                            x       y       z     vdW  Elec       q    Type
REMARK                         _______ _______ _______ _____ _____    ______ ____
ROOT
ATOM      1  C   UNK A   0      -2.684  10.905  16.683  0.00  0.00    +0.000 A 
ATOM      2  C   UNK A   0      -1.866   9.794  16.810  0.00  0.00    +0.000 A 
ATOM      3  C   UNK A   0      -1.180   9.542  17.998  0.00  0.00    +0.000 A 
ATOM      4  C   UNK A   0      -1.257  10.467  19.062  0.00  0.00    +0.000 A 
ATOM      5  C   UNK A   0      -2.109  11.574  18.966  0.00  0.00    +0.000 A 
ATOM      6  C   UNK A   0      -2.812  11.796  17.756  0.00  0.00    +0.000 A 
ATOM      7  C   UNK A   0      -2.107  12.233  20.232  0.00  0.00    +0.000 A 
ATOM      8  C   UNK A   0      -1.188  11.564  21.035  0.00  0.00    +0.000 A 
ATOM      9  C   UNK A   0      -0.776  11.872  22.440  0.00  0.00    +0.000 C 
ATOM     10  N   UNK A   0      -0.631  10.506  20.313  0.00  0.00    +0.000 N 
ATOM     11  C   UNK A   0       0.380   9.623  20.789  0.00  0.00    +0.000 C 
ATOM     12  O   UNK A   0       0.505   9.494  22.007  0.00  0.00    +0.000 OA
ENDROOT
BRANCH  11  13
ATOM     13  C   UNK A   0       1.309   8.838  19.941  0.00  0.00    +0.000 A 
ATOM     14  C   UNK A   0       1.789   9.342  18.725  0.00  0.00    +0.000 A 
ATOM     15  C   UNK A   0       2.551   8.527  17.885  0.00  0.00    +0.000 A 
ATOM     16  C   UNK A   0       2.887   7.234  18.292  0.00  0.00    +0.000 A 
ATOM     17 CL   UNK A   0       3.765   6.210  17.226  0.00  0.00    +0.000 Cl
ATOM     18  C   UNK A   0       2.499   6.764  19.545  0.00  0.00    +0.000 A 
ATOM     19  C   UNK A   0       1.710   7.565  20.373  0.00  0.00    +0.000 A 
ENDBRANCH  11  13
BRANCH   1  21
ATOM     20  C   UNK A   0      -3.446  10.209  14.558  0.00  0.00    +0.000 C 
ATOM     21  O   UNK A   0      -3.396  11.224  15.557  0.00  0.00    +0.000 OA
ENDBRANCH   1  21
BRANCH   7  22
ATOM     22  C   UNK A   0      -2.992  13.384  20.622  0.00  0.00    +0.000 C 
BRANCH  22  23
ATOM     23  C   UNK A   0      -4.237  13.060  21.435  0.00  0.00    +0.000 C 
ATOM     24  O   UNK A   0      -4.173  12.970  22.661  0.00  0.00    +0.000 OA
ATOM     25  N   LEU A   1      -5.419  12.866  20.758  0.00  0.00    +0.000 N 
ATOM     26  H   LEU A   1      -5.474  13.112  19.777  0.00  0.00    +0.000 HD
BRANCH  25  27
ATOM     27  CA  LEU A   1      -6.666  12.577  21.467  0.00  0.00    +0.000 C 
BRANCH  27  28
ATOM     28  C   LEU A   1      -7.414  13.888  21.790  0.00  0.00    +0.000 C 
BRANCH  28  29
ATOM     29  O   LEU A   1      -7.571  14.694  20.621  0.00  0.00    +0.000 OA
ATOM     30  H   LEU A   1      -8.117  14.174  20.006  0.00  0.00    +0.000 HD
ENDBRANCH  28  29
ENDBRANCH  27  28
BRANCH  27  31
ATOM     31  CB  LEU A   1      -7.559  11.627  20.647  0.00  0.00    +0.000 C 
BRANCH  31  32
ATOM     32  CG  LEU A   1      -6.841  10.430  19.987  0.00  0.00    +0.000 C 
ATOM     33  CD1 LEU A   1      -7.487   9.083  20.312  0.00  0.00    +0.000 C 
ATOM     34  CD2 LEU A   1      -6.816  10.636  18.469  0.00  0.00    +0.000 C 
ENDBRANCH  31  32
ENDBRANCH  27  31
ENDBRANCH  25  27
ENDBRANCH  22  23
ENDBRANCH   7  22
TORSDOF 9
ENDMDL
MODEL 2
REMARK VINA RESULT:      -7.2      0.929      1.103
REMARK  Name = 
REMARK  13 active torsions:
REMARK  status: ('A' for Active; 'I' for Inactive)
REMARK    1  A    between atoms: C_1  and  O_2
REMARK    2  A    between atoms: O_2  and  C_3
REMARK    3  A    between atoms: C_9  and  C_10
REMARK    4  A    between atoms: C_10  and  C_11
REMARK    5  A    between atoms: N_13  and  CA_14
REMARK    6  A    between atoms: CA_14  and  C_15
REMARK    7  A    between atoms: CA_14  and  CB_17
REMARK    8  A    between atoms: C_15  and  O_16
REMARK    9  A    between atoms: CB_17  and  CG_18
REMARK   10  A    between atoms: CG_18  and  CD1_19
REMARK   11  A    between atoms: CG_18  and  CD2_20
REMARK   12  A    between atoms: C_21  and  C_22
REMARK   13  A    between atoms: C_24  and  C_26
REMARK                            x       y       z     vdW  Elec       q    Type
REMARK                         _______ _______ _______ _____ _____    ______ ____
ROOT
ATOM      1  C   UNK A   0      -2.458  10.940  16.659  0.00  0.00    +0.000 A 
ATOM      2  C   UNK A   0      -1.732   9.773  16.836  0.00  0.00    +0.000 A 
ATOM      3  C   UNK A   0      -1.093   9.505  18.047  0.00  0.00    +0.000 A 
ATOM      4  C   UNK A   0      -1.122  10.464  19.083  0.00  0.00    +0.000 A 
ATOM      5  C   UNK A   0      -1.883  11.630  18.935  0.00  0.00    +0.000 A 
ATOM      6  C   UNK A   0      -2.540  11.869  17.703  0.00  0.00    +0.000 A 
ATOM      7  C   UNK A   0      -1.857  12.324  20.182  0.00  0.00    +0.000 A 
ATOM      8  C   UNK A   0      -1.011  11.611  21.025  0.00  0.00    +0.000 A 
ATOM      9  C   UNK A   0      -0.607  11.927  22.431  0.00  0.00    +0.000 C 
ATOM     10  N   UNK A   0      -0.523  10.492  20.347  0.00  0.00    +0.000 N 
ATOM     11  C   UNK A   0       0.406   9.548  20.871  0.00  0.00    +0.000 C 
ATOM     12  O   UNK A   0       0.494   9.445  22.096  0.00  0.00    +0.000 OA
ENDROOT
BRANCH  11  13
ATOM     13  C   UNK A   0       1.291   8.669  20.069  0.00  0.00    +0.000 A 
ATOM     14  C   UNK A   0       1.841   9.101  18.855  0.00  0.00    +0.000 A 
ATOM     15  C   UNK A   0       2.556   8.206  18.056  0.00  0.00    +0.000 A 
ATOM     16  C   UNK A   0       2.775   6.901  18.502  0.00  0.00    +0.000 A 
ATOM     17 CL   UNK A   0       3.593   5.783  17.486  0.00  0.00    +0.000 Cl
ATOM     18  C   UNK A   0       2.318   6.496  19.755  0.00  0.00    +0.000 A 
ATOM     19  C   UNK A   0       1.576   7.379  20.542  0.00  0.00    +0.000 A 
ENDBRANCH  11  13
BRANCH   1  21
ATOM     20  C   UNK A   0      -3.436  10.192  14.642  0.00  0.00    +0.000 C 
ATOM     21  O   UNK A   0      -3.118  11.279  15.507  0.00  0.00    +0.000 OA
ENDBRANCH   1  21
BRANCH   7  22
ATOM     22  C   UNK A   0      -2.659  13.551  20.519  0.00  0.00    +0.000 C 
BRANCH  22  23
ATOM     23  C   UNK A   0      -4.150  13.364  20.757  0.00  0.00    +0.000 C 
ATOM     24  O   UNK A   0      -4.580  13.184  21.896  0.00  0.00    +0.000 OA
ATOM     25  N   LEU A   1      -4.988  13.395  19.666  0.00  0.00    +0.000 N 
ATOM     26  H   LEU A   1      -4.629  13.711  18.774  0.00  0.00    +0.000 HD
BRANCH  25  27
ATOM     27  CA  LEU A   1      -6.437  13.249  19.813  0.00  0.00    +0.000 C 
BRANCH  27  28
ATOM     28  C   LEU A   1      -7.165  14.427  19.130  0.00  0.00    +0.000 C 
BRANCH  28  29
ATOM     29  O   LEU A   1      -6.462  14.860  17.963  0.00  0.00    +0.000 OA
ATOM     30  H   LEU A   1      -5.906  14.111  17.690  0.00  0.00    +0.000 HD
ENDBRANCH  28  29
ENDBRANCH  27  28
BRANCH  27  31
ATOM     31  CB  LEU A   1      -6.917  11.904  19.239  0.00  0.00    +0.000 C 
BRANCH  31  32
ATOM     32  CG  LEU A   1      -7.715  11.004  20.207  0.00  0.00    +0.000 C 
ATOM     33  CD1 LEU A   1      -7.255   9.546  20.196  0.00  0.00    +0.000 C 
ATOM     34  CD2 LEU A   1      -7.599  11.570  21.626  0.00  0.00    +0.000 C 
ENDBRANCH  31  32
ENDBRANCH  27  31
ENDBRANCH  25  27
ENDBRANCH  22  23
ENDBRANCH   7  22
TORSDOF 9
ENDMDL
MODEL 3
REMARK VINA RESULT:      -7.1      3.670      8.430
REMARK  Name = 
REMARK  13 active torsions:
REMARK  status: ('A' for Active; 'I' for Inactive)
REMARK    1  A    between atoms: C_1  and  O_2
REMARK    2  A    between atoms: O_2  and  C_3
REMARK    3  A    between atoms: C_9  and  C_10
REMARK    4  A    between atoms: C_10  and  C_11
REMARK    5  A    between atoms: N_13  and  CA_14
REMARK    6  A    between atoms: CA_14  and  C_15
REMARK    7  A    between atoms: CA_14  and  CB_17
REMARK    8  A    between atoms: C_15  and  O_16
REMARK    9  A    between atoms: CB_17  and  CG_18
REMARK   10  A    between atoms: CG_18  and  CD1_19
REMARK   11  A    between atoms: CG_18  and  CD2_20
REMARK   12  A    between atoms: C_21  and  C_22
REMARK   13  A    between atoms: C_24  and  C_26
REMARK                            x       y       z     vdW  Elec       q    Type
REMARK                         _______ _______ _______ _____ _____    ______ ____
ROOT
ATOM      1  C   UNK A   0      -2.866  10.385  17.220  0.00  0.00    +0.000 A 
ATOM      2  C   UNK A   0      -3.419  11.351  18.045  0.00  0.00    +0.000 A 
ATOM      3  C   UNK A   0      -2.674  11.922  19.078  0.00  0.00    +0.000 A 
ATOM      4  C   UNK A   0      -1.365  11.461  19.336  0.00  0.00    +0.000 A 
ATOM      5  C   UNK A   0      -0.777  10.516  18.487  0.00  0.00    +0.000 A 
ATOM      6  C   UNK A   0      -1.547   9.966  17.433  0.00  0.00    +0.000 A 
ATOM      7  C   UNK A   0       0.585  10.364  18.888  0.00  0.00    +0.000 A 
ATOM      8  C   UNK A   0       0.764  11.151  20.021  0.00  0.00    +0.000 A 
ATOM      9  C   UNK A   0       1.993  11.319  20.857  0.00  0.00    +0.000 C 
ATOM     10  N   UNK A   0      -0.436  11.795  20.328  0.00  0.00    +0.000 N 
ATOM     11  C   UNK A   0      -0.653  12.650  21.446  0.00  0.00    +0.000 C 
ATOM     12  O   UNK A   0       0.329  13.193  21.955  0.00  0.00    +0.000 OA
ENDROOT
BRANCH  11  13
ATOM     13  C   UNK A   0      -1.967  12.948  22.063  0.00  0.00    +0.000 A 
ATOM     14  C   UNK A   0      -2.516  12.116  23.048  0.00  0.00    +0.000 A 
ATOM     15  C   UNK A   0      -3.814  12.346  23.511  0.00  0.00    +0.000 A 
ATOM     16  C   UNK A   0      -4.535  13.443  23.037  0.00  0.00    +0.000 A 
ATOM     17 CL   UNK A   0      -6.156  13.681  23.555  0.00  0.00    +0.000 Cl
ATOM     18  C   UNK A   0      -3.956  14.333  22.133  0.00  0.00    +0.000 A 
ATOM     19  C   UNK A   0      -2.671  14.088  21.645  0.00  0.00    +0.000 A 
ENDBRANCH  11  13
BRANCH   1  21
ATOM     20  C   UNK A   0      -3.034  10.091  14.881  0.00  0.00    +0.000 C 
ATOM     21  O   UNK A   0      -3.523   9.778  16.183  0.00  0.00    +0.000 OA
ENDBRANCH   1  21
BRANCH   7  22
ATOM     22  C   UNK A   0       1.626   9.557  18.163  0.00  0.00    +0.000 C 
BRANCH  22  23
ATOM     23  C   UNK A   0       2.057   8.243  18.801  0.00  0.00    +0.000 C 
ATOM     24  O   UNK A   0       1.691   7.956  19.940  0.00  0.00    +0.000 OA
ATOM     25  N   LEU A   1       2.866   7.405  18.069  0.00  0.00    +0.000 N 
ATOM     26  H   LEU A   1       3.009   7.589  17.084  0.00  0.00    +0.000 HD
BRANCH  25  27
ATOM     27  CA  LEU A   1       3.303   6.113  18.600  0.00  0.00    +0.000 C 
BRANCH  27  28
ATOM     28  C   LEU A   1       2.192   5.056  18.417  0.00  0.00    +0.000 C 
BRANCH  28  29
ATOM     29  O   LEU A   1       1.540   4.774  19.656  0.00  0.00    +0.000 OA
ATOM     30  H   LEU A   1       0.808   4.169  19.445  0.00  0.00    +0.000 HD
ENDBRANCH  28  29
ENDBRANCH  27  28
BRANCH  27  31
ATOM     31  CB  LEU A   1       4.610   5.653  17.926  0.00  0.00    +0.000 C 
BRANCH  31  32
ATOM     32  CG  LEU A   1       5.291   6.687  17.004  0.00  0.00    +0.000 C 
ATOM     33  CD1 LEU A   1       6.728   7.010  17.415  0.00  0.00    +0.000 C 
ATOM     34  CD2 LEU A   1       5.274   6.163  15.564  0.00  0.00    +0.000 C 
ENDBRANCH  31  32
ENDBRANCH  27  31
ENDBRANCH  25  27
ENDBRANCH  22  23
ENDBRANCH   7  22
TORSDOF 9
ENDMDL
MODEL 4
REMARK VINA RESULT:      -7.1      0.877      1.229
REMARK  Name = 
REMARK  13 active torsions:
REMARK  status: ('A' for Active; 'I' for Inactive)
REMARK    1  A    between atoms: C_1  and  O_2
REMARK    2  A    between atoms: O_2  and  C_3
REMARK    3  A    between atoms: C_9  and  C_10
REMARK    4  A    between atoms: C_10  and  C_11
REMARK    5  A    between atoms: N_13  and  CA_14
REMARK    6  A    between atoms: CA_14  and  C_15
REMARK    7  A    between atoms: CA_14  and  CB_17
REMARK    8  A    between atoms: C_15  and  O_16
REMARK    9  A    between atoms: CB_17  and  CG_18
REMARK   10  A    between atoms: CG_18  and  CD1_19
REMARK   11  A    between atoms: CG_18  and  CD2_20
REMARK   12  A    between atoms: C_21  and  C_22
REMARK   13  A    between atoms: C_24  and  C_26
REMARK                            x       y       z     vdW  Elec       q    Type
REMARK                         _______ _______ _______ _____ _____    ______ ____
ROOT
ATOM      1  C   UNK A   0      -2.742  10.932  16.853  0.00  0.00    +0.000 A 
ATOM      2  C   UNK A   0      -1.928   9.811  16.857  0.00  0.00    +0.000 A 
ATOM      3  C   UNK A   0      -1.163   9.486  17.978  0.00  0.00    +0.000 A 
ATOM      4  C   UNK A   0      -1.158  10.348  19.097  0.00  0.00    +0.000 A 
ATOM      5  C   UNK A   0      -2.005  11.462  19.125  0.00  0.00    +0.000 A 
ATOM      6  C   UNK A   0      -2.788  11.758  17.982  0.00  0.00    +0.000 A 
ATOM      7  C   UNK A   0      -1.908  12.045  20.424  0.00  0.00    +0.000 A 
ATOM      8  C   UNK A   0      -0.942  11.326  21.121  0.00  0.00    +0.000 A 
ATOM      9  C   UNK A   0      -0.430  11.549  22.508  0.00  0.00    +0.000 C 
ATOM     10  N   UNK A   0      -0.446  10.309  20.301  0.00  0.00    +0.000 N 
ATOM     11  C   UNK A   0       0.587   9.395  20.653  0.00  0.00    +0.000 C 
ATOM     12  O   UNK A   0       0.795   9.193  21.850  0.00  0.00    +0.000 OA
ENDROOT
BRANCH  11  13
ATOM     13  C   UNK A   0       1.448   8.656  19.698  0.00  0.00    +0.000 A 
ATOM     14  C   UNK A   0       1.885   7.352  19.968  0.00  0.00    +0.000 A 
ATOM     15  C   UNK A   0       2.804   6.735  19.117  0.00  0.00    +0.000 A 
ATOM     16  C   UNK A   0       3.235   7.395  17.965  0.00  0.00    +0.000 A 
ATOM     17 CL   UNK A   0       4.420   6.662  16.959  0.00  0.00    +0.000 Cl
ATOM     18  C   UNK A   0       2.726   8.651  17.639  0.00  0.00    +0.000 A 
ATOM     19  C   UNK A   0       1.831   9.284  18.503  0.00  0.00    +0.000 A 
ENDBRANCH  11  13
BRANCH   1  21
ATOM     20  C   UNK A   0      -3.604  10.392  14.720  0.00  0.00    +0.000 C 
ATOM     21  O   UNK A   0      -3.527  11.320  15.800  0.00  0.00    +0.000 OA
ENDBRANCH   1  21
BRANCH   7  22
ATOM     22  C   UNK A   0      -2.753  13.177  20.941  0.00  0.00    +0.000 C 
BRANCH  22  23
ATOM     23  C   UNK A   0      -3.935  12.813  21.829  0.00  0.00    +0.000 C 
ATOM     24  O   UNK A   0      -3.750  12.286  22.925  0.00  0.00    +0.000 OA
ATOM     25  N   LEU A   1      -5.201  13.084  21.363  0.00  0.00    +0.000 N 
ATOM     26  H   LEU A   1      -5.312  13.666  20.541  0.00  0.00    +0.000 HD
BRANCH  25  27
ATOM     27  CA  LEU A   1      -6.388  12.789  22.165  0.00  0.00    +0.000 C 
BRANCH  27  28
ATOM     28  C   LEU A   1      -6.968  14.090  22.760  0.00  0.00    +0.000 C 
BRANCH  28  29
ATOM     29  O   LEU A   1      -6.632  14.219  24.143  0.00  0.00    +0.000 OA
ATOM     30  H   LEU A   1      -5.766  13.789  24.251  0.00  0.00    +0.000 HD
ENDBRANCH  28  29
ENDBRANCH  27  28
BRANCH  27  31
ATOM     31  CB  LEU A   1      -7.450  12.051  21.328  0.00  0.00    +0.000 C 
BRANCH  31  32
ATOM     32  CG  LEU A   1      -6.936  11.361  20.046  0.00  0.00    +0.000 C 
ATOM     33  CD1 LEU A   1      -7.297   9.877  19.972  0.00  0.00    +0.000 C 
ATOM     34  CD2 LEU A   1      -7.503  12.090  18.824  0.00  0.00    +0.000 C 
ENDBRANCH  31  32
ENDBRANCH  27  31
ENDBRANCH  25  27
ENDBRANCH  22  23
ENDBRANCH   7  22
TORSDOF 9
ENDMDL
MODEL 5
REMARK VINA RESULT:      -7.1      3.666      8.413
REMARK  Name = 
REMARK  13 active torsions:
REMARK  status: ('A' for Active; 'I' for Inactive)
REMARK    1  A    between atoms: C_1  and  O_2
REMARK    2  A    between atoms: O_2  and  C_3
REMARK    3  A    between atoms: C_9  and  C_10
REMARK    4  A    between atoms: C_10  and  C_11
REMARK    5  A    between atoms: N_13  and  CA_14
REMARK    6  A    between atoms: CA_14  and  C_15
REMARK    7  A    between atoms: CA_14  and  CB_17
REMARK    8  A    between atoms: C_15  and  O_16
REMARK    9  A    between atoms: CB_17  and  CG_18
REMARK   10  A    between atoms: CG_18  and  CD1_19
REMARK   11  A    between atoms: CG_18  and  CD2_20
REMARK   12  A    between atoms: C_21  and  C_22
REMARK   13  A    between atoms: C_24  and  C_26
REMARK                            x       y       z     vdW  Elec       q    Type
REMARK                         _______ _______ _______ _____ _____    ______ ____
ROOT
ATOM      1  C   UNK A   0      -2.893  10.269  17.012  0.00  0.00    +0.000 A 
ATOM      2  C   UNK A   0      -3.541  11.231  17.771  0.00  0.00    +0.000 A 
ATOM      3  C   UNK A   0      -2.880  11.884  18.813  0.00  0.00    +0.000 A 
ATOM      4  C   UNK A   0      -1.561  11.512  19.149  0.00  0.00    +0.000 A 
ATOM      5  C   UNK A   0      -0.879  10.572  18.367  0.00  0.00    +0.000 A 
ATOM      6  C   UNK A   0      -1.565   9.938  17.302  0.00  0.00    +0.000 A 
ATOM      7  C   UNK A   0       0.468  10.516  18.836  0.00  0.00    +0.000 A 
ATOM      8  C   UNK A   0       0.548  11.355  19.943  0.00  0.00    +0.000 A 
ATOM      9  C   UNK A   0       1.723  11.628  20.827  0.00  0.00    +0.000 C 
ATOM     10  N   UNK A   0      -0.701  11.938  20.168  0.00  0.00    +0.000 N 
ATOM     11  C   UNK A   0      -1.020  12.821  21.239  0.00  0.00    +0.000 C 
ATOM     12  O   UNK A   0      -0.097  13.440  21.770  0.00  0.00    +0.000 OA
ENDROOT
BRANCH  11  13
ATOM     13  C   UNK A   0      -2.378  13.063  21.783  0.00  0.00    +0.000 A 
ATOM     14  C   UNK A   0      -3.197  14.080  21.274  0.00  0.00    +0.000 A 
ATOM     15  C   UNK A   0      -4.412  14.373  21.896  0.00  0.00    +0.000 A 
ATOM     16  C   UNK A   0      -4.837  13.609  22.984  0.00  0.00    +0.000 A 
ATOM     17 CL   UNK A   0      -6.298  14.018  23.791  0.00  0.00    +0.000 Cl
ATOM     18  C   UNK A   0      -4.074  12.531  23.431  0.00  0.00    +0.000 A 
ATOM     19  C   UNK A   0      -2.844  12.255  22.831  0.00  0.00    +0.000 A 
ENDBRANCH  11  13
BRANCH   1  21
ATOM     20  C   UNK A   0      -3.371  10.218  14.699  0.00  0.00    +0.000 C 
ATOM     21  O   UNK A   0      -3.464   9.585  15.972  0.00  0.00    +0.000 OA
ENDBRANCH   1  21
BRANCH   7  22
ATOM     22  C   UNK A   0       1.588   9.745  18.193  0.00  0.00    +0.000 C 
BRANCH  22  23
ATOM     23  C   UNK A   0       1.936   8.391  18.794  0.00  0.00    +0.000 C 
ATOM     24  O   UNK A   0       1.807   8.196  20.002  0.00  0.00    +0.000 OA
ATOM     25  N   LEU A   1       2.401   7.409  17.950  0.00  0.00    +0.000 N 
ATOM     26  H   LEU A   1       2.336   7.545  16.948  0.00  0.00    +0.000 HD
BRANCH  25  27
ATOM     27  CA  LEU A   1       2.733   6.073  18.444  0.00  0.00    +0.000 C 
BRANCH  27  28
ATOM     28  C   LEU A   1       1.785   5.023  17.825  0.00  0.00    +0.000 C 
BRANCH  28  29
ATOM     29  O   LEU A   1       1.699   3.857  18.647  0.00  0.00    +0.000 OA
ATOM     30  H   LEU A   1       1.480   4.173  19.540  0.00  0.00    +0.000 HD
ENDBRANCH  28  29
ENDBRANCH  27  28
BRANCH  27  31
ATOM     31  CB  LEU A   1       4.203   5.724  18.146  0.00  0.00    +0.000 C 
BRANCH  31  32
ATOM     32  CG  LEU A   1       4.508   5.271  16.703  0.00  0.00    +0.000 C 
ATOM     33  CD1 LEU A   1       5.208   6.343  15.867  0.00  0.00    +0.000 C 
ATOM     34  CD2 LEU A   1       5.374   4.007  16.747  0.00  0.00    +0.000 C 
ENDBRANCH  31  32
ENDBRANCH  27  31
ENDBRANCH  25  27
ENDBRANCH  22  23
ENDBRANCH   7  22
TORSDOF 9
ENDMDL
MODEL 6
REMARK VINA RESULT:      -7.1      0.833      1.202
REMARK  Name = 
REMARK  13 active torsions:
REMARK  status: ('A' for Active; 'I' for Inactive)
REMARK    1  A    between atoms: C_1  and  O_2
REMARK    2  A    between atoms: O_2  and  C_3
REMARK    3  A    between atoms: C_9  and  C_10
REMARK    4  A    between atoms: C_10  and  C_11
REMARK    5  A    between atoms: N_13  and  CA_14
REMARK    6  A    between atoms: CA_14  and  C_15
REMARK    7  A    between atoms: CA_14  and  CB_17
REMARK    8  A    between atoms: C_15  and  O_16
REMARK    9  A    between atoms: CB_17  and  CG_18
REMARK   10  A    between atoms: CG_18  and  CD1_19
REMARK   11  A    between atoms: CG_18  and  CD2_20
REMARK   12  A    between atoms: C_21  and  C_22
REMARK   13  A    between atoms: C_24  and  C_26
REMARK                            x       y       z     vdW  Elec       q    Type
REMARK                         _______ _______ _______ _____ _____    ______ ____
ROOT
ATOM      1  C   UNK A   0      -3.314  10.845  17.044  0.00  0.00    +0.000 A 
ATOM      2  C   UNK A   0      -2.476   9.753  17.203  0.00  0.00    +0.000 A 
ATOM      3  C   UNK A   0      -1.605   9.671  18.290  0.00  0.00    +0.000 A 
ATOM      4  C   UNK A   0      -1.520  10.745  19.203  0.00  0.00    +0.000 A 
ATOM      5  C   UNK A   0      -2.388  11.837  19.079  0.00  0.00    +0.000 A 
ATOM      6  C   UNK A   0      -3.277  11.886  17.978  0.00  0.00    +0.000 A 
ATOM      7  C   UNK A   0      -2.188  12.677  20.216  0.00  0.00    +0.000 A 
ATOM      8  C   UNK A   0      -1.146  12.123  20.953  0.00  0.00    +0.000 A 
ATOM      9  C   UNK A   0      -0.517  12.630  22.211  0.00  0.00    +0.000 C 
ATOM     10  N   UNK A   0      -0.702  10.961  20.318  0.00  0.00    +0.000 N 
ATOM     11  C   UNK A   0       0.381  10.144  20.752  0.00  0.00    +0.000 C 
ATOM     12  O   UNK A   0       0.701  10.196  21.940  0.00  0.00    +0.000 OA
ENDROOT
BRANCH  11  13
ATOM     13  C   UNK A   0       1.170   9.228  19.893  0.00  0.00    +0.000 A 
ATOM     14  C   UNK A   0       1.523   7.944  20.328  0.00  0.00    +0.000 A 
ATOM     15  C   UNK A   0       2.381   7.158  19.556  0.00  0.00    +0.000 A 
ATOM     16  C   UNK A   0       2.831   7.630  18.322  0.00  0.00    +0.000 A 
ATOM     17 CL   UNK A   0       3.942   6.690  17.407  0.00  0.00    +0.000 Cl
ATOM     18  C   UNK A   0       2.401   8.864  17.837  0.00  0.00    +0.000 A 
ATOM     19  C   UNK A   0       1.569   9.666  18.621  0.00  0.00    +0.000 A 
ENDBRANCH  11  13
BRANCH   1  21
ATOM     20  C   UNK A   0      -3.818  10.395  14.780  0.00  0.00    +0.000 C 
ATOM     21  O   UNK A   0      -4.200  11.002  16.011  0.00  0.00    +0.000 OA
ENDBRANCH   1  21
BRANCH   7  22
ATOM     22  C   UNK A   0      -3.011  13.887  20.567  0.00  0.00    +0.000 C 
BRANCH  22  23
ATOM     23  C   UNK A   0      -4.436  13.645  21.041  0.00  0.00    +0.000 C 
ATOM     24  O   UNK A   0      -4.649  13.205  22.170  0.00  0.00    +0.000 OA
ATOM     25  N   LEU A   1      -5.464  13.926  20.170  0.00  0.00    +0.000 N 
ATOM     26  H   LEU A   1      -5.267  14.441  19.321  0.00  0.00    +0.000 HD
BRANCH  25  27
ATOM     27  CA  LEU A   1      -6.863  13.746  20.558  0.00  0.00    +0.000 C 
BRANCH  27  28
ATOM     28  C   LEU A   1      -7.644  15.064  20.371  0.00  0.00    +0.000 C 
BRANCH  28  29
ATOM     29  O   LEU A   1      -6.974  15.935  19.459  0.00  0.00    +0.000 OA
ATOM     30  H   LEU A   1      -7.648  16.556  19.133  0.00  0.00    +0.000 HD
ENDBRANCH  28  29
ENDBRANCH  27  28
BRANCH  27  31
ATOM     31  CB  LEU A   1      -7.516  12.606  19.754  0.00  0.00    +0.000 C 
BRANCH  31  32
ATOM     32  CG  LEU A   1      -6.965  11.190  20.024  0.00  0.00    +0.000 C 
ATOM     33  CD1 LEU A   1      -7.896  10.331  20.881  0.00  0.00    +0.000 C 
ATOM     34  CD2 LEU A   1      -6.705  10.490  18.686  0.00  0.00    +0.000 C 
ENDBRANCH  31  32
ENDBRANCH  27  31
ENDBRANCH  25  27
ENDBRANCH  22  23
ENDBRANCH   7  22
TORSDOF 9
ENDMDL
MODEL 7
REMARK VINA RESULT:      -6.8      3.656      8.320
REMARK  Name = 
REMARK  13 active torsions:
REMARK  status: ('A' for Active; 'I' for Inactive)
REMARK    1  A    between atoms: C_1  and  O_2
REMARK    2  A    between atoms: O_2  and  C_3
REMARK    3  A    between atoms: C_9  and  C_10
REMARK    4  A    between atoms: C_10  and  C_11
REMARK    5  A    between atoms: N_13  and  CA_14
REMARK    6  A    between atoms: CA_14  and  C_15
REMARK    7  A    between atoms: CA_14  and  CB_17
REMARK    8  A    between atoms: C_15  and  O_16
REMARK    9  A    between atoms: CB_17  and  CG_18
REMARK   10  A    between atoms: CG_18  and  CD1_19
REMARK   11  A    between atoms: CG_18  and  CD2_20
REMARK   12  A    between atoms: C_21  and  C_22
REMARK   13  A    between atoms: C_24  and  C_26
REMARK                            x       y       z     vdW  Elec       q    Type
REMARK                         _______ _______ _______ _____ _____    ______ ____
ROOT
ATOM      1  C   UNK A   0      -3.013  10.366  16.989  0.00  0.00    +0.000 A 
ATOM      2  C   UNK A   0      -3.655  11.340  17.737  0.00  0.00    +0.000 A 
ATOM      3  C   UNK A   0      -2.992  12.001  18.771  0.00  0.00    +0.000 A 
ATOM      4  C   UNK A   0      -1.675  11.626  19.113  0.00  0.00    +0.000 A 
ATOM      5  C   UNK A   0      -0.998  10.673  18.342  0.00  0.00    +0.000 A 
ATOM      6  C   UNK A   0      -1.687  10.031  17.284  0.00  0.00    +0.000 A 
ATOM      7  C   UNK A   0       0.348  10.614  18.813  0.00  0.00    +0.000 A 
ATOM      8  C   UNK A   0       0.432  11.465  19.911  0.00  0.00    +0.000 A 
ATOM      9  C   UNK A   0       1.608  11.742  20.793  0.00  0.00    +0.000 C 
ATOM     10  N   UNK A   0      -0.814  12.058  20.128  0.00  0.00    +0.000 N 
ATOM     11  C   UNK A   0      -1.129  12.955  21.189  0.00  0.00    +0.000 C 
ATOM     12  O   UNK A   0      -0.203  13.574  21.713  0.00  0.00    +0.000 OA
ENDROOT
BRANCH  11  13
ATOM     13  C   UNK A   0      -2.486  13.211  21.729  0.00  0.00    +0.000 A 
ATOM     14  C   UNK A   0      -3.253  14.298  21.287  0.00  0.00    +0.000 A 
ATOM     15  C   UNK A   0      -4.467  14.593  21.911  0.00  0.00    +0.000 A 
ATOM     16  C   UNK A   0      -4.943  13.765  22.929  0.00  0.00    +0.000 A 
ATOM     17 CL   UNK A   0      -6.401  14.171  23.743  0.00  0.00    +0.000 Cl
ATOM     18  C   UNK A   0      -4.233  12.624  23.303  0.00  0.00    +0.000 A 
ATOM     19  C   UNK A   0      -3.004  12.344  22.703  0.00  0.00    +0.000 A 
ENDBRANCH  11  13
BRANCH   1  21
ATOM     20  C   UNK A   0      -3.167  10.063  14.651  0.00  0.00    +0.000 C 
ATOM     21  O   UNK A   0      -3.587   9.673  15.956  0.00  0.00    +0.000 OA
ENDBRANCH   1  21
BRANCH   7  22
ATOM     22  C   UNK A   0       1.464   9.830  18.180  0.00  0.00    +0.000 C 
BRANCH  22  23
ATOM     23  C   UNK A   0       1.922   8.568  18.897  0.00  0.00    +0.000 C 
ATOM     24  O   UNK A   0       1.678   8.409  20.093  0.00  0.00    +0.000 OA
ATOM     25  N   LEU A   1       2.616   7.628  18.172  0.00  0.00    +0.000 N 
ATOM     26  H   LEU A   1       2.653   7.708  17.163  0.00  0.00    +0.000 HD
BRANCH  25  27
ATOM     27  CA  LEU A   1       3.069   6.376  18.780  0.00  0.00    +0.000 C 
BRANCH  27  28
ATOM     28  C   LEU A   1       1.926   5.735  19.597  0.00  0.00    +0.000 C 
BRANCH  28  29
ATOM     29  O   LEU A   1       2.294   5.584  20.969  0.00  0.00    +0.000 OA
ATOM     30  H   LEU A   1       3.198   5.934  21.046  0.00  0.00    +0.000 HD
ENDBRANCH  28  29
ENDBRANCH  27  28
BRANCH  27  31
ATOM     31  CB  LEU A   1       3.589   5.399  17.709  0.00  0.00    +0.000 C 
BRANCH  31  32
ATOM     32  CG  LEU A   1       4.787   4.519  18.127  0.00  0.00    +0.000 C 
ATOM     33  CD1 LEU A   1       5.662   5.159  19.205  0.00  0.00    +0.000 C 
ATOM     34  CD2 LEU A   1       4.265   3.166  18.623  0.00  0.00    +0.000 C 
ENDBRANCH  31  32
ENDBRANCH  27  31
ENDBRANCH  25  27
ENDBRANCH  22  23
ENDBRANCH   7  22
TORSDOF 9
ENDMDL
MODEL 8
REMARK VINA RESULT:      -6.7      3.700      8.103
REMARK  Name = 
REMARK  13 active torsions:
REMARK  status: ('A' for Active; 'I' for Inactive)
REMARK    1  A    between atoms: C_1  and  O_2
REMARK    2  A    between atoms: O_2  and  C_3
REMARK    3  A    between atoms: C_9  and  C_10
REMARK    4  A    between atoms: C_10  and  C_11
REMARK    5  A    between atoms: N_13  and  CA_14
REMARK    6  A    between atoms: CA_14  and  C_15
REMARK    7  A    between atoms: CA_14  and  CB_17
REMARK    8  A    between atoms: C_15  and  O_16
REMARK    9  A    between atoms: CB_17  and  CG_18
REMARK   10  A    between atoms: CG_18  and  CD1_19
REMARK   11  A    between atoms: CG_18  and  CD2_20
REMARK   12  A    between atoms: C_21  and  C_22
REMARK   13  A    between atoms: C_24  and  C_26
REMARK                            x       y       z     vdW  Elec       q    Type
REMARK                         _______ _______ _______ _____ _____    ______ ____
ROOT
ATOM      1  C   UNK A   0      -2.628  10.227  17.054  0.00  0.00    +0.000 A 
ATOM      2  C   UNK A   0      -3.193  11.266  17.777  0.00  0.00    +0.000 A 
ATOM      3  C   UNK A   0      -2.502  11.861  18.833  0.00  0.00    +0.000 A 
ATOM      4  C   UNK A   0      -1.243  11.354  19.222  0.00  0.00    +0.000 A 
ATOM      5  C   UNK A   0      -0.641  10.333  18.477  0.00  0.00    +0.000 A 
ATOM      6  C   UNK A   0      -1.355   9.759  17.396  0.00  0.00    +0.000 A 
ATOM      7  C   UNK A   0       0.675  10.139  18.995  0.00  0.00    +0.000 A 
ATOM      8  C   UNK A   0       0.807  10.983  20.093  0.00  0.00    +0.000 A 
ATOM      9  C   UNK A   0       1.974  11.142  21.015  0.00  0.00    +0.000 C 
ATOM     10  N   UNK A   0      -0.378  11.702  20.265  0.00  0.00    +0.000 N 
ATOM     11  C   UNK A   0      -0.635  12.631  21.313  0.00  0.00    +0.000 C 
ATOM     12  O   UNK A   0       0.331  13.155  21.869  0.00  0.00    +0.000 OA
ENDROOT
BRANCH  11  13
ATOM     13  C   UNK A   0      -1.977  13.028  21.805  0.00  0.00    +0.000 A 
ATOM     14  C   UNK A   0      -2.686  12.232  22.714  0.00  0.00    +0.000 A 
ATOM     15  C   UNK A   0      -4.000  12.562  23.051  0.00  0.00    +0.000 A 
ATOM     16  C   UNK A   0      -4.580  13.721  22.532  0.00  0.00    +0.000 A 
ATOM     17 CL   UNK A   0      -6.220  14.085  22.893  0.00  0.00    +0.000 Cl
ATOM     18  C   UNK A   0      -3.844  14.571  21.708  0.00  0.00    +0.000 A 
ATOM     19  C   UNK A   0      -2.541  14.227  21.343  0.00  0.00    +0.000 A 
ENDBRANCH  11  13
BRANCH   1  21
ATOM     20  C   UNK A   0      -3.310  10.344  14.795  0.00  0.00    +0.000 C 
ATOM     21  O   UNK A   0      -3.234   9.592  16.003  0.00  0.00    +0.000 OA
ENDBRANCH   1  21
BRANCH   7  22
ATOM     22  C   UNK A   0       1.726   9.241  18.403  0.00  0.00    +0.000 C 
BRANCH  22  23
ATOM     23  C   UNK A   0       1.994   7.921  19.112  0.00  0.00    +0.000 C 
ATOM     24  O   UNK A   0       1.848   7.830  20.330  0.00  0.00    +0.000 OA
ATOM     25  N   LEU A   1       2.409   6.852  18.353  0.00  0.00    +0.000 N 
ATOM     26  H   LEU A   1       2.357   6.911  17.343  0.00  0.00    +0.000 HD
BRANCH  25  27
ATOM     27  CA  LEU A   1       2.663   5.542  18.955  0.00  0.00    +0.000 C 
BRANCH  27  28
ATOM     28  C   LEU A   1       4.129   5.447  19.430  0.00  0.00    +0.000 C 
BRANCH  28  29
ATOM     29  O   LEU A   1       4.562   4.087  19.496  0.00  0.00    +0.000 OA
ATOM     30  H   LEU A   1       4.383   3.704  18.621  0.00  0.00    +0.000 HD
ENDBRANCH  28  29
ENDBRANCH  27  28
BRANCH  27  31
ATOM     31  CB  LEU A   1       1.693   5.274  20.121  0.00  0.00    +0.000 C 
BRANCH  31  32
ATOM     32  CG  LEU A   1       0.994   3.898  20.112  0.00  0.00    +0.000 C 
ATOM     33  CD1 LEU A   1       1.189   3.128  18.805  0.00  0.00    +0.000 C 
ATOM     34  CD2 LEU A   1       1.519   3.062  21.284  0.00  0.00    +0.000 C 
ENDBRANCH  31  32
ENDBRANCH  27  31
ENDBRANCH  25  27
ENDBRANCH  22  23
ENDBRANCH   7  22
TORSDOF 9
ENDMDL
MODEL 9
REMARK VINA RESULT:      -6.7      2.184      3.818
REMARK  Name = 
REMARK  13 active torsions:
REMARK  status: ('A' for Active; 'I' for Inactive)
REMARK    1  A    between atoms: C_1  and  O_2
REMARK    2  A    between atoms: O_2  and  C_3
REMARK    3  A    between atoms: C_9  and  C_10
REMARK    4  A    between atoms: C_10  and  C_11
REMARK    5  A    between atoms: N_13  and  CA_14
REMARK    6  A    between atoms: CA_14  and  C_15
REMARK    7  A    between atoms: CA_14  and  CB_17
REMARK    8  A    between atoms: C_15  and  O_16
REMARK    9  A    between atoms: CB_17  and  CG_18
REMARK   10  A    between atoms: CG_18  and  CD1_19
REMARK   11  A    between atoms: CG_18  and  CD2_20
REMARK   12  A    between atoms: C_21  and  C_22
REMARK   13  A    between atoms: C_24  and  C_26
REMARK                            x       y       z     vdW  Elec       q    Type
REMARK                         _______ _______ _______ _____ _____    ______ ____
ROOT
ATOM      1  C   UNK A   0      -3.295  10.779  17.025  0.00  0.00    +0.000 A 
ATOM      2  C   UNK A   0      -2.463   9.685  17.201  0.00  0.00    +0.000 A 
ATOM      3  C   UNK A   0      -1.576   9.625  18.276  0.00  0.00    +0.000 A 
ATOM      4  C   UNK A   0      -1.468  10.723  19.158  0.00  0.00    +0.000 A 
ATOM      5  C   UNK A   0      -2.329  11.818  19.019  0.00  0.00    +0.000 A 
ATOM      6  C   UNK A   0      -3.235  11.845  17.931  0.00  0.00    +0.000 A 
ATOM      7  C   UNK A   0      -2.105  12.686  20.130  0.00  0.00    +0.000 A 
ATOM      8  C   UNK A   0      -1.056  12.143  20.865  0.00  0.00    +0.000 A 
ATOM      9  C   UNK A   0      -0.404  12.678  22.100  0.00  0.00    +0.000 C 
ATOM     10  N   UNK A   0      -0.631  10.961  20.254  0.00  0.00    +0.000 N 
ATOM     11  C   UNK A   0       0.452  10.147  20.693  0.00  0.00    +0.000 C 
ATOM     12  O   UNK A   0       0.790  10.228  21.875  0.00  0.00    +0.000 OA
ENDROOT
BRANCH  11  13
ATOM     13  C   UNK A   0       1.220   9.202  19.848  0.00  0.00    +0.000 A 
ATOM     14  C   UNK A   0       1.563   7.924  20.308  0.00  0.00    +0.000 A 
ATOM     15  C   UNK A   0       2.402   7.110  19.545  0.00  0.00    +0.000 A 
ATOM     16  C   UNK A   0       2.844   7.548  18.296  0.00  0.00    +0.000 A 
ATOM     17 CL   UNK A   0       3.934   6.574  17.391  0.00  0.00    +0.000 Cl
ATOM     18  C   UNK A   0       2.424   8.776  17.788  0.00  0.00    +0.000 A 
ATOM     19  C   UNK A   0       1.610   9.606  18.562  0.00  0.00    +0.000 A 
ENDBRANCH  11  13
BRANCH   1  21
ATOM     20  C   UNK A   0      -3.781  10.383  14.747  0.00  0.00    +0.000 C 
ATOM     21  O   UNK A   0      -4.195  10.917  16.002  0.00  0.00    +0.000 OA
ENDBRANCH   1  21
BRANCH   7  22
ATOM     22  C   UNK A   0      -2.913  13.911  20.460  0.00  0.00    +0.000 C 
BRANCH  22  23
ATOM     23  C   UNK A   0      -3.801  13.847  21.694  0.00  0.00    +0.000 C 
ATOM     24  O   UNK A   0      -4.889  13.275  21.647  0.00  0.00    +0.000 OA
ATOM     25  N   LEU A   1      -3.353  14.452  22.846  0.00  0.00    +0.000 N 
ATOM     26  H   LEU A   1      -2.391  14.764  22.900  0.00  0.00    +0.000 HD
BRANCH  25  27
ATOM     27  CA  LEU A   1      -4.136  14.414  24.082  0.00  0.00    +0.000 C 
BRANCH  27  28
ATOM     28  C   LEU A   1      -3.991  13.036  24.763  0.00  0.00    +0.000 C 
BRANCH  28  29
ATOM     29  O   LEU A   1      -5.201  12.283  24.665  0.00  0.00    +0.000 OA
ATOM     30  H   LEU A   1      -5.095  11.522  25.262  0.00  0.00    +0.000 HD
ENDBRANCH  28  29
ENDBRANCH  27  28
BRANCH  27  31
ATOM     31  CB  LEU A   1      -3.711  15.543  25.038  0.00  0.00    +0.000 C 
BRANCH  31  32
ATOM     32  CG  LEU A   1      -2.269  16.067  24.864  0.00  0.00    +0.000 C 
ATOM     33  CD1 LEU A   1      -2.186  17.591  24.774  0.00  0.00    +0.000 C 
ATOM     34  CD2 LEU A   1      -1.412  15.573  26.034  0.00  0.00    +0.000 C 
ENDBRANCH  31  32
ENDBRANCH  27  31
ENDBRANCH  25  27
ENDBRANCH  22  23
ENDBRANCH   7  22
TORSDOF 9
ENDMDL
