MODEL 1
REMARK VINA RESULT:      -8.4      0.000      0.000
REMARK  Name = 
REMARK  9 active torsions:
REMARK  status: ('A' for Active; 'I' for Inactive)
REMARK    1  A    between atoms: C_1  and  N_2
REMARK    2  A    between atoms: N_2  and  C_3
REMARK    3  A    between atoms: C_3  and  C_4
REMARK    4  A    between atoms: N_6  and  C_7
REMARK    5  A    between atoms: C_7  and  C_8
REMARK    6  A    between atoms: C_8  and  C_9
REMARK    7  A    between atoms: C_9  and  N_10
REMARK    8  A    between atoms: N_10  and  C_25
REMARK    9  A    between atoms: N_16  and  C_17
REMARK                            x       y       z     vdW  Elec       q    Type
REMARK                         _______ _______ _______ _____ _____    ______ ____
ROOT
ATOM      1  N   UNL     1       3.078   6.063  18.863  0.00  0.00    +0.000 N 
ATOM      2  C   UNL     1       2.523   7.354  18.790  0.00  0.00    +0.000 A 
ATOM      3  C   UNL     1       2.544   8.099  17.493  0.00  0.00    +0.000 A 
ATOM      4  C   UNL     1       1.870   9.241  17.385  0.00  0.00    +0.000 A 
ATOM      5  C   UNL     1       1.109   9.769  18.528  0.00  0.00    +0.000 A 
ATOM      6  O   UNL     1       0.413  10.765  18.342  0.00  0.00    +0.000 OA
ATOM      7  N   UNL     1       1.319   9.111  19.732  0.00  0.00    +0.000 N 
ATOM      8  N   UNL     1       1.990   7.906  19.852  0.00  0.00    +0.000 NA
ENDROOT
BRANCH   7   9
ATOM      9  C   UNL     1       0.576   9.458  20.894  0.00  0.00    +0.000 A 
ATOM     10  C   UNL     1      -0.188   8.475  21.549  0.00  0.00    +0.000 A 
ATOM     11  C   UNL     1      -0.908   8.778  22.706  0.00  0.00    +0.000 A 
ATOM     12  C   UNL     1      -0.893  10.076  23.212  0.00  0.00    +0.000 A 
ATOM     13  C   UNL     1      -0.154  11.065  22.566  0.00  0.00    +0.000 A 
ATOM     14  C   UNL     1       0.588  10.763  21.417  0.00  0.00    +0.000 A 
ATOM     15 CL   UNL     1       1.380  12.077  20.616  0.00  0.00    +0.000 Cl
ENDBRANCH   7   9
BRANCH   1  16
ATOM     16  C   UNL     1       2.480   5.011  19.634  0.00  0.00    +0.000 A 
ATOM     17  C   UNL     1       2.814   4.851  21.001  0.00  0.00    +0.000 A 
ATOM     18  C   UNL     1       2.278   3.834  21.801  0.00  0.00    +0.000 A 
ATOM     19  C   UNL     1       1.337   2.964  21.278  0.00  0.00    +0.000 A 
ATOM     20  C   UNL     1       0.965   3.089  19.946  0.00  0.00    +0.000 A 
ATOM     21  C   UNL     1       1.549   4.069  19.120  0.00  0.00    +0.000 A 
ATOM     22 CL   UNL     1       1.172   3.891  17.433  0.00  0.00    +0.000 Cl
ENDBRANCH   1  16
BRANCH   1  23
ATOM     23  C   UNL     1       4.232   5.681  18.022  0.00  0.00    +0.000 C 
BRANCH  23  24
ATOM     24  C   UNL     1       5.464   5.304  18.854  0.00  0.00    +0.000 C 
BRANCH  24  25
ATOM     25  C   UNL     1       6.544   4.583  18.052  0.00  0.00    +0.000 C 
BRANCH  25  28
ATOM     26  C   UNL     1       6.534   4.608  15.580  0.00  0.00    +0.000 C 
ATOM     27  O   UNL     1       7.508   5.353  15.495  0.00  0.00    +0.000 OA
ATOM     28  N   UNL     1       6.037   4.136  16.770  0.00  0.00    +0.000 N 
ATOM     29  H   UNL     1       5.163   3.618  16.731  0.00  0.00    +0.000 HD
BRANCH  26  30
ATOM     30  C   UNL     1       5.777   4.108  14.347  0.00  0.00    +0.000 C 
BRANCH  30  32
ATOM     31  C   UNL     1       6.983   4.121  12.242  0.00  0.00    +0.000 C 
ATOM     32  N   UNL     1       6.652   3.339  13.435  0.00  0.00    +0.000 NA
ATOM     33  H   UNL     1       7.523   3.139  13.930  0.00  0.00    +0.000 HD
ENDBRANCH  30  32
ENDBRANCH  26  30
ENDBRANCH  25  28
ENDBRANCH  24  25
ENDBRANCH  23  24
ENDBRANCH   1  23
TORSDOF 8
ENDMDL
MODEL 2
REMARK VINA RESULT:      -8.3      2.072      2.797
REMARK  Name = 
REMARK  9 active torsions:
REMARK  status: ('A' for Active; 'I' for Inactive)
REMARK    1  A    between atoms: C_1  and  N_2
REMARK    2  A    between atoms: N_2  and  C_3
REMARK    3  A    between atoms: C_3  and  C_4
REMARK    4  A    between atoms: N_6  and  C_7
REMARK    5  A    between atoms: C_7  and  C_8
REMARK    6  A    between atoms: C_8  and  C_9
REMARK    7  A    between atoms: C_9  and  N_10
REMARK    8  A    between atoms: N_10  and  C_25
REMARK    9  A    between atoms: N_16  and  C_17
REMARK                            x       y       z     vdW  Elec       q    Type
REMARK                         _______ _______ _______ _____ _____    ______ ____
ROOT
ATOM      1  N   UNL     1       3.312   5.732  19.043  0.00  0.00    +0.000 N 
ATOM      2  C   UNL     1       2.826   7.046  18.908  0.00  0.00    +0.000 A 
ATOM      3  C   UNL     1       3.003   7.773  17.612  0.00  0.00    +0.000 A 
ATOM      4  C   UNL     1       2.395   8.943  17.432  0.00  0.00    +0.000 A 
ATOM      5  C   UNL     1       1.556   9.519  18.494  0.00  0.00    +0.000 A 
ATOM      6  O   UNL     1       0.926  10.543  18.235  0.00  0.00    +0.000 OA
ATOM      7  N   UNL     1       1.621   8.867  19.717  0.00  0.00    +0.000 N 
ATOM      8  N   UNL     1       2.222   7.635  19.910  0.00  0.00    +0.000 NA
ENDROOT
BRANCH   7   9
ATOM      9  C   UNL     1       0.790   9.262  20.802  0.00  0.00    +0.000 A 
ATOM     10  C   UNL     1      -0.060   8.317  21.404  0.00  0.00    +0.000 A 
ATOM     11  C   UNL     1      -0.870   8.667  22.487  0.00  0.00    +0.000 A 
ATOM     12  C   UNL     1      -0.858   9.974  22.967  0.00  0.00    +0.000 A 
ATOM     13  C   UNL     1      -0.033  10.926  22.371  0.00  0.00    +0.000 A 
ATOM     14  C   UNL     1       0.797  10.577  21.298  0.00  0.00    +0.000 A 
ATOM     15 CL   UNL     1       1.699  11.848  20.547  0.00  0.00    +0.000 Cl
ENDBRANCH   7   9
BRANCH   1  16
ATOM     16  C   UNL     1       2.597   4.718  19.762  0.00  0.00    +0.000 A 
ATOM     17  C   UNL     1       2.910   4.452  21.118  0.00  0.00    +0.000 A 
ATOM     18  C   UNL     1       2.260   3.463  21.869  0.00  0.00    +0.000 A 
ATOM     19  C   UNL     1       1.225   2.735  21.308  0.00  0.00    +0.000 A 
ATOM     20  C   UNL     1       0.871   2.969  19.985  0.00  0.00    +0.000 A 
ATOM     21  C   UNL     1       1.564   3.917  19.207  0.00  0.00    +0.000 A 
ATOM     22 CL   UNL     1       1.169   3.870  17.515  0.00  0.00    +0.000 Cl
ENDBRANCH   1  16
BRANCH   1  23
ATOM     23  C   UNL     1       4.521   5.288  18.317  0.00  0.00    +0.000 C 
BRANCH  23  24
ATOM     24  C   UNL     1       5.766   5.267  19.211  0.00  0.00    +0.000 C 
BRANCH  24  25
ATOM     25  C   UNL     1       7.076   5.377  18.436  0.00  0.00    +0.000 C 
BRANCH  25  28
ATOM     26  C   UNL     1       7.408   7.662  17.553  0.00  0.00    +0.000 C 
ATOM     27  O   UNL     1       6.648   7.502  16.600  0.00  0.00    +0.000 OA
ATOM     28  N   UNL     1       7.628   6.714  18.522  0.00  0.00    +0.000 N 
ATOM     29  H   UNL     1       8.359   6.909  19.201  0.00  0.00    +0.000 HD
BRANCH  26  30
ATOM     30  C   UNL     1       8.184   8.965  17.770  0.00  0.00    +0.000 C 
BRANCH  30  32
ATOM     31  C   UNL     1       9.322  10.313  19.436  0.00  0.00    +0.000 C 
ATOM     32  N   UNL     1       8.933   8.956  19.046  0.00  0.00    +0.000 NA
ATOM     33  H   UNL     1       8.314   8.587  19.770  0.00  0.00    +0.000 HD
ENDBRANCH  30  32
ENDBRANCH  26  30
ENDBRANCH  25  28
ENDBRANCH  24  25
ENDBRANCH  23  24
ENDBRANCH   1  23
TORSDOF 8
ENDMDL
MODEL 3
REMARK VINA RESULT:      -7.9      1.938      2.280
REMARK  Name = 
REMARK  9 active torsions:
REMARK  status: ('A' for Active; 'I' for Inactive)
REMARK    1  A    between atoms: C_1  and  N_2
REMARK    2  A    between atoms: N_2  and  C_3
REMARK    3  A    between atoms: C_3  and  C_4
REMARK    4  A    between atoms: N_6  and  C_7
REMARK    5  A    between atoms: C_7  and  C_8
REMARK    6  A    between atoms: C_8  and  C_9
REMARK    7  A    between atoms: C_9  and  N_10
REMARK    8  A    between atoms: N_10  and  C_25
REMARK    9  A    between atoms: N_16  and  C_17
REMARK                            x       y       z     vdW  Elec       q    Type
REMARK                         _______ _______ _______ _____ _____    ______ ____
ROOT
ATOM      1  N   UNL     1       2.984   6.061  18.802  0.00  0.00    +0.000 N 
ATOM      2  C   UNL     1       2.455   7.364  18.756  0.00  0.00    +0.000 A 
ATOM      3  C   UNL     1       2.483   8.130  17.471  0.00  0.00    +0.000 A 
ATOM      4  C   UNL     1       1.832   9.288  17.388  0.00  0.00    +0.000 A 
ATOM      5  C   UNL     1       1.090   9.811  18.545  0.00  0.00    +0.000 A 
ATOM      6  O   UNL     1       0.412  10.824  18.381  0.00  0.00    +0.000 OA
ATOM      7  N   UNL     1       1.294   9.128  19.736  0.00  0.00    +0.000 N 
ATOM      8  N   UNL     1       1.941   7.909  19.830  0.00  0.00    +0.000 NA
ENDROOT
BRANCH   7   9
ATOM      9  C   UNL     1       0.566   9.470  20.909  0.00  0.00    +0.000 A 
ATOM     10  C   UNL     1      -0.205   8.489  21.558  0.00  0.00    +0.000 A 
ATOM     11  C   UNL     1      -0.910   8.787  22.726  0.00  0.00    +0.000 A 
ATOM     12  C   UNL     1      -0.873  10.078  23.248  0.00  0.00    +0.000 A 
ATOM     13  C   UNL     1      -0.127  11.065  22.608  0.00  0.00    +0.000 A 
ATOM     14  C   UNL     1       0.600  10.768  21.448  0.00  0.00    +0.000 A 
ATOM     15 CL   UNL     1       1.401  12.082  20.656  0.00  0.00    +0.000 Cl
ENDBRANCH   7   9
BRANCH   1  16
ATOM     16  C   UNL     1       2.370   5.007  19.559  0.00  0.00    +0.000 A 
ATOM     17  C   UNL     1       2.712   4.817  20.921  0.00  0.00    +0.000 A 
ATOM     18  C   UNL     1       2.160   3.797  21.707  0.00  0.00    +0.000 A 
ATOM     19  C   UNL     1       1.196   2.956  21.177  0.00  0.00    +0.000 A 
ATOM     20  C   UNL     1       0.817   3.113  19.849  0.00  0.00    +0.000 A 
ATOM     21  C   UNL     1       1.416   4.095  19.036  0.00  0.00    +0.000 A 
ATOM     22 CL   UNL     1       1.021   3.955  17.349  0.00  0.00    +0.000 Cl
ENDBRANCH   1  16
BRANCH   1  23
ATOM     23  C   UNL     1       4.124   5.670  17.947  0.00  0.00    +0.000 C 
BRANCH  23  24
ATOM     24  C   UNL     1       4.614   4.246  18.238  0.00  0.00    +0.000 C 
BRANCH  24  25
ATOM     25  C   UNL     1       5.853   4.197  19.128  0.00  0.00    +0.000 C 
BRANCH  25  28
ATOM     26  C   UNL     1       7.510   5.795  18.228  0.00  0.00    +0.000 C 
ATOM     27  O   UNL     1       7.800   5.090  17.264  0.00  0.00    +0.000 OA
ATOM     28  N   UNL     1       6.539   5.472  19.145  0.00  0.00    +0.000 N 
ATOM     29  H   UNL     1       6.460   6.071  19.962  0.00  0.00    +0.000 HD
BRANCH  26  30
ATOM     30  C   UNL     1       8.200   7.135  18.499  0.00  0.00    +0.000 C 
BRANCH  30  32
ATOM     31  C   UNL     1       8.258   9.496  17.940  0.00  0.00    +0.000 C 
ATOM     32  N   UNL     1       7.802   8.169  17.518  0.00  0.00    +0.000 NA
ATOM     33  H   UNL     1       8.254   7.950  16.630  0.00  0.00    +0.000 HD
ENDBRANCH  30  32
ENDBRANCH  26  30
ENDBRANCH  25  28
ENDBRANCH  24  25
ENDBRANCH  23  24
ENDBRANCH   1  23
TORSDOF 8
ENDMDL
MODEL 4
REMARK VINA RESULT:      -7.7      1.023      1.075
REMARK  Name = 
REMARK  9 active torsions:
REMARK  status: ('A' for Active; 'I' for Inactive)
REMARK    1  A    between atoms: C_1  and  N_2
REMARK    2  A    between atoms: N_2  and  C_3
REMARK    3  A    between atoms: C_3  and  C_4
REMARK    4  A    between atoms: N_6  and  C_7
REMARK    5  A    between atoms: C_7  and  C_8
REMARK    6  A    between atoms: C_8  and  C_9
REMARK    7  A    between atoms: C_9  and  N_10
REMARK    8  A    between atoms: N_10  and  C_25
REMARK    9  A    between atoms: N_16  and  C_17
REMARK                            x       y       z     vdW  Elec       q    Type
REMARK                         _______ _______ _______ _____ _____    ______ ____
ROOT
ATOM      1  N   UNL     1       3.115   5.899  18.839  0.00  0.00    +0.000 N 
ATOM      2  C   UNL     1       2.656   7.229  18.818  0.00  0.00    +0.000 A 
ATOM      3  C   UNL     1       2.776   8.035  17.563  0.00  0.00    +0.000 A 
ATOM      4  C   UNL     1       2.188   9.227  17.495  0.00  0.00    +0.000 A 
ATOM      5  C   UNL     1       1.427   9.750  18.640  0.00  0.00    +0.000 A 
ATOM      6  O   UNL     1       0.810  10.802  18.486  0.00  0.00    +0.000 OA
ATOM      7  N   UNL     1       1.547   9.018  19.813  0.00  0.00    +0.000 N 
ATOM      8  N   UNL     1       2.126   7.764  19.890  0.00  0.00    +0.000 NA
ENDROOT
BRANCH   7   9
ATOM      9  C   UNL     1       0.791   9.359  20.969  0.00  0.00    +0.000 A 
ATOM     10  C   UNL     1       1.341   9.145  22.245  0.00  0.00    +0.000 A 
ATOM     11  C   UNL     1       0.634   9.492  23.399  0.00  0.00    +0.000 A 
ATOM     12  C   UNL     1      -0.643  10.036  23.291  0.00  0.00    +0.000 A 
ATOM     13  C   UNL     1      -1.209  10.239  22.034  0.00  0.00    +0.000 A 
ATOM     14  C   UNL     1      -0.497   9.913  20.872  0.00  0.00    +0.000 A 
ATOM     15 CL   UNL     1      -1.322  10.090  19.362  0.00  0.00    +0.000 Cl
ENDBRANCH   7   9
BRANCH   1  16
ATOM     16  C   UNL     1       2.418   4.855  19.533  0.00  0.00    +0.000 A 
ATOM     17  C   UNL     1       2.668   4.623  20.908  0.00  0.00    +0.000 A 
ATOM     18  C   UNL     1       2.032   3.609  21.637  0.00  0.00    +0.000 A 
ATOM     19  C   UNL     1       1.072   2.818  21.030  0.00  0.00    +0.000 A 
ATOM     20  C   UNL     1       0.780   3.016  19.686  0.00  0.00    +0.000 A 
ATOM     21  C   UNL     1       1.463   3.991  18.933  0.00  0.00    +0.000 A 
ATOM     22 CL   UNL     1       1.167   3.901  17.223  0.00  0.00    +0.000 Cl
ENDBRANCH   1  16
BRANCH   1  23
ATOM     23  C   UNL     1       4.268   5.477  18.015  0.00  0.00    +0.000 C 
BRANCH  23  24
ATOM     24  C   UNL     1       5.180   4.486  18.748  0.00  0.00    +0.000 C 
BRANCH  24  25
ATOM     25  C   UNL     1       6.645   4.582  18.330  0.00  0.00    +0.000 C 
BRANCH  25  28
ATOM     26  C   UNL     1       7.168   5.248  16.008  0.00  0.00    +0.000 C 
ATOM     27  O   UNL     1       7.481   6.397  16.313  0.00  0.00    +0.000 OA
ATOM     28  N   UNL     1       6.811   4.287  16.921  0.00  0.00    +0.000 N 
ATOM     29  H   UNL     1       6.465   3.406  16.552  0.00  0.00    +0.000 HD
BRANCH  26  30
ATOM     30  C   UNL     1       7.164   4.759  14.556  0.00  0.00    +0.000 C 
BRANCH  30  32
ATOM     31  C   UNL     1       5.561   3.659  13.104  0.00  0.00    +0.000 C 
ATOM     32  N   UNL     1       6.289   3.581  14.373  0.00  0.00    +0.000 NA
ATOM     33  H   UNL     1       6.883   2.750  14.342  0.00  0.00    +0.000 HD
ENDBRANCH  30  32
ENDBRANCH  26  30
ENDBRANCH  25  28
ENDBRANCH  24  25
ENDBRANCH  23  24
ENDBRANCH   1  23
TORSDOF 8
ENDMDL
MODEL 5
REMARK VINA RESULT:      -7.7      0.913      1.091
REMARK  Name = 
REMARK  9 active torsions:
REMARK  status: ('A' for Active; 'I' for Inactive)
REMARK    1  A    between atoms: C_1  and  N_2
REMARK    2  A    between atoms: N_2  and  C_3
REMARK    3  A    between atoms: C_3  and  C_4
REMARK    4  A    between atoms: N_6  and  C_7
REMARK    5  A    between atoms: C_7  and  C_8
REMARK    6  A    between atoms: C_8  and  C_9
REMARK    7  A    between atoms: C_9  and  N_10
REMARK    8  A    between atoms: N_10  and  C_25
REMARK    9  A    between atoms: N_16  and  C_17
REMARK                            x       y       z     vdW  Elec       q    Type
REMARK                         _______ _______ _______ _____ _____    ______ ____
ROOT
ATOM      1  N   UNL     1       3.322   5.795  19.136  0.00  0.00    +0.000 N 
ATOM      2  C   UNL     1       2.837   7.108  18.993  0.00  0.00    +0.000 A 
ATOM      3  C   UNL     1       3.050   7.841  17.706  0.00  0.00    +0.000 A 
ATOM      4  C   UNL     1       2.444   9.010  17.513  0.00  0.00    +0.000 A 
ATOM      5  C   UNL     1       1.573   9.580  18.552  0.00  0.00    +0.000 A 
ATOM      6  O   UNL     1       0.948  10.603  18.279  0.00  0.00    +0.000 OA
ATOM      7  N   UNL     1       1.604   8.923  19.774  0.00  0.00    +0.000 N 
ATOM      8  N   UNL     1       2.202   7.692  19.979  0.00  0.00    +0.000 NA
ENDROOT
BRANCH   7   9
ATOM      9  C   UNL     1       0.740   9.311  20.835  0.00  0.00    +0.000 A 
ATOM     10  C   UNL     1      -0.110   8.356  21.422  0.00  0.00    +0.000 A 
ATOM     11  C   UNL     1      -0.952   8.700  22.482  0.00  0.00    +0.000 A 
ATOM     12  C   UNL     1      -0.972  10.010  22.954  0.00  0.00    +0.000 A 
ATOM     13  C   UNL     1      -0.148  10.971  22.373  0.00  0.00    +0.000 A 
ATOM     14  C   UNL     1       0.715  10.629  21.323  0.00  0.00    +0.000 A 
ATOM     15 CL   UNL     1       1.615  11.910  20.587  0.00  0.00    +0.000 Cl
ENDBRANCH   7   9
BRANCH   1  16
ATOM     16  C   UNL     1       2.589   4.776  19.831  0.00  0.00    +0.000 A 
ATOM     17  C   UNL     1       2.926   4.439  21.165  0.00  0.00    +0.000 A 
ATOM     18  C   UNL     1       2.260   3.442  21.889  0.00  0.00    +0.000 A 
ATOM     19  C   UNL     1       1.185   2.776  21.325  0.00  0.00    +0.000 A 
ATOM     20  C   UNL     1       0.806   3.081  20.024  0.00  0.00    +0.000 A 
ATOM     21  C   UNL     1       1.514   4.037  19.269  0.00  0.00    +0.000 A 
ATOM     22 CL   UNL     1       1.075   4.079  17.587  0.00  0.00    +0.000 Cl
ENDBRANCH   1  16
BRANCH   1  23
ATOM     23  C   UNL     1       4.553   5.358  18.445  0.00  0.00    +0.000 C 
BRANCH  23  24
ATOM     24  C   UNL     1       4.299   4.982  16.979  0.00  0.00    +0.000 C 
BRANCH  24  25
ATOM     25  C   UNL     1       5.411   5.430  16.034  0.00  0.00    +0.000 C 
BRANCH  25  28
ATOM     26  C   UNL     1       6.550   4.613  13.998  0.00  0.00    +0.000 C 
ATOM     27  O   UNL     1       7.559   5.291  14.182  0.00  0.00    +0.000 OA
ATOM     28  N   UNL     1       5.490   4.570  14.871  0.00  0.00    +0.000 N 
ATOM     29  H   UNL     1       4.663   4.065  14.566  0.00  0.00    +0.000 HD
BRANCH  26  30
ATOM     30  C   UNL     1       6.380   3.718  12.768  0.00  0.00    +0.000 C 
BRANCH  30  32
ATOM     31  C   UNL     1       4.634   3.126  11.190  0.00  0.00    +0.000 C 
ATOM     32  N   UNL     1       4.982   3.261  12.606  0.00  0.00    +0.000 NA
ATOM     33  H   UNL     1       4.901   2.339  13.038  0.00  0.00    +0.000 HD
ENDBRANCH  30  32
ENDBRANCH  26  30
ENDBRANCH  25  28
ENDBRANCH  24  25
ENDBRANCH  23  24
ENDBRANCH   1  23
TORSDOF 8
ENDMDL
MODEL 6
REMARK VINA RESULT:      -7.6      2.638      4.693
REMARK  Name = 
REMARK  9 active torsions:
REMARK  status: ('A' for Active; 'I' for Inactive)
REMARK    1  A    between atoms: C_1  and  N_2
REMARK    2  A    between atoms: N_2  and  C_3
REMARK    3  A    between atoms: C_3  and  C_4
REMARK    4  A    between atoms: N_6  and  C_7
REMARK    5  A    between atoms: C_7  and  C_8
REMARK    6  A    between atoms: C_8  and  C_9
REMARK    7  A    between atoms: C_9  and  N_10
REMARK    8  A    between atoms: N_10  and  C_25
REMARK    9  A    between atoms: N_16  and  C_17
REMARK                            x       y       z     vdW  Elec       q    Type
REMARK                         _______ _______ _______ _____ _____    ______ ____
ROOT
ATOM      1  N   UNL     1       5.116   4.657  17.492  0.00  0.00    +0.000 N 
ATOM      2  C   UNL     1       3.891   4.638  18.184  0.00  0.00    +0.000 A 
ATOM      3  C   UNL     1       3.254   3.330  18.530  0.00  0.00    +0.000 A 
ATOM      4  C   UNL     1       2.190   3.313  19.330  0.00  0.00    +0.000 A 
ATOM      5  C   UNL     1       1.644   4.567  19.871  0.00  0.00    +0.000 A 
ATOM      6  O   UNL     1       0.734   4.488  20.694  0.00  0.00    +0.000 OA
ATOM      7  N   UNL     1       2.181   5.727  19.331  0.00  0.00    +0.000 N 
ATOM      8  N   UNL     1       3.305   5.760  18.525  0.00  0.00    +0.000 NA
ENDROOT
BRANCH   7   9
ATOM      9  C   UNL     1       1.810   7.006  19.830  0.00  0.00    +0.000 A 
ATOM     10  C   UNL     1       1.453   7.146  21.183  0.00  0.00    +0.000 A 
ATOM     11  C   UNL     1       1.108   8.393  21.709  0.00  0.00    +0.000 A 
ATOM     12  C   UNL     1       1.092   9.514  20.883  0.00  0.00    +0.000 A 
ATOM     13  C   UNL     1       1.428   9.389  19.536  0.00  0.00    +0.000 A 
ATOM     14  C   UNL     1       1.796   8.146  19.006  0.00  0.00    +0.000 A 
ATOM     15 CL   UNL     1       2.083   8.064  17.302  0.00  0.00    +0.000 Cl
ENDBRANCH   7   9
BRANCH   1  16
ATOM     16  C   UNL     1       6.153   5.603  17.788  0.00  0.00    +0.000 A 
ATOM     17  C   UNL     1       7.078   5.343  18.828  0.00  0.00    +0.000 A 
ATOM     18  C   UNL     1       8.101   6.235  19.176  0.00  0.00    +0.000 A 
ATOM     19  C   UNL     1       8.277   7.404  18.455  0.00  0.00    +0.000 A 
ATOM     20  C   UNL     1       7.403   7.697  17.416  0.00  0.00    +0.000 A 
ATOM     21  C   UNL     1       6.334   6.835  17.104  0.00  0.00    +0.000 A 
ATOM     22 CL   UNL     1       5.194   7.500  15.972  0.00  0.00    +0.000 Cl
ENDBRANCH   1  16
BRANCH   1  23
ATOM     23  C   UNL     1       5.457   3.598  16.519  0.00  0.00    +0.000 C 
BRANCH  23  24
ATOM     24  C   UNL     1       6.679   3.959  15.665  0.00  0.00    +0.000 C 
BRANCH  24  25
ATOM     25  C   UNL     1       6.321   4.444  14.263  0.00  0.00    +0.000 C 
BRANCH  25  28
ATOM     26  C   UNL     1       6.336   3.137  12.165  0.00  0.00    +0.000 C 
ATOM     27  O   UNL     1       7.270   3.768  11.673  0.00  0.00    +0.000 OA
ATOM     28  N   UNL     1       5.853   3.353  13.432  0.00  0.00    +0.000 N 
ATOM     29  H   UNL     1       5.008   2.852  13.695  0.00  0.00    +0.000 HD
BRANCH  26  30
ATOM     30  C   UNL     1       5.620   2.014  11.409  0.00  0.00    +0.000 C 
BRANCH  30  32
ATOM     31  C   UNL     1       6.131  -0.357  11.449  0.00  0.00    +0.000 C 
ATOM     32  N   UNL     1       6.558   0.958  10.968  0.00  0.00    +0.000 NA
ATOM     33  H   UNL     1       6.548   0.937   9.947  0.00  0.00    +0.000 HD
ENDBRANCH  30  32
ENDBRANCH  26  30
ENDBRANCH  25  28
ENDBRANCH  24  25
ENDBRANCH  23  24
ENDBRANCH   1  23
TORSDOF 8
ENDMDL
MODEL 7
REMARK VINA RESULT:      -7.5      3.195      7.838
REMARK  Name = 
REMARK  9 active torsions:
REMARK  status: ('A' for Active; 'I' for Inactive)
REMARK    1  A    between atoms: C_1  and  N_2
REMARK    2  A    between atoms: N_2  and  C_3
REMARK    3  A    between atoms: C_3  and  C_4
REMARK    4  A    between atoms: N_6  and  C_7
REMARK    5  A    between atoms: C_7  and  C_8
REMARK    6  A    between atoms: C_8  and  C_9
REMARK    7  A    between atoms: C_9  and  N_10
REMARK    8  A    between atoms: N_10  and  C_25
REMARK    9  A    between atoms: N_16  and  C_17
REMARK                            x       y       z     vdW  Elec       q    Type
REMARK                         _______ _______ _______ _____ _____    ______ ____
ROOT
ATOM      1  N   UNL     1       1.573   9.080  18.737  0.00  0.00    +0.000 N 
ATOM      2  C   UNL     1       2.327   7.931  18.437  0.00  0.00    +0.000 A 
ATOM      3  C   UNL     1       3.543   8.045  17.573  0.00  0.00    +0.000 A 
ATOM      4  C   UNL     1       4.345   6.993  17.434  0.00  0.00    +0.000 A 
ATOM      5  C   UNL     1       4.044   5.728  18.121  0.00  0.00    +0.000 A 
ATOM      6  O   UNL     1       4.876   4.825  18.051  0.00  0.00    +0.000 OA
ATOM      7  N   UNL     1       2.798   5.669  18.729  0.00  0.00    +0.000 N 
ATOM      8  N   UNL     1       1.969   6.762  18.909  0.00  0.00    +0.000 NA
ENDROOT
BRANCH   7   9
ATOM      9  C   UNL     1       2.416   4.541  19.507  0.00  0.00    +0.000 A 
ATOM     10  C   UNL     1       2.409   4.637  20.910  0.00  0.00    +0.000 A 
ATOM     11  C   UNL     1       2.017   3.555  21.702  0.00  0.00    +0.000 A 
ATOM     12  C   UNL     1       1.648   2.354  21.100  0.00  0.00    +0.000 A 
ATOM     13  C   UNL     1       1.665   2.238  19.712  0.00  0.00    +0.000 A 
ATOM     14  C   UNL     1       2.038   3.325  18.911  0.00  0.00    +0.000 A 
ATOM     15 CL   UNL     1       2.142   3.055  17.205  0.00  0.00    +0.000 Cl
ENDBRANCH   7   9
BRANCH   1  16
ATOM     16  C   UNL     1       0.993   9.305  20.030  0.00  0.00    +0.000 A 
ATOM     17  C   UNL     1       1.661   8.858  21.197  0.00  0.00    +0.000 A 
ATOM     18  C   UNL     1       1.139   9.032  22.486  0.00  0.00    +0.000 A 
ATOM     19  C   UNL     1      -0.053   9.715  22.665  0.00  0.00    +0.000 A 
ATOM     20  C   UNL     1      -0.738  10.185  21.552  0.00  0.00    +0.000 A 
ATOM     21  C   UNL     1      -0.250   9.956  20.251  0.00  0.00    +0.000 A 
ATOM     22 CL   UNL     1      -1.373  10.366  18.989  0.00  0.00    +0.000 Cl
ENDBRANCH   1  16
BRANCH   1  23
ATOM     23  C   UNL     1       1.466  10.195  17.772  0.00  0.00    +0.000 C 
BRANCH  23  24
ATOM     24  C   UNL     1       2.460  11.324  18.068  0.00  0.00    +0.000 C 
BRANCH  24  25
ATOM     25  C   UNL     1       1.792  12.668  18.342  0.00  0.00    +0.000 C 
BRANCH  25  28
ATOM     26  C   UNL     1       2.448  15.051  18.287  0.00  0.00    +0.000 C 
ATOM     27  O   UNL     1       1.737  15.362  19.241  0.00  0.00    +0.000 OA
ATOM     28  N   UNL     1       2.584  13.765  17.824  0.00  0.00    +0.000 N 
ATOM     29  H   UNL     1       3.108  13.639  16.962  0.00  0.00    +0.000 HD
BRANCH  26  30
ATOM     30  C   UNL     1       3.283  16.080  17.520  0.00  0.00    +0.000 C 
BRANCH  30  32
ATOM     31  C   UNL     1       5.284  16.154  18.891  0.00  0.00    +0.000 C 
ATOM     32  N   UNL     1       4.115  16.903  18.426  0.00  0.00    +0.000 NA
ATOM     33  H   UNL     1       4.450  17.710  17.897  0.00  0.00    +0.000 HD
ENDBRANCH  30  32
ENDBRANCH  26  30
ENDBRANCH  25  28
ENDBRANCH  24  25
ENDBRANCH  23  24
ENDBRANCH   1  23
TORSDOF 8
ENDMDL
MODEL 8
REMARK VINA RESULT:      -7.4      2.651      8.236
REMARK  Name = 
REMARK  9 active torsions:
REMARK  status: ('A' for Active; 'I' for Inactive)
REMARK    1  A    between atoms: C_1  and  N_2
REMARK    2  A    between atoms: N_2  and  C_3
REMARK    3  A    between atoms: C_3  and  C_4
REMARK    4  A    between atoms: N_6  and  C_7
REMARK    5  A    between atoms: C_7  and  C_8
REMARK    6  A    between atoms: C_8  and  C_9
REMARK    7  A    between atoms: C_9  and  N_10
REMARK    8  A    between atoms: N_10  and  C_25
REMARK    9  A    between atoms: N_16  and  C_17
REMARK                            x       y       z     vdW  Elec       q    Type
REMARK                         _______ _______ _______ _____ _____    ______ ____
ROOT
ATOM      1  N   UNL     1       1.575   9.081  18.773  0.00  0.00    +0.000 N 
ATOM      2  C   UNL     1       2.333   7.933  18.475  0.00  0.00    +0.000 A 
ATOM      3  C   UNL     1       3.553   8.053  17.616  0.00  0.00    +0.000 A 
ATOM      4  C   UNL     1       4.359   7.003  17.478  0.00  0.00    +0.000 A 
ATOM      5  C   UNL     1       4.058   5.736  18.162  0.00  0.00    +0.000 A 
ATOM      6  O   UNL     1       4.892   4.835  18.094  0.00  0.00    +0.000 OA
ATOM      7  N   UNL     1       2.808   5.672  18.764  0.00  0.00    +0.000 N 
ATOM      8  N   UNL     1       1.976   6.763  18.942  0.00  0.00    +0.000 NA
ENDROOT
BRANCH   7   9
ATOM      9  C   UNL     1       2.426   4.542  19.538  0.00  0.00    +0.000 A 
ATOM     10  C   UNL     1       2.413   4.635  20.942  0.00  0.00    +0.000 A 
ATOM     11  C   UNL     1       2.019   3.550  21.729  0.00  0.00    +0.000 A 
ATOM     12  C   UNL     1       1.656   2.350  21.124  0.00  0.00    +0.000 A 
ATOM     13  C   UNL     1       1.679   2.237  19.735  0.00  0.00    +0.000 A 
ATOM     14  C   UNL     1       2.053   3.327  18.938  0.00  0.00    +0.000 A 
ATOM     15 CL   UNL     1       2.165   3.060  17.232  0.00  0.00    +0.000 Cl
ENDBRANCH   7   9
BRANCH   1  16
ATOM     16  C   UNL     1       0.989   9.301  20.064  0.00  0.00    +0.000 A 
ATOM     17  C   UNL     1       1.675   8.899  21.236  0.00  0.00    +0.000 A 
ATOM     18  C   UNL     1       1.148   9.071  22.523  0.00  0.00    +0.000 A 
ATOM     19  C   UNL     1      -0.069   9.708  22.694  0.00  0.00    +0.000 A 
ATOM     20  C   UNL     1      -0.774  10.135  21.575  0.00  0.00    +0.000 A 
ATOM     21  C   UNL     1      -0.279   9.906  20.277  0.00  0.00    +0.000 A 
ATOM     22 CL   UNL     1      -1.419  10.254  19.012  0.00  0.00    +0.000 Cl
ENDBRANCH   1  16
BRANCH   1  23
ATOM     23  C   UNL     1       1.470  10.196  17.809  0.00  0.00    +0.000 C 
BRANCH  23  24
ATOM     24  C   UNL     1       2.243  11.440  18.266  0.00  0.00    +0.000 C 
BRANCH  24  25
ATOM     25  C   UNL     1       1.356  12.659  18.497  0.00  0.00    +0.000 C 
BRANCH  25  28
ATOM     26  C   UNL     1       0.407  13.892  20.419  0.00  0.00    +0.000 C 
ATOM     27  O   UNL     1      -0.584  14.274  19.800  0.00  0.00    +0.000 OA
ATOM     28  N   UNL     1       1.364  13.060  19.889  0.00  0.00    +0.000 N 
ATOM     29  H   UNL     1       2.195  12.898  20.451  0.00  0.00    +0.000 HD
BRANCH  26  30
ATOM     30  C   UNL     1       0.670  14.295  21.873  0.00  0.00    +0.000 C 
BRANCH  30  32
ATOM     31  C   UNL     1      -1.165  13.463  23.224  0.00  0.00    +0.000 C 
ATOM     32  N   UNL     1      -0.580  14.643  22.584  0.00  0.00    +0.000 NA
ATOM     33  H   UNL     1      -0.347  15.314  23.317  0.00  0.00    +0.000 HD
ENDBRANCH  30  32
ENDBRANCH  26  30
ENDBRANCH  25  28
ENDBRANCH  24  25
ENDBRANCH  23  24
ENDBRANCH   1  23
TORSDOF 8
ENDMDL
MODEL 9
REMARK VINA RESULT:      -7.3      7.020      9.337
REMARK  Name = 
REMARK  9 active torsions:
REMARK  status: ('A' for Active; 'I' for Inactive)
REMARK    1  A    between atoms: C_1  and  N_2
REMARK    2  A    between atoms: N_2  and  C_3
REMARK    3  A    between atoms: C_3  and  C_4
REMARK    4  A    between atoms: N_6  and  C_7
REMARK    5  A    between atoms: C_7  and  C_8
REMARK    6  A    between atoms: C_8  and  C_9
REMARK    7  A    between atoms: C_9  and  N_10
REMARK    8  A    between atoms: N_10  and  C_25
REMARK    9  A    between atoms: N_16  and  C_17
REMARK                            x       y       z     vdW  Elec       q    Type
REMARK                         _______ _______ _______ _____ _____    ______ ____
ROOT
ATOM      1  N   UNL     1      -2.533  10.732  17.937  0.00  0.00    +0.000 N 
ATOM      2  C   UNL     1      -3.805  11.151  18.368  0.00  0.00    +0.000 A 
ATOM      3  C   UNL     1      -5.021  10.387  17.946  0.00  0.00    +0.000 A 
ATOM      4  C   UNL     1      -6.198  10.682  18.492  0.00  0.00    +0.000 A 
ATOM      5  C   UNL     1      -6.308  11.747  19.500  0.00  0.00    +0.000 A 
ATOM      6  O   UNL     1      -7.395  11.902  20.054  0.00  0.00    +0.000 OA
ATOM      7  N   UNL     1      -5.168  12.520  19.669  0.00  0.00    +0.000 N 
ATOM      8  N   UNL     1      -3.931  12.206  19.134  0.00  0.00    +0.000 NA
ENDROOT
BRANCH   7   9
ATOM      9  C   UNL     1      -5.106  13.522  20.676  0.00  0.00    +0.000 A 
ATOM     10  C   UNL     1      -4.561  13.208  21.935  0.00  0.00    +0.000 A 
ATOM     11  C   UNL     1      -4.465  14.177  22.937  0.00  0.00    +0.000 A 
ATOM     12  C   UNL     1      -4.933  15.467  22.701  0.00  0.00    +0.000 A 
ATOM     13  C   UNL     1      -5.491  15.789  21.466  0.00  0.00    +0.000 A 
ATOM     14  C   UNL     1      -5.572  14.829  20.449  0.00  0.00    +0.000 A 
ATOM     15 CL   UNL     1      -6.384  15.285  18.991  0.00  0.00    +0.000 Cl
ENDBRANCH   7   9
BRANCH   1  16
ATOM     16  C   UNL     1      -1.379  10.777  18.789  0.00  0.00    +0.000 A 
ATOM     17  C   UNL     1      -1.125   9.724  19.701  0.00  0.00    +0.000 A 
ATOM     18  C   UNL     1      -0.025   9.719  20.570  0.00  0.00    +0.000 A 
ATOM     19  C   UNL     1       0.902  10.746  20.520  0.00  0.00    +0.000 A 
ATOM     20  C   UNL     1       0.704  11.795  19.632  0.00  0.00    +0.000 A 
ATOM     21  C   UNL     1      -0.433  11.837  18.802  0.00  0.00    +0.000 A 
ATOM     22 CL   UNL     1      -0.649  13.348  17.971  0.00  0.00    +0.000 Cl
ENDBRANCH   1  16
BRANCH   1  23
ATOM     23  C   UNL     1      -2.350  10.077  16.625  0.00  0.00    +0.000 C 
BRANCH  23  24
ATOM     24  C   UNL     1      -3.003  10.865  15.482  0.00  0.00    +0.000 C 
BRANCH  24  25
ATOM     25  C   UNL     1      -2.959  10.140  14.139  0.00  0.00    +0.000 C 
BRANCH  25  28
ATOM     26  C   UNL     1      -4.557   9.573  12.341  0.00  0.00    +0.000 C 
ATOM     27  O   UNL     1      -3.689   9.472  11.478  0.00  0.00    +0.000 OA
ATOM     28  N   UNL     1      -4.292   9.832  13.664  0.00  0.00    +0.000 N 
ATOM     29  H   UNL     1      -5.091  10.004  14.269  0.00  0.00    +0.000 HD
BRANCH  26  30
ATOM     30  C   UNL     1      -6.046   9.397  12.028  0.00  0.00    +0.000 C 
BRANCH  30  32
ATOM     31  C   UNL     1      -7.826  10.778  11.126  0.00  0.00    +0.000 C 
ATOM     32  N   UNL     1      -6.478  10.251  10.900  0.00  0.00    +0.000 NA
ATOM     33  H   UNL     1      -5.837  11.043  10.843  0.00  0.00    +0.000 HD
ENDBRANCH  30  32
ENDBRANCH  26  30
ENDBRANCH  25  28
ENDBRANCH  24  25
ENDBRANCH  23  24
ENDBRANCH   1  23
TORSDOF 8
ENDMDL
