MODEL 1
REMARK VINA RESULT:      -7.5      0.000      0.000
REMARK  Name = 
REMARK  13 active torsions:
REMARK  status: ('A' for Active; 'I' for Inactive)
REMARK    1  A    between atoms: C_1  and  C_2
REMARK    2  A    between atoms: C_2  and  O_3
REMARK    3  A    between atoms: O_3  and  C_4
REMARK    4  A    between atoms: C_4  and  C_6
REMARK    5  A    between atoms: C_9  and  S_10
REMARK    6  A    between atoms: S_10  and  N_13
REMARK    7  A    between atoms: N_16  and  C_17
REMARK    8  A    between atoms: C_17  and  C_18
REMARK    9  A    between atoms: C_18  and  O_19
REMARK   10  A    between atoms: C_18  and  C_20
REMARK   11  A    between atoms: C_20  and  O_21
REMARK   12  A    between atoms: O_21  and  C_22
REMARK   13  A    between atoms: C_25  and  C_26
REMARK                            x       y       z     vdW  Elec       q    Type
REMARK                         _______ _______ _______ _____ _____    ______ ____
ROOT
ATOM      1  N   UNL     1       1.547   4.171  19.077  0.00  0.00    +0.000 NA
ATOM      2  C   UNL     1       0.846   4.768  20.261  0.00  0.00    +0.000 C 
ATOM      3  C   UNL     1       1.703   5.830  21.004  0.00  0.00    +0.000 C 
ATOM      4  N   UNL     1       2.448   6.812  20.173  0.00  0.00    +0.000 NA
ATOM      5  C   UNL     1       3.014   6.175  18.967  0.00  0.00    +0.000 C 
ATOM      6  C   UNL     1       2.005   5.304  18.199  0.00  0.00    +0.000 C 
ENDROOT
BRANCH   1   7
ATOM      7  S   UNL     1       2.826   3.059  19.391  0.00  0.00    +0.000 S 
ATOM      8  O   UNL     1       2.383   1.728  19.040  0.00  0.00    +0.000 OA
ATOM      9  O   UNL     1       3.336   3.348  20.715  0.00  0.00    +0.000 OA
BRANCH   7  13
ATOM     10  C   UNL     1       6.058   4.475  16.528  0.00  0.00    +0.000 A 
ATOM     11  C   UNL     1       4.884   3.883  16.025  0.00  0.00    +0.000 A 
ATOM     12  C   UNL     1       3.914   3.384  16.899  0.00  0.00    +0.000 A 
ATOM     13  C   UNL     1       4.134   3.472  18.274  0.00  0.00    +0.000 A 
ATOM     14  C   UNL     1       5.289   4.080  18.783  0.00  0.00    +0.000 A 
ATOM     15  C   UNL     1       6.248   4.588  17.910  0.00  0.00    +0.000 A 
BRANCH  10  16
ATOM     16  C   UNL     1       7.070   5.084  15.629  0.00  0.00    +0.000 C 
ATOM     17  O   UNL     1       7.575   6.177  15.823  0.00  0.00    +0.000 OA
BRANCH  16  18
ATOM     18  O   UNL     1       7.288   4.259  14.578  0.00  0.00    +0.000 OA
BRANCH  18  20
ATOM     19  C   UNL     1       6.660   3.782  12.336  0.00  0.00    +0.000 C 
ATOM     20  C   UNL     1       7.131   4.865  13.287  0.00  0.00    +0.000 C 
ENDBRANCH  18  20
ENDBRANCH  16  18
ENDBRANCH  10  16
ENDBRANCH   7  13
ENDBRANCH   1   7
BRANCH   4  21
ATOM     21  C   UNL     1       1.660   8.022  19.924  0.00  0.00    +0.000 C 
BRANCH  21  22
ATOM     22  C   UNL     1       0.927   8.621  21.148  0.00  0.00    +0.000 C 
BRANCH  22  23
ATOM     23  O   UNL     1       1.815   8.803  22.264  0.00  0.00    +0.000 OA
ATOM     24  H   UNL     1       2.427   9.526  22.056  0.00  0.00    +0.000 HD
ENDBRANCH  22  23
BRANCH  22  25
ATOM     25  C   UNL     1       0.398  10.001  20.770  0.00  0.00    +0.000 C 
BRANCH  25  26
ATOM     26  O   UNL     1       0.414  10.109  19.349  0.00  0.00    +0.000 OA
BRANCH  26  27
ATOM     27  C   UNL     1      -0.773  10.476  18.791  0.00  0.00    +0.000 A 
ATOM     28  C   UNL     1      -1.484  11.438  19.507  0.00  0.00    +0.000 A 
ATOM     29  C   UNL     1      -2.734  11.853  19.055  0.00  0.00    +0.000 A 
ATOM     30  C   UNL     1      -3.260  11.320  17.876  0.00  0.00    +0.000 A 
ATOM     31  C   UNL     1      -2.525  10.392  17.134  0.00  0.00    +0.000 A 
ATOM     32  C   UNL     1      -1.278   9.977  17.590  0.00  0.00    +0.000 A 
BRANCH  30  33
ATOM     33  C   UNL     1      -4.555  11.714  17.423  0.00  0.00    +0.000 C 
ATOM     34  N   UNL     1      -5.599  12.051  17.050  0.00  0.00    +0.000 NA
ENDBRANCH  30  33
ENDBRANCH  26  27
ENDBRANCH  25  26
ENDBRANCH  22  25
ENDBRANCH  21  22
ENDBRANCH   4  21
TORSDOF 12
ENDMDL
MODEL 2
REMARK VINA RESULT:      -7.4      2.254      2.963
REMARK  Name = 
REMARK  13 active torsions:
REMARK  status: ('A' for Active; 'I' for Inactive)
REMARK    1  A    between atoms: C_1  and  C_2
REMARK    2  A    between atoms: C_2  and  O_3
REMARK    3  A    between atoms: O_3  and  C_4
REMARK    4  A    between atoms: C_4  and  C_6
REMARK    5  A    between atoms: C_9  and  S_10
REMARK    6  A    between atoms: S_10  and  N_13
REMARK    7  A    between atoms: N_16  and  C_17
REMARK    8  A    between atoms: C_17  and  C_18
REMARK    9  A    between atoms: C_18  and  O_19
REMARK   10  A    between atoms: C_18  and  C_20
REMARK   11  A    between atoms: C_20  and  O_21
REMARK   12  A    between atoms: O_21  and  C_22
REMARK   13  A    between atoms: C_25  and  C_26
REMARK                            x       y       z     vdW  Elec       q    Type
REMARK                         _______ _______ _______ _____ _____    ______ ____
ROOT
ATOM      1  N   UNL     1       2.205   4.822  18.909  0.00  0.00    +0.000 NA
ATOM      2  C   UNL     1       1.375   5.126  20.121  0.00  0.00    +0.000 C 
ATOM      3  C   UNL     1       1.847   6.399  20.877  0.00  0.00    +0.000 C 
ATOM      4  N   UNL     1       2.200   7.590  20.061  0.00  0.00    +0.000 NA
ATOM      5  C   UNL     1       2.915   7.202  18.828  0.00  0.00    +0.000 C 
ATOM      6  C   UNL     1       2.236   6.059  18.055  0.00  0.00    +0.000 C 
ENDROOT
BRANCH   1   7
ATOM      7  S   UNL     1       3.790   4.195  19.171  0.00  0.00    +0.000 S 
ATOM      8  O   UNL     1       3.708   2.757  19.297  0.00  0.00    +0.000 OA
ATOM      9  O   UNL     1       4.408   4.998  20.205  0.00  0.00    +0.000 OA
BRANCH   7  13
ATOM     10  C   UNL     1       6.286   4.691  15.406  0.00  0.00    +0.000 A 
ATOM     11  C   UNL     1       6.777   5.154  16.641  0.00  0.00    +0.000 A 
ATOM     12  C   UNL     1       5.991   5.066  17.793  0.00  0.00    +0.000 A 
ATOM     13  C   UNL     1       4.708   4.525  17.696  0.00  0.00    +0.000 A 
ATOM     14  C   UNL     1       4.220   4.041  16.475  0.00  0.00    +0.000 A 
ATOM     15  C   UNL     1       5.011   4.118  15.331  0.00  0.00    +0.000 A 
BRANCH  10  16
ATOM     16  C   UNL     1       7.125   4.698  14.182  0.00  0.00    +0.000 C 
ATOM     17  O   UNL     1       7.862   5.621  13.875  0.00  0.00    +0.000 OA
BRANCH  16  18
ATOM     18  O   UNL     1       6.901   3.563  13.479  0.00  0.00    +0.000 OA
BRANCH  18  20
ATOM     19  C   UNL     1       5.225   3.171  11.841  0.00  0.00    +0.000 C 
ATOM     20  C   UNL     1       6.600   3.758  12.090  0.00  0.00    +0.000 C 
ENDBRANCH  18  20
ENDBRANCH  16  18
ENDBRANCH  10  16
ENDBRANCH   7  13
ENDBRANCH   1   7
BRANCH   4  21
ATOM     21  C   UNL     1       1.047   8.471  19.859  0.00  0.00    +0.000 C 
BRANCH  21  22
ATOM     22  C   UNL     1       1.291   9.722  18.982  0.00  0.00    +0.000 C 
BRANCH  22  23
ATOM     23  O   UNL     1       0.472   9.713  17.801  0.00  0.00    +0.000 OA
ATOM     24  H   UNL     1       0.685   8.920  17.284  0.00  0.00    +0.000 HD
ENDBRANCH  22  23
BRANCH  22  25
ATOM     25  C   UNL     1       0.903  10.960  19.782  0.00  0.00    +0.000 C 
BRANCH  25  26
ATOM     26  O   UNL     1      -0.430  11.318  19.428  0.00  0.00    +0.000 OA
BRANCH  26  27
ATOM     27  C   UNL     1      -1.221  11.683  20.475  0.00  0.00    +0.000 A 
ATOM     28  C   UNL     1      -0.806  11.206  21.717  0.00  0.00    +0.000 A 
ATOM     29  C   UNL     1      -1.566  11.477  22.852  0.00  0.00    +0.000 A 
ATOM     30  C   UNL     1      -2.729  12.242  22.744  0.00  0.00    +0.000 A 
ATOM     31  C   UNL     1      -3.118  12.760  21.507  0.00  0.00    +0.000 A 
ATOM     32  C   UNL     1      -2.359  12.485  20.374  0.00  0.00    +0.000 A 
BRANCH  30  33
ATOM     33  C   UNL     1      -3.532  12.496  23.897  0.00  0.00    +0.000 C 
ATOM     34  N   UNL     1      -4.176  12.719  24.833  0.00  0.00    +0.000 NA
ENDBRANCH  30  33
ENDBRANCH  26  27
ENDBRANCH  25  26
ENDBRANCH  22  25
ENDBRANCH  21  22
ENDBRANCH   4  21
TORSDOF 12
ENDMDL
MODEL 3
REMARK VINA RESULT:      -7.4      3.652     10.970
REMARK  Name = 
REMARK  13 active torsions:
REMARK  status: ('A' for Active; 'I' for Inactive)
REMARK    1  A    between atoms: C_1  and  C_2
REMARK    2  A    between atoms: C_2  and  O_3
REMARK    3  A    between atoms: O_3  and  C_4
REMARK    4  A    between atoms: C_4  and  C_6
REMARK    5  A    between atoms: C_9  and  S_10
REMARK    6  A    between atoms: S_10  and  N_13
REMARK    7  A    between atoms: N_16  and  C_17
REMARK    8  A    between atoms: C_17  and  C_18
REMARK    9  A    between atoms: C_18  and  O_19
REMARK   10  A    between atoms: C_18  and  C_20
REMARK   11  A    between atoms: C_20  and  O_21
REMARK   12  A    between atoms: O_21  and  C_22
REMARK   13  A    between atoms: C_25  and  C_26
REMARK                            x       y       z     vdW  Elec       q    Type
REMARK                         _______ _______ _______ _____ _____    ______ ____
ROOT
ATOM      1  N   UNL     1      -0.172  10.072  19.526  0.00  0.00    +0.000 NA
ATOM      2  C   UNL     1       0.619   9.694  18.308  0.00  0.00    +0.000 C 
ATOM      3  C   UNL     1       2.013   9.098  18.649  0.00  0.00    +0.000 C 
ATOM      4  N   UNL     1       2.085   8.110  19.757  0.00  0.00    +0.000 NA
ATOM      5  C   UNL     1       1.194   8.490  20.873  0.00  0.00    +0.000 C 
ATOM      6  C   UNL     1      -0.229   8.867  20.425  0.00  0.00    +0.000 C 
ENDROOT
BRANCH   1   7
ATOM      7  S   UNL     1       0.326  11.479  20.388  0.00  0.00    +0.000 S 
ATOM      8  O   UNL     1       0.761  12.478  19.437  0.00  0.00    +0.000 OA
ATOM      9  O   UNL     1       1.195  11.046  21.462  0.00  0.00    +0.000 OA
BRANCH   7  13
ATOM     10  C   UNL     1      -3.528  12.777  22.416  0.00  0.00    +0.000 A 
ATOM     11  C   UNL     1      -3.399  12.883  21.019  0.00  0.00    +0.000 A 
ATOM     12  C   UNL     1      -2.195  12.549  20.392  0.00  0.00    +0.000 A 
ATOM     13  C   UNL     1      -1.122  12.122  21.175  0.00  0.00    +0.000 A 
ATOM     14  C   UNL     1      -1.249  11.992  22.564  0.00  0.00    +0.000 A 
ATOM     15  C   UNL     1      -2.454  12.313  23.185  0.00  0.00    +0.000 A 
BRANCH  10  16
ATOM     16  C   UNL     1      -4.815  13.049  23.102  0.00  0.00    +0.000 C 
ATOM     17  O   UNL     1      -4.954  13.901  23.965  0.00  0.00    +0.000 OA
BRANCH  16  18
ATOM     18  O   UNL     1      -5.756  12.189  22.646  0.00  0.00    +0.000 OA
BRANCH  18  20
ATOM     19  C   UNL     1      -7.479  11.886  21.038  0.00  0.00    +0.000 C 
ATOM     20  C   UNL     1      -6.937  12.805  22.115  0.00  0.00    +0.000 C 
ENDBRANCH  18  20
ENDBRANCH  16  18
ENDBRANCH  10  16
ENDBRANCH   7  13
ENDBRANCH   1   7
BRANCH   4  21
ATOM     21  C   UNL     1       1.921   6.737  19.272  0.00  0.00    +0.000 C 
BRANCH  21  22
ATOM     22  C   UNL     1       2.847   5.674  19.910  0.00  0.00    +0.000 C 
BRANCH  22  23
ATOM     23  O   UNL     1       2.527   5.453  21.294  0.00  0.00    +0.000 OA
ATOM     24  H   UNL     1       2.148   4.565  21.385  0.00  0.00    +0.000 HD
ENDBRANCH  22  23
BRANCH  22  25
ATOM     25  C   UNL     1       2.636   4.349  19.187  0.00  0.00    +0.000 C 
BRANCH  25  26
ATOM     26  O   UNL     1       3.891   3.678  19.115  0.00  0.00    +0.000 OA
BRANCH  26  27
ATOM     27  C   UNL     1       4.634   3.971  18.012  0.00  0.00    +0.000 A 
ATOM     28  C   UNL     1       5.959   4.314  18.273  0.00  0.00    +0.000 A 
ATOM     29  C   UNL     1       6.799   4.680  17.223  0.00  0.00    +0.000 A 
ATOM     30  C   UNL     1       6.315   4.682  15.913  0.00  0.00    +0.000 A 
ATOM     31  C   UNL     1       5.000   4.292  15.649  0.00  0.00    +0.000 A 
ATOM     32  C   UNL     1       4.163   3.930  16.699  0.00  0.00    +0.000 A 
BRANCH  30  33
ATOM     33  C   UNL     1       7.158   5.088  14.836  0.00  0.00    +0.000 C 
ATOM     34  N   UNL     1       7.848   5.401  13.959  0.00  0.00    +0.000 NA
ENDBRANCH  30  33
ENDBRANCH  26  27
ENDBRANCH  25  26
ENDBRANCH  22  25
ENDBRANCH  21  22
ENDBRANCH   4  21
TORSDOF 12
ENDMDL
MODEL 4
REMARK VINA RESULT:      -7.2      2.084      2.824
REMARK  Name = 
REMARK  13 active torsions:
REMARK  status: ('A' for Active; 'I' for Inactive)
REMARK    1  A    between atoms: C_1  and  C_2
REMARK    2  A    between atoms: C_2  and  O_3
REMARK    3  A    between atoms: O_3  and  C_4
REMARK    4  A    between atoms: C_4  and  C_6
REMARK    5  A    between atoms: C_9  and  S_10
REMARK    6  A    between atoms: S_10  and  N_13
REMARK    7  A    between atoms: N_16  and  C_17
REMARK    8  A    between atoms: C_17  and  C_18
REMARK    9  A    between atoms: C_18  and  O_19
REMARK   10  A    between atoms: C_18  and  C_20
REMARK   11  A    between atoms: C_20  and  O_21
REMARK   12  A    between atoms: O_21  and  C_22
REMARK   13  A    between atoms: C_25  and  C_26
REMARK                            x       y       z     vdW  Elec       q    Type
REMARK                         _______ _______ _______ _____ _____    ______ ____
ROOT
ATOM      1  N   UNL     1       1.638   4.068  18.905  0.00  0.00    +0.000 NA
ATOM      2  C   UNL     1       0.941   4.561  20.139  0.00  0.00    +0.000 C 
ATOM      3  C   UNL     1       1.798   5.563  20.962  0.00  0.00    +0.000 C 
ATOM      4  N   UNL     1       2.534   6.614  20.212  0.00  0.00    +0.000 NA
ATOM      5  C   UNL     1       3.095   6.082  18.954  0.00  0.00    +0.000 C 
ATOM      6  C   UNL     1       2.086   5.273  18.122  0.00  0.00    +0.000 C 
ENDROOT
BRANCH   1   7
ATOM      7  S   UNL     1       2.924   2.941  19.119  0.00  0.00    +0.000 S 
ATOM      8  O   UNL     1       2.512   1.658  18.593  0.00  0.00    +0.000 OA
ATOM      9  O   UNL     1       3.391   3.069  20.484  0.00  0.00    +0.000 OA
BRANCH   7  13
ATOM     10  C   UNL     1       6.225   4.739  16.566  0.00  0.00    +0.000 A 
ATOM     11  C   UNL     1       5.057   4.244  15.957  0.00  0.00    +0.000 A 
ATOM     12  C   UNL     1       4.065   3.630  16.726  0.00  0.00    +0.000 A 
ATOM     13  C   UNL     1       4.258   3.503  18.103  0.00  0.00    +0.000 A 
ATOM     14  C   UNL     1       5.407   4.013  18.720  0.00  0.00    +0.000 A 
ATOM     15  C   UNL     1       6.389   4.637  17.953  0.00  0.00    +0.000 A 
BRANCH  10  16
ATOM     16  C   UNL     1       7.260   5.465  15.789  0.00  0.00    +0.000 C 
ATOM     17  O   UNL     1       7.557   5.189  14.638  0.00  0.00    +0.000 OA
BRANCH  16  18
ATOM     18  O   UNL     1       7.819   6.419  16.570  0.00  0.00    +0.000 OA
BRANCH  18  20
ATOM     19  C   UNL     1       7.736   8.463  17.780  0.00  0.00    +0.000 C 
ATOM     20  C   UNL     1       6.911   7.419  17.052  0.00  0.00    +0.000 C 
ENDBRANCH  18  20
ENDBRANCH  16  18
ENDBRANCH  10  16
ENDBRANCH   7  13
ENDBRANCH   1   7
BRANCH   4  21
ATOM     21  C   UNL     1       1.738   7.837  20.069  0.00  0.00    +0.000 C 
BRANCH  21  22
ATOM     22  C   UNL     1       0.920   8.267  21.310  0.00  0.00    +0.000 C 
BRANCH  22  23
ATOM     23  O   UNL     1       1.745   8.915  22.292  0.00  0.00    +0.000 OA
ATOM     24  H   UNL     1       1.170   9.387  22.915  0.00  0.00    +0.000 HD
ENDBRANCH  22  23
BRANCH  22  25
ATOM     25  C   UNL     1      -0.130   9.281  20.872  0.00  0.00    +0.000 C 
BRANCH  25  26
ATOM     26  O   UNL     1       0.151  10.519  21.518  0.00  0.00    +0.000 OA
BRANCH  26  27
ATOM     27  C   UNL     1      -0.936  11.308  21.741  0.00  0.00    +0.000 A 
ATOM     28  C   UNL     1      -1.428  11.272  23.045  0.00  0.00    +0.000 A 
ATOM     29  C   UNL     1      -2.567  12.002  23.375  0.00  0.00    +0.000 A 
ATOM     30  C   UNL     1      -3.199  12.783  22.405  0.00  0.00    +0.000 A 
ATOM     31  C   UNL     1      -2.678  12.856  21.111  0.00  0.00    +0.000 A 
ATOM     32  C   UNL     1      -1.542  12.123  20.783  0.00  0.00    +0.000 A 
BRANCH  30  33
ATOM     33  C   UNL     1      -4.387  13.507  22.726  0.00  0.00    +0.000 C 
ATOM     34  N   UNL     1      -5.357  14.080  22.995  0.00  0.00    +0.000 NA
ENDBRANCH  30  33
ENDBRANCH  26  27
ENDBRANCH  25  26
ENDBRANCH  22  25
ENDBRANCH  21  22
ENDBRANCH   4  21
TORSDOF 12
ENDMDL
MODEL 5
REMARK VINA RESULT:      -7.2      5.023      7.573
REMARK  Name = 
REMARK  13 active torsions:
REMARK  status: ('A' for Active; 'I' for Inactive)
REMARK    1  A    between atoms: C_1  and  C_2
REMARK    2  A    between atoms: C_2  and  O_3
REMARK    3  A    between atoms: O_3  and  C_4
REMARK    4  A    between atoms: C_4  and  C_6
REMARK    5  A    between atoms: C_9  and  S_10
REMARK    6  A    between atoms: S_10  and  N_13
REMARK    7  A    between atoms: N_16  and  C_17
REMARK    8  A    between atoms: C_17  and  C_18
REMARK    9  A    between atoms: C_18  and  O_19
REMARK   10  A    between atoms: C_18  and  C_20
REMARK   11  A    between atoms: C_20  and  O_21
REMARK   12  A    between atoms: O_21  and  C_22
REMARK   13  A    between atoms: C_25  and  C_26
REMARK                            x       y       z     vdW  Elec       q    Type
REMARK                         _______ _______ _______ _____ _____    ______ ____
ROOT
ATOM      1  N   UNL     1       1.300  11.476  19.852  0.00  0.00    +0.000 NA
ATOM      2  C   UNL     1       1.550  12.456  18.745  0.00  0.00    +0.000 C 
ATOM      3  C   UNL     1       0.274  13.239  18.327  0.00  0.00    +0.000 C 
ATOM      4  N   UNL     1      -0.603  13.750  19.412  0.00  0.00    +0.000 NA
ATOM      5  C   UNL     1      -0.709  12.778  20.519  0.00  0.00    +0.000 C 
ATOM      6  C   UNL     1       0.648  12.222  20.984  0.00  0.00    +0.000 C 
ENDROOT
BRANCH   1   7
ATOM      7  S   UNL     1       0.431  10.040  19.458  0.00  0.00    +0.000 S 
ATOM      8  O   UNL     1      -0.300  10.260  18.230  0.00  0.00    +0.000 OA
ATOM      9  O   UNL     1      -0.247   9.600  20.659  0.00  0.00    +0.000 OA
BRANCH   7  13
ATOM     10  C   UNL     1       3.278   6.667  18.380  0.00  0.00    +0.000 A 
ATOM     11  C   UNL     1       2.635   6.670  19.632  0.00  0.00    +0.000 A 
ATOM     12  C   UNL     1       1.810   7.736  20.000  0.00  0.00    +0.000 A 
ATOM     13  C   UNL     1       1.644   8.800  19.112  0.00  0.00    +0.000 A 
ATOM     14  C   UNL     1       2.262   8.793  17.855  0.00  0.00    +0.000 A 
ATOM     15  C   UNL     1       3.075   7.724  17.486  0.00  0.00    +0.000 A 
BRANCH  10  16
ATOM     16  C   UNL     1       4.098   5.514  17.930  0.00  0.00    +0.000 C 
ATOM     17  O   UNL     1       3.814   4.351  18.165  0.00  0.00    +0.000 OA
BRANCH  16  18
ATOM     18  O   UNL     1       5.192   5.972  17.276  0.00  0.00    +0.000 OA
BRANCH  18  20
ATOM     19  C   UNL     1       7.291   7.053  17.550  0.00  0.00    +0.000 C 
ATOM     20  C   UNL     1       6.416   5.907  18.021  0.00  0.00    +0.000 C 
ENDBRANCH  18  20
ENDBRANCH  16  18
ENDBRANCH  10  16
ENDBRANCH   7  13
ENDBRANCH   1   7
BRANCH   4  21
ATOM     21  C   UNL     1      -0.233  15.111  19.815  0.00  0.00    +0.000 C 
BRANCH  21  22
ATOM     22  C   UNL     1      -0.417  16.212  18.744  0.00  0.00    +0.000 C 
BRANCH  22  23
ATOM     23  O   UNL     1      -1.651  16.927  18.923  0.00  0.00    +0.000 OA
ATOM     24  H   UNL     1      -2.157  16.497  19.630  0.00  0.00    +0.000 HD
ENDBRANCH  22  23
BRANCH  22  25
ATOM     25  C   UNL     1       0.711  17.226  18.890  0.00  0.00    +0.000 C 
BRANCH  25  26
ATOM     26  O   UNL     1       1.671  16.974  17.868  0.00  0.00    +0.000 OA
BRANCH  26  27
ATOM     27  C   UNL     1       2.888  16.559  18.317  0.00  0.00    +0.000 A 
ATOM     28  C   UNL     1       3.524  15.624  17.502  0.00  0.00    +0.000 A 
ATOM     29  C   UNL     1       4.752  15.092  17.887  0.00  0.00    +0.000 A 
ATOM     30  C   UNL     1       5.350  15.513  19.077  0.00  0.00    +0.000 A 
ATOM     31  C   UNL     1       4.735  16.485  19.868  0.00  0.00    +0.000 A 
ATOM     32  C   UNL     1       3.506  17.012  19.483  0.00  0.00    +0.000 A 
BRANCH  30  33
ATOM     33  C   UNL     1       6.593  14.949  19.496  0.00  0.00    +0.000 C 
ATOM     34  N   UNL     1       7.601  14.501  19.851  0.00  0.00    +0.000 NA
ENDBRANCH  30  33
ENDBRANCH  26  27
ENDBRANCH  25  26
ENDBRANCH  22  25
ENDBRANCH  21  22
ENDBRANCH   4  21
TORSDOF 12
ENDMDL
MODEL 6
REMARK VINA RESULT:      -7.1      4.505      6.842
REMARK  Name = 
REMARK  13 active torsions:
REMARK  status: ('A' for Active; 'I' for Inactive)
REMARK    1  A    between atoms: C_1  and  C_2
REMARK    2  A    between atoms: C_2  and  O_3
REMARK    3  A    between atoms: O_3  and  C_4
REMARK    4  A    between atoms: C_4  and  C_6
REMARK    5  A    between atoms: C_9  and  S_10
REMARK    6  A    between atoms: S_10  and  N_13
REMARK    7  A    between atoms: N_16  and  C_17
REMARK    8  A    between atoms: C_17  and  C_18
REMARK    9  A    between atoms: C_18  and  O_19
REMARK   10  A    between atoms: C_18  and  C_20
REMARK   11  A    between atoms: C_20  and  O_21
REMARK   12  A    between atoms: O_21  and  C_22
REMARK   13  A    between atoms: C_25  and  C_26
REMARK                            x       y       z     vdW  Elec       q    Type
REMARK                         _______ _______ _______ _____ _____    ______ ____
ROOT
ATOM      1  N   UNL     1       1.101  10.019  20.082  0.00  0.00    +0.000 NA
ATOM      2  C   UNL     1       0.106  10.122  18.964  0.00  0.00    +0.000 C 
ATOM      3  C   UNL     1      -1.305  10.565  19.445  0.00  0.00    +0.000 C 
ATOM      4  N   UNL     1      -1.375  11.672  20.434  0.00  0.00    +0.000 NA
ATOM      5  C   UNL     1      -0.295  11.566  21.436  0.00  0.00    +0.000 C 
ATOM      6  C   UNL     1       1.095  11.328  20.822  0.00  0.00    +0.000 C 
ENDROOT
BRANCH   1   7
ATOM      7  S   UNL     1       0.944   8.683  21.161  0.00  0.00    +0.000 S 
ATOM      8  O   UNL     1      -0.459   8.366  21.308  0.00  0.00    +0.000 OA
ATOM      9  O   UNL     1       1.769   8.961  22.318  0.00  0.00    +0.000 OA
BRANCH   7  13
ATOM     10  C   UNL     1       2.576   5.115  18.869  0.00  0.00    +0.000 A 
ATOM     11  C   UNL     1       1.889   4.917  20.081  0.00  0.00    +0.000 A 
ATOM     12  C   UNL     1       1.441   6.010  20.827  0.00  0.00    +0.000 A 
ATOM     13  C   UNL     1       1.697   7.299  20.357  0.00  0.00    +0.000 A 
ATOM     14  C   UNL     1       2.360   7.505  19.140  0.00  0.00    +0.000 A 
ATOM     15  C   UNL     1       2.794   6.413  18.392  0.00  0.00    +0.000 A 
BRANCH  10  16
ATOM     16  C   UNL     1       2.995   3.975  18.016  0.00  0.00    +0.000 C 
ATOM     17  O   UNL     1       3.613   4.105  16.972  0.00  0.00    +0.000 OA
BRANCH  16  18
ATOM     18  O   UNL     1       2.550   2.820  18.563  0.00  0.00    +0.000 OA
BRANCH  18  20
ATOM     19  C   UNL     1       4.402   2.181  19.910  0.00  0.00    +0.000 C 
ATOM     20  C   UNL     1       3.544   1.798  18.718  0.00  0.00    +0.000 C 
ENDBRANCH  18  20
ENDBRANCH  16  18
ENDBRANCH  10  16
ENDBRANCH   7  13
ENDBRANCH   1   7
BRANCH   4  21
ATOM     21  C   UNL     1      -1.489  12.979  19.780  0.00  0.00    +0.000 C 
BRANCH  21  22
ATOM     22  C   UNL     1      -0.466  13.270  18.657  0.00  0.00    +0.000 C 
BRANCH  22  23
ATOM     23  O   UNL     1      -1.052  13.120  17.352  0.00  0.00    +0.000 OA
ATOM     24  H   UNL     1      -0.954  13.957  16.873  0.00  0.00    +0.000 HD
ENDBRANCH  22  23
BRANCH  22  25
ATOM     25  C   UNL     1      -0.013  14.721  18.777  0.00  0.00    +0.000 C 
BRANCH  25  26
ATOM     26  O   UNL     1       0.904  14.811  19.864  0.00  0.00    +0.000 OA
BRANCH  26  27
ATOM     27  C   UNL     1       2.115  15.349  19.548  0.00  0.00    +0.000 A 
ATOM     28  C   UNL     1       3.013  15.433  20.611  0.00  0.00    +0.000 A 
ATOM     29  C   UNL     1       4.265  16.011  20.414  0.00  0.00    +0.000 A 
ATOM     30  C   UNL     1       4.622  16.483  19.150  0.00  0.00    +0.000 A 
ATOM     31  C   UNL     1       3.740  16.354  18.075  0.00  0.00    +0.000 A 
ATOM     32  C   UNL     1       2.489  15.780  18.275  0.00  0.00    +0.000 A 
BRANCH  30  33
ATOM     33  C   UNL     1       5.890  17.107  18.948  0.00  0.00    +0.000 C 
ATOM     34  N   UNL     1       6.922  17.613  18.802  0.00  0.00    +0.000 NA
ENDBRANCH  30  33
ENDBRANCH  26  27
ENDBRANCH  25  26
ENDBRANCH  22  25
ENDBRANCH  21  22
ENDBRANCH   4  21
TORSDOF 12
ENDMDL
MODEL 7
REMARK VINA RESULT:      -7.1      4.866      7.568
REMARK  Name = 
REMARK  13 active torsions:
REMARK  status: ('A' for Active; 'I' for Inactive)
REMARK    1  A    between atoms: C_1  and  C_2
REMARK    2  A    between atoms: C_2  and  O_3
REMARK    3  A    between atoms: O_3  and  C_4
REMARK    4  A    between atoms: C_4  and  C_6
REMARK    5  A    between atoms: C_9  and  S_10
REMARK    6  A    between atoms: S_10  and  N_13
REMARK    7  A    between atoms: N_16  and  C_17
REMARK    8  A    between atoms: C_17  and  C_18
REMARK    9  A    between atoms: C_18  and  O_19
REMARK   10  A    between atoms: C_18  and  C_20
REMARK   11  A    between atoms: C_20  and  O_21
REMARK   12  A    between atoms: O_21  and  C_22
REMARK   13  A    between atoms: C_25  and  C_26
REMARK                            x       y       z     vdW  Elec       q    Type
REMARK                         _______ _______ _______ _____ _____    ______ ____
ROOT
ATOM      1  N   UNL     1       0.724  11.520  20.662  0.00  0.00    +0.000 NA
ATOM      2  C   UNL     1       1.170  12.402  19.535  0.00  0.00    +0.000 C 
ATOM      3  C   UNL     1      -0.010  13.111  18.814  0.00  0.00    +0.000 C 
ATOM      4  N   UNL     1      -1.081  13.695  19.663  0.00  0.00    +0.000 NA
ATOM      5  C   UNL     1      -1.387  12.824  20.816  0.00  0.00    +0.000 C 
ATOM      6  C   UNL     1      -0.138  12.347  21.577  0.00  0.00    +0.000 C 
ENDROOT
BRANCH   1   7
ATOM      7  S   UNL     1      -0.043  10.032  20.248  0.00  0.00    +0.000 S 
ATOM      8  O   UNL     1      -0.979  10.274  19.172  0.00  0.00    +0.000 OA
ATOM      9  O   UNL     1      -0.472   9.407  21.481  0.00  0.00    +0.000 OA
BRANCH   7  13
ATOM     10  C   UNL     1       2.934   7.150  18.383  0.00  0.00    +0.000 A 
ATOM     11  C   UNL     1       2.447   6.913  19.682  0.00  0.00    +0.000 A 
ATOM     12  C   UNL     1       1.582   7.827  20.290  0.00  0.00    +0.000 A 
ATOM     13  C   UNL     1       1.222   8.982  19.594  0.00  0.00    +0.000 A 
ATOM     14  C   UNL     1       1.685   9.214  18.293  0.00  0.00    +0.000 A 
ATOM     15  C   UNL     1       2.536   8.295  17.684  0.00  0.00    +0.000 A 
BRANCH  10  16
ATOM     16  C   UNL     1       3.790   6.161  17.681  0.00  0.00    +0.000 C 
ATOM     17  O   UNL     1       4.557   6.454  16.778  0.00  0.00    +0.000 OA
BRANCH  16  18
ATOM     18  O   UNL     1       3.545   4.925  18.176  0.00  0.00    +0.000 OA
BRANCH  18  20
ATOM     19  C   UNL     1       2.527   2.878  17.528  0.00  0.00    +0.000 C 
ATOM     20  C   UNL     1       3.642   3.859  17.222  0.00  0.00    +0.000 C 
ENDBRANCH  18  20
ENDBRANCH  16  18
ENDBRANCH  10  16
ENDBRANCH   7  13
ENDBRANCH   1   7
BRANCH   4  21
ATOM     21  C   UNL     1      -0.806  15.095  19.999  0.00  0.00    +0.000 C 
BRANCH  21  22
ATOM     22  C   UNL     1      -0.548  16.045  18.805  0.00  0.00    +0.000 C 
BRANCH  22  23
ATOM     23  O   UNL     1      -1.558  17.063  18.708  0.00  0.00    +0.000 OA
ATOM     24  H   UNL     1      -1.721  17.421  19.594  0.00  0.00    +0.000 HD
ENDBRANCH  22  23
BRANCH  22  25
ATOM     25  C   UNL     1       0.782  16.756  19.028  0.00  0.00    +0.000 C 
BRANCH  25  26
ATOM     26  O   UNL     1       1.547  15.988  19.953  0.00  0.00    +0.000 OA
BRANCH  26  27
ATOM     27  C   UNL     1       2.830  15.741  19.567  0.00  0.00    +0.000 A 
ATOM     28  C   UNL     1       2.986  15.440  18.215  0.00  0.00    +0.000 A 
ATOM     29  C   UNL     1       4.248  15.122  17.719  0.00  0.00    +0.000 A 
ATOM     30  C   UNL     1       5.354  15.128  18.573  0.00  0.00    +0.000 A 
ATOM     31  C   UNL     1       5.203  15.477  19.916  0.00  0.00    +0.000 A 
ATOM     32  C   UNL     1       3.941  15.791  20.410  0.00  0.00    +0.000 A 
BRANCH  30  33
ATOM     33  C   UNL     1       6.645  14.770  18.080  0.00  0.00    +0.000 C 
ATOM     34  N   UNL     1       7.699  14.481  17.697  0.00  0.00    +0.000 NA
ENDBRANCH  30  33
ENDBRANCH  26  27
ENDBRANCH  25  26
ENDBRANCH  22  25
ENDBRANCH  21  22
ENDBRANCH   4  21
TORSDOF 12
ENDMDL
MODEL 8
REMARK VINA RESULT:      -7.1      3.766     11.130
REMARK  Name = 
REMARK  13 active torsions:
REMARK  status: ('A' for Active; 'I' for Inactive)
REMARK    1  A    between atoms: C_1  and  C_2
REMARK    2  A    between atoms: C_2  and  O_3
REMARK    3  A    between atoms: O_3  and  C_4
REMARK    4  A    between atoms: C_4  and  C_6
REMARK    5  A    between atoms: C_9  and  S_10
REMARK    6  A    between atoms: S_10  and  N_13
REMARK    7  A    between atoms: N_16  and  C_17
REMARK    8  A    between atoms: C_17  and  C_18
REMARK    9  A    between atoms: C_18  and  O_19
REMARK   10  A    between atoms: C_18  and  C_20
REMARK   11  A    between atoms: C_20  and  O_21
REMARK   12  A    between atoms: O_21  and  C_22
REMARK   13  A    between atoms: C_25  and  C_26
REMARK                            x       y       z     vdW  Elec       q    Type
REMARK                         _______ _______ _______ _____ _____    ______ ____
ROOT
ATOM      1  N   UNL     1      -0.264   9.767  19.997  0.00  0.00    +0.000 NA
ATOM      2  C   UNL     1       0.376   9.518  18.664  0.00  0.00    +0.000 C 
ATOM      3  C   UNL     1       1.849   9.035  18.777  0.00  0.00    +0.000 C 
ATOM      4  N   UNL     1       2.156   8.008  19.806  0.00  0.00    +0.000 NA
ATOM      5  C   UNL     1       1.403   8.255  21.052  0.00  0.00    +0.000 C 
ATOM      6  C   UNL     1      -0.095   8.522  20.824  0.00  0.00    +0.000 C 
ENDROOT
BRANCH   1   7
ATOM      7  S   UNL     1       0.231  11.173  20.863  0.00  0.00    +0.000 S 
ATOM      8  O   UNL     1       0.766  12.134  19.925  0.00  0.00    +0.000 OA
ATOM      9  O   UNL     1       1.010  10.730  22.000  0.00  0.00    +0.000 OA
BRANCH   7  13
ATOM     10  C   UNL     1      -3.704  12.665  22.577  0.00  0.00    +0.000 A 
ATOM     11  C   UNL     1      -3.428  12.829  21.206  0.00  0.00    +0.000 A 
ATOM     12  C   UNL     1      -2.194  12.434  20.682  0.00  0.00    +0.000 A 
ATOM     13  C   UNL     1      -1.239  11.887  21.540  0.00  0.00    +0.000 A 
ATOM     14  C   UNL     1      -1.515  11.700  22.901  0.00  0.00    +0.000 A 
ATOM     15  C   UNL     1      -2.750  12.083  23.418  0.00  0.00    +0.000 A 
BRANCH  10  16
ATOM     16  C   UNL     1      -5.032  13.003  23.148  0.00  0.00    +0.000 C 
ATOM     17  O   UNL     1      -5.366  12.725  24.288  0.00  0.00    +0.000 OA
BRANCH  16  18
ATOM     18  O   UNL     1      -5.785  13.610  22.201  0.00  0.00    +0.000 OA
BRANCH  18  20
ATOM     19  C   UNL     1      -7.330  12.038  21.313  0.00  0.00    +0.000 C 
ATOM     20  C   UNL     1      -7.174  13.253  22.209  0.00  0.00    +0.000 C 
ENDBRANCH  18  20
ENDBRANCH  16  18
ENDBRANCH  10  16
ENDBRANCH   7  13
ENDBRANCH   1   7
BRANCH   4  21
ATOM     21  C   UNL     1       2.041   6.649  19.270  0.00  0.00    +0.000 C 
BRANCH  21  22
ATOM     22  C   UNL     1       3.371   5.904  19.009  0.00  0.00    +0.000 C 
BRANCH  22  23
ATOM     23  O   UNL     1       4.076   5.631  20.232  0.00  0.00    +0.000 OA
ATOM     24  H   UNL     1       4.508   6.447  20.528  0.00  0.00    +0.000 HD
ENDBRANCH  22  23
BRANCH  22  25
ATOM     25  C   UNL     1       3.057   4.558  18.367  0.00  0.00    +0.000 C 
BRANCH  25  26
ATOM     26  O   UNL     1       4.270   3.816  18.274  0.00  0.00    +0.000 OA
BRANCH  26  27
ATOM     27  C   UNL     1       5.103   4.204  17.269  0.00  0.00    +0.000 A 
ATOM     28  C   UNL     1       4.538   4.171  15.995  0.00  0.00    +0.000 A 
ATOM     29  C   UNL     1       5.312   4.501  14.886  0.00  0.00    +0.000 A 
ATOM     30  C   UNL     1       6.644   4.885  15.056  0.00  0.00    +0.000 A 
ATOM     31  C   UNL     1       7.194   4.964  16.337  0.00  0.00    +0.000 A 
ATOM     32  C   UNL     1       6.420   4.630  17.443  0.00  0.00    +0.000 A 
BRANCH  30  33
ATOM     33  C   UNL     1       7.454   5.192  13.922  0.00  0.00    +0.000 C 
ATOM     34  N   UNL     1       8.097   5.439  12.991  0.00  0.00    +0.000 NA
ENDBRANCH  30  33
ENDBRANCH  26  27
ENDBRANCH  25  26
ENDBRANCH  22  25
ENDBRANCH  21  22
ENDBRANCH   4  21
TORSDOF 12
ENDMDL
MODEL 9
REMARK VINA RESULT:      -7.1      5.296      7.813
REMARK  Name = 
REMARK  13 active torsions:
REMARK  status: ('A' for Active; 'I' for Inactive)
REMARK    1  A    between atoms: C_1  and  C_2
REMARK    2  A    between atoms: C_2  and  O_3
REMARK    3  A    between atoms: O_3  and  C_4
REMARK    4  A    between atoms: C_4  and  C_6
REMARK    5  A    between atoms: C_9  and  S_10
REMARK    6  A    between atoms: S_10  and  N_13
REMARK    7  A    between atoms: N_16  and  C_17
REMARK    8  A    between atoms: C_17  and  C_18
REMARK    9  A    between atoms: C_18  and  O_19
REMARK   10  A    between atoms: C_18  and  C_20
REMARK   11  A    between atoms: C_20  and  O_21
REMARK   12  A    between atoms: O_21  and  C_22
REMARK   13  A    between atoms: C_25  and  C_26
REMARK                            x       y       z     vdW  Elec       q    Type
REMARK                         _______ _______ _______ _____ _____    ______ ____
ROOT
ATOM      1  N   UNL     1       1.310  11.548  19.772  0.00  0.00    +0.000 NA
ATOM      2  C   UNL     1       1.532  12.496  18.631  0.00  0.00    +0.000 C 
ATOM      3  C   UNL     1       0.315  13.426  18.368  0.00  0.00    +0.000 C 
ATOM      4  N   UNL     1      -0.352  14.033  19.549  0.00  0.00    +0.000 NA
ATOM      5  C   UNL     1      -0.432  13.076  20.671  0.00  0.00    +0.000 C 
ATOM      6  C   UNL     1       0.897  12.362  20.968  0.00  0.00    +0.000 C 
ENDROOT
BRANCH   1   7
ATOM      7  S   UNL     1       0.235  10.226  19.507  0.00  0.00    +0.000 S 
ATOM      8  O   UNL     1      -0.562  10.503  18.333  0.00  0.00    +0.000 OA
ATOM      9  O   UNL     1      -0.390   9.914  20.774  0.00  0.00    +0.000 OA
BRANCH   7  13
ATOM     10  C   UNL     1       3.119   6.813  18.680  0.00  0.00    +0.000 A 
ATOM     11  C   UNL     1       2.896   7.798  17.699  0.00  0.00    +0.000 A 
ATOM     12  C   UNL     1       1.962   8.814  17.917  0.00  0.00    +0.000 A 
ATOM     13  C   UNL     1       1.247   8.829  19.116  0.00  0.00    +0.000 A 
ATOM     14  C   UNL     1       1.480   7.867  20.107  0.00  0.00    +0.000 A 
ATOM     15  C   UNL     1       2.421   6.862  19.892  0.00  0.00    +0.000 A 
BRANCH  10  16
ATOM     16  C   UNL     1       4.159   5.767  18.511  0.00  0.00    +0.000 C 
ATOM     17  O   UNL     1       4.955   5.461  19.383  0.00  0.00    +0.000 OA
BRANCH  16  18
ATOM     18  O   UNL     1       4.092   5.269  17.254  0.00  0.00    +0.000 OA
BRANCH  18  20
ATOM     19  C   UNL     1       2.545   3.467  17.343  0.00  0.00    +0.000 C 
ATOM     20  C   UNL     1       4.005   3.840  17.171  0.00  0.00    +0.000 C 
ENDBRANCH  18  20
ENDBRANCH  16  18
ENDBRANCH  10  16
ENDBRANCH   7  13
ENDBRANCH   1   7
BRANCH   4  21
ATOM     21  C   UNL     1       0.223  15.338  19.886  0.00  0.00    +0.000 C 
BRANCH  21  22
ATOM     22  C   UNL     1       0.719  16.193  18.696  0.00  0.00    +0.000 C 
BRANCH  22  23
ATOM     23  O   UNL     1      -0.336  17.000  18.144  0.00  0.00    +0.000 OA
ATOM     24  H   UNL     1      -0.487  16.725  17.227  0.00  0.00    +0.000 HD
ENDBRANCH  22  23
BRANCH  22  25
ATOM     25  C   UNL     1       1.794  17.150  19.198  0.00  0.00    +0.000 C 
BRANCH  25  26
ATOM     26  O   UNL     1       2.768  17.303  18.169  0.00  0.00    +0.000 OA
BRANCH  26  27
ATOM     27  C   UNL     1       3.884  16.539  18.320  0.00  0.00    +0.000 A 
ATOM     28  C   UNL     1       4.801  17.019  19.253  0.00  0.00    +0.000 A 
ATOM     29  C   UNL     1       6.002  16.343  19.455  0.00  0.00    +0.000 A 
ATOM     30  C   UNL     1       6.273  15.177  18.737  0.00  0.00    +0.000 A 
ATOM     31  C   UNL     1       5.333  14.670  17.838  0.00  0.00    +0.000 A 
ATOM     32  C   UNL     1       4.136  15.349  17.635  0.00  0.00    +0.000 A 
BRANCH  30  33
ATOM     33  C   UNL     1       7.516  14.496  18.913  0.00  0.00    +0.000 C 
ATOM     34  N   UNL     1       8.532  13.960  19.062  0.00  0.00    +0.000 NA
ENDBRANCH  30  33
ENDBRANCH  26  27
ENDBRANCH  25  26
ENDBRANCH  22  25
ENDBRANCH  21  22
ENDBRANCH   4  21
TORSDOF 12
ENDMDL
