MODEL 1
REMARK VINA RESULT:      -7.6      0.000      0.000
REMARK  Name = 
REMARK  14 active torsions:
REMARK  status: ('A' for Active; 'I' for Inactive)
REMARK    1  A    between atoms: C_1  and  C_2
REMARK    2  A    between atoms: C_2  and  O_4
REMARK    3  A    between atoms: O_4  and  C_5
REMARK    4  A    between atoms: C_14  and  O_15
REMARK    5  A    between atoms: O_15  and  C_16
REMARK    6  A    between atoms: C_16  and  C_17
REMARK    7  A    between atoms: C_20  and  C_21
REMARK    8  A    between atoms: C_21  and  O_23
REMARK    9  A    between atoms: O_23  and  C_24
REMARK   10  A    between atoms: C_24  and  C_25
REMARK   11  A    between atoms: C_25  and  O_26
REMARK   12  A    between atoms: O_26  and  C_27
REMARK   13  A    between atoms: C_27  and  C_28
REMARK   14  A    between atoms: C_28  and  O_29
REMARK                            x       y       z     vdW  Elec       q    Type
REMARK                         _______ _______ _______ _____ _____    ______ ____
ROOT
ATOM      1  C   UNL     1      -0.326   9.780  20.777  0.00  0.00    +0.000 A 
ATOM      2  C   UNL     1      -0.797  11.028  20.350  0.00  0.00    +0.000 A 
ATOM      3  C   UNL     1      -0.325  11.578  19.164  0.00  0.00    +0.000 A 
ATOM      4  C   UNL     1       0.635  10.897  18.416  0.00  0.00    +0.000 A 
ATOM      5  C   UNL     1       1.136   9.663  18.861  0.00  0.00    +0.000 A 
ATOM      6  C   UNL     1       0.655   9.101  20.052  0.00  0.00    +0.000 A 
ATOM      7  C   UNL     1       1.257   7.836  20.522  0.00  0.00    +0.000 C 
ATOM      8  O   UNL     1       1.239   7.522  21.706  0.00  0.00    +0.000 OA
ATOM      9  C   UNL     1       1.996   6.996  19.557  0.00  0.00    +0.000 A 
ATOM     10  C   UNL     1       2.256   5.641  19.786  0.00  0.00    +0.000 A 
ATOM     11  C   UNL     1       3.218   4.965  19.025  0.00  0.00    +0.000 A 
ATOM     12  C   UNL     1       3.908   5.628  17.999  0.00  0.00    +0.000 A 
ATOM     13  C   UNL     1       3.552   6.943  17.682  0.00  0.00    +0.000 A 
ATOM     14  C   UNL     1       2.588   7.615  18.451  0.00  0.00    +0.000 A 
ATOM     15  C   UNL     1       2.193   8.991  18.085  0.00  0.00    +0.000 C 
ATOM     16  O   UNL     1       2.722   9.554  17.134  0.00  0.00    +0.000 OA
ENDROOT
BRANCH  12  17
ATOM     17  C   UNL     1       4.964   4.949  17.191  0.00  0.00    +0.000 C 
ATOM     18  O   UNL     1       5.122   3.741  17.151  0.00  0.00    +0.000 OA
BRANCH  17  19
ATOM     19  O   UNL     1       5.763   5.875  16.608  0.00  0.00    +0.000 OA
BRANCH  19  20
ATOM     20  C   UNL     1       7.149   5.770  16.948  0.00  0.00    +0.000 C 
BRANCH  20  21
ATOM     21  C   UNL     1       7.625   6.808  17.955  0.00  0.00    +0.000 C 
BRANCH  21  22
ATOM     22  O   UNL     1       8.073   7.946  17.206  0.00  0.00    +0.000 OA
BRANCH  22  23
ATOM     23  C   UNL     1       7.603   9.182  17.753  0.00  0.00    +0.000 C 
BRANCH  23  24
ATOM     24  C   UNL     1       8.810   9.986  18.232  0.00  0.00    +0.000 C 
BRANCH  24  25
ATOM     25  O   UNL     1       9.238   9.527  19.512  0.00  0.00    +0.000 OA
ATOM     26  H   UNL     1       8.530   8.933  19.827  0.00  0.00    +0.000 HD
ENDBRANCH  24  25
ENDBRANCH  23  24
ENDBRANCH  22  23
ENDBRANCH  21  22
ENDBRANCH  20  21
ENDBRANCH  19  20
ENDBRANCH  17  19
ENDBRANCH  12  17
BRANCH   1  27
ATOM     27  O   UNL     1      -0.788   9.283  22.008  0.00  0.00    +0.000 OA
BRANCH  27  29
ATOM     28  C   UNL     1      -1.467  11.157  23.284  0.00  0.00    +0.000 C 
ATOM     29  C   UNL     1      -0.470  10.048  23.126  0.00  0.00    +0.000 C 
ATOM     30  O   UNL     1       0.449   9.845  23.910  0.00  0.00    +0.000 OA
ENDBRANCH  27  29
ENDBRANCH   1  27
BRANCH  10  31
ATOM     31  O   UNL     1       1.661   4.861  20.802  0.00  0.00    +0.000 OA
BRANCH  31  32
ATOM     32  C   UNL     1       1.378   3.507  20.590  0.00  0.00    +0.000 C 
ATOM     33  C   UNL     1       2.201   2.676  21.535  0.00  0.00    +0.000 C 
ATOM     34  O   UNL     1       0.655   3.047  19.716  0.00  0.00    +0.000 OA
ENDBRANCH  31  32
ENDBRANCH  10  31
TORSDOF 12
ENDMDL
MODEL 2
REMARK VINA RESULT:      -7.5      2.034      3.421
REMARK  Name = 
REMARK  14 active torsions:
REMARK  status: ('A' for Active; 'I' for Inactive)
REMARK    1  A    between atoms: C_1  and  C_2
REMARK    2  A    between atoms: C_2  and  O_4
REMARK    3  A    between atoms: O_4  and  C_5
REMARK    4  A    between atoms: C_14  and  O_15
REMARK    5  A    between atoms: O_15  and  C_16
REMARK    6  A    between atoms: C_16  and  C_17
REMARK    7  A    between atoms: C_20  and  C_21
REMARK    8  A    between atoms: C_21  and  O_23
REMARK    9  A    between atoms: O_23  and  C_24
REMARK   10  A    between atoms: C_24  and  C_25
REMARK   11  A    between atoms: C_25  and  O_26
REMARK   12  A    between atoms: O_26  and  C_27
REMARK   13  A    between atoms: C_27  and  C_28
REMARK   14  A    between atoms: C_28  and  O_29
REMARK                            x       y       z     vdW  Elec       q    Type
REMARK                         _______ _______ _______ _____ _____    ______ ____
ROOT
ATOM      1  C   UNL     1      -0.426   9.543  20.797  0.00  0.00    +0.000 A 
ATOM      2  C   UNL     1      -1.077  10.658  20.256  0.00  0.00    +0.000 A 
ATOM      3  C   UNL     1      -0.717  11.129  18.999  0.00  0.00    +0.000 A 
ATOM      4  C   UNL     1       0.310  10.506  18.291  0.00  0.00    +0.000 A 
ATOM      5  C   UNL     1       0.990   9.411  18.847  0.00  0.00    +0.000 A 
ATOM      6  C   UNL     1       0.623   8.927  20.111  0.00  0.00    +0.000 A 
ATOM      7  C   UNL     1       1.408   7.818  20.691  0.00  0.00    +0.000 C 
ATOM      8  O   UNL     1       1.464   7.640  21.902  0.00  0.00    +0.000 OA
ATOM      9  C   UNL     1       2.234   6.983  19.795  0.00  0.00    +0.000 A 
ATOM     10  C   UNL     1       2.688   5.711  20.159  0.00  0.00    +0.000 A 
ATOM     11  C   UNL     1       3.717   5.091  19.437  0.00  0.00    +0.000 A 
ATOM     12  C   UNL     1       4.281   5.722  18.319  0.00  0.00    +0.000 A 
ATOM     13  C   UNL     1       3.736   6.932  17.875  0.00  0.00    +0.000 A 
ATOM     14  C   UNL     1       2.706   7.548  18.605  0.00  0.00    +0.000 A 
ATOM     15  C   UNL     1       2.112   8.806  18.108  0.00  0.00    +0.000 C 
ATOM     16  O   UNL     1       2.534   9.325  17.080  0.00  0.00    +0.000 OA
ENDROOT
BRANCH  12  17
ATOM     17  C   UNL     1       5.402   5.107  17.548  0.00  0.00    +0.000 C 
ATOM     18  O   UNL     1       6.058   4.157  17.937  0.00  0.00    +0.000 OA
BRANCH  17  19
ATOM     19  O   UNL     1       5.632   5.823  16.421  0.00  0.00    +0.000 OA
BRANCH  19  20
ATOM     20  C   UNL     1       6.369   5.129  15.410  0.00  0.00    +0.000 C 
BRANCH  20  21
ATOM     21  C   UNL     1       5.526   4.199  14.550  0.00  0.00    +0.000 C 
BRANCH  21  22
ATOM     22  O   UNL     1       6.428   3.476  13.701  0.00  0.00    +0.000 OA
BRANCH  22  23
ATOM     23  C   UNL     1       6.188   3.720  12.312  0.00  0.00    +0.000 C 
BRANCH  23  24
ATOM     24  C   UNL     1       5.318   2.588  11.769  0.00  0.00    +0.000 C 
BRANCH  24  25
ATOM     25  O   UNL     1       4.117   3.110  11.205  0.00  0.00    +0.000 OA
ATOM     26  H   UNL     1       3.648   3.544  11.944  0.00  0.00    +0.000 HD
ENDBRANCH  24  25
ENDBRANCH  23  24
ENDBRANCH  22  23
ENDBRANCH  21  22
ENDBRANCH  20  21
ENDBRANCH  19  20
ENDBRANCH  17  19
ENDBRANCH  12  17
BRANCH   1  27
ATOM     27  O   UNL     1      -0.782   9.130  22.091  0.00  0.00    +0.000 OA
BRANCH  27  29
ATOM     28  C   UNL     1      -1.411  11.093  23.253  0.00  0.00    +0.000 C 
ATOM     29  C   UNL     1      -0.409   9.985  23.124  0.00  0.00    +0.000 C 
ATOM     30  O   UNL     1       0.559   9.856  23.863  0.00  0.00    +0.000 OA
ENDBRANCH  27  29
ENDBRANCH   1  27
BRANCH  10  31
ATOM     31  O   UNL     1       2.234   4.977  21.277  0.00  0.00    +0.000 OA
BRANCH  31  32
ATOM     32  C   UNL     1       2.086   3.587  21.206  0.00  0.00    +0.000 C 
ATOM     33  C   UNL     1       0.987   3.256  20.235  0.00  0.00    +0.000 C 
ATOM     34  O   UNL     1       2.679   2.761  21.888  0.00  0.00    +0.000 OA
ENDBRANCH  31  32
ENDBRANCH  10  31
TORSDOF 12
ENDMDL
MODEL 3
REMARK VINA RESULT:      -7.4      3.432      6.501
REMARK  Name = 
REMARK  14 active torsions:
REMARK  status: ('A' for Active; 'I' for Inactive)
REMARK    1  A    between atoms: C_1  and  C_2
REMARK    2  A    between atoms: C_2  and  O_4
REMARK    3  A    between atoms: O_4  and  C_5
REMARK    4  A    between atoms: C_14  and  O_15
REMARK    5  A    between atoms: O_15  and  C_16
REMARK    6  A    between atoms: C_16  and  C_17
REMARK    7  A    between atoms: C_20  and  C_21
REMARK    8  A    between atoms: C_21  and  O_23
REMARK    9  A    between atoms: O_23  and  C_24
REMARK   10  A    between atoms: C_24  and  C_25
REMARK   11  A    between atoms: C_25  and  O_26
REMARK   12  A    between atoms: O_26  and  C_27
REMARK   13  A    between atoms: C_27  and  C_28
REMARK   14  A    between atoms: C_28  and  O_29
REMARK                            x       y       z     vdW  Elec       q    Type
REMARK                         _______ _______ _______ _____ _____    ______ ____
ROOT
ATOM      1  C   UNL     1       2.088   6.209  20.130  0.00  0.00    +0.000 A 
ATOM      2  C   UNL     1       1.131   5.392  20.743  0.00  0.00    +0.000 A 
ATOM      3  C   UNL     1       0.894   4.113  20.252  0.00  0.00    +0.000 A 
ATOM      4  C   UNL     1       1.591   3.658  19.133  0.00  0.00    +0.000 A 
ATOM      5  C   UNL     1       2.524   4.490  18.494  0.00  0.00    +0.000 A 
ATOM      6  C   UNL     1       2.773   5.777  18.993  0.00  0.00    +0.000 A 
ATOM      7  C   UNL     1       3.710   6.645  18.251  0.00  0.00    +0.000 C 
ATOM      8  O   UNL     1       3.647   7.867  18.331  0.00  0.00    +0.000 OA
ATOM      9  C   UNL     1       4.660   6.026  17.304  0.00  0.00    +0.000 A 
ATOM     10  C   UNL     1       5.814   6.682  16.863  0.00  0.00    +0.000 A 
ATOM     11  C   UNL     1       6.511   6.212  15.741  0.00  0.00    +0.000 A 
ATOM     12  C   UNL     1       6.081   5.060  15.067  0.00  0.00    +0.000 A 
ATOM     13  C   UNL     1       5.007   4.329  15.589  0.00  0.00    +0.000 A 
ATOM     14  C   UNL     1       4.313   4.807  16.713  0.00  0.00    +0.000 A 
ATOM     15  C   UNL     1       3.205   4.010  17.278  0.00  0.00    +0.000 C 
ATOM     16  O   UNL     1       2.873   2.953  16.754  0.00  0.00    +0.000 OA
ENDROOT
BRANCH  12  17
ATOM     17  C   UNL     1       6.778   4.552  13.849  0.00  0.00    +0.000 C 
ATOM     18  O   UNL     1       7.720   5.112  13.317  0.00  0.00    +0.000 OA
BRANCH  17  19
ATOM     19  O   UNL     1       6.142   3.450  13.382  0.00  0.00    +0.000 OA
BRANCH  19  20
ATOM     20  C   UNL     1       6.391   3.154  12.004  0.00  0.00    +0.000 C 
BRANCH  20  21
ATOM     21  C   UNL     1       5.365   2.225  11.370  0.00  0.00    +0.000 C 
BRANCH  21  22
ATOM     22  O   UNL     1       4.085   2.858  11.503  0.00  0.00    +0.000 OA
BRANCH  22  23
ATOM     23  C   UNL     1       3.941   3.988  10.637  0.00  0.00    +0.000 C 
BRANCH  23  24
ATOM     24  C   UNL     1       2.821   3.691   9.642  0.00  0.00    +0.000 C 
BRANCH  24  25
ATOM     25  O   UNL     1       2.943   4.525   8.492  0.00  0.00    +0.000 OA
ATOM     26  H   UNL     1       3.343   5.356   8.813  0.00  0.00    +0.000 HD
ENDBRANCH  24  25
ENDBRANCH  23  24
ENDBRANCH  22  23
ENDBRANCH  21  22
ENDBRANCH  20  21
ENDBRANCH  19  20
ENDBRANCH  17  19
ENDBRANCH  12  17
BRANCH   1  27
ATOM     27  O   UNL     1       2.260   7.513  20.623  0.00  0.00    +0.000 OA
BRANCH  27  29
ATOM     28  C   UNL     1       0.514   8.664  21.731  0.00  0.00    +0.000 C 
ATOM     29  C   UNL     1       1.192   8.382  20.423  0.00  0.00    +0.000 C 
ATOM     30  O   UNL     1       0.857   8.893  19.361  0.00  0.00    +0.000 OA
ENDBRANCH  27  29
ENDBRANCH   1  27
BRANCH  10  31
ATOM     31  O   UNL     1       6.341   7.866  17.424  0.00  0.00    +0.000 OA
BRANCH  31  32
ATOM     32  C   UNL     1       7.669   7.921  17.859  0.00  0.00    +0.000 C 
ATOM     33  C   UNL     1       7.972   6.695  18.675  0.00  0.00    +0.000 C 
ATOM     34  O   UNL     1       8.447   8.852  17.697  0.00  0.00    +0.000 OA
ENDBRANCH  31  32
ENDBRANCH  10  31
TORSDOF 12
ENDMDL
MODEL 4
REMARK VINA RESULT:      -7.4      3.263      5.880
REMARK  Name = 
REMARK  14 active torsions:
REMARK  status: ('A' for Active; 'I' for Inactive)
REMARK    1  A    between atoms: C_1  and  C_2
REMARK    2  A    between atoms: C_2  and  O_4
REMARK    3  A    between atoms: O_4  and  C_5
REMARK    4  A    between atoms: C_14  and  O_15
REMARK    5  A    between atoms: O_15  and  C_16
REMARK    6  A    between atoms: C_16  and  C_17
REMARK    7  A    between atoms: C_20  and  C_21
REMARK    8  A    between atoms: C_21  and  O_23
REMARK    9  A    between atoms: O_23  and  C_24
REMARK   10  A    between atoms: C_24  and  C_25
REMARK   11  A    between atoms: C_25  and  O_26
REMARK   12  A    between atoms: O_26  and  C_27
REMARK   13  A    between atoms: C_27  and  C_28
REMARK   14  A    between atoms: C_28  and  O_29
REMARK                            x       y       z     vdW  Elec       q    Type
REMARK                         _______ _______ _______ _____ _____    ______ ____
ROOT
ATOM      1  C   UNL     1      -4.722  12.795  19.436  0.00  0.00    +0.000 A 
ATOM      2  C   UNL     1      -5.913  12.743  18.702  0.00  0.00    +0.000 A 
ATOM      3  C   UNL     1      -6.012  11.902  17.599  0.00  0.00    +0.000 A 
ATOM      4  C   UNL     1      -4.915  11.133  17.211  0.00  0.00    +0.000 A 
ATOM      5  C   UNL     1      -3.707  11.212  17.923  0.00  0.00    +0.000 A 
ATOM      6  C   UNL     1      -3.608  12.051  19.042  0.00  0.00    +0.000 A 
ATOM      7  C   UNL     1      -2.300  12.158  19.722  0.00  0.00    +0.000 C 
ATOM      8  O   UNL     1      -2.002  13.148  20.379  0.00  0.00    +0.000 OA
ATOM      9  C   UNL     1      -1.294  11.099  19.504  0.00  0.00    +0.000 A 
ATOM     10  C   UNL     1      -0.215  10.897  20.372  0.00  0.00    +0.000 A 
ATOM     11  C   UNL     1       0.879  10.118  19.975  0.00  0.00    +0.000 A 
ATOM     12  C   UNL     1       0.893   9.499  18.716  0.00  0.00    +0.000 A 
ATOM     13  C   UNL     1      -0.243   9.590  17.903  0.00  0.00    +0.000 A 
ATOM     14  C   UNL     1      -1.336  10.376  18.308  0.00  0.00    +0.000 A 
ATOM     15  C   UNL     1      -2.544  10.435  17.460  0.00  0.00    +0.000 C 
ATOM     16  O   UNL     1      -2.584   9.827  16.396  0.00  0.00    +0.000 OA
ENDROOT
BRANCH  12  17
ATOM     17  C   UNL     1       2.056   8.691  18.246  0.00  0.00    +0.000 C 
ATOM     18  O   UNL     1       2.523   8.755  17.123  0.00  0.00    +0.000 OA
BRANCH  17  19
ATOM     19  O   UNL     1       2.433   7.822  19.215  0.00  0.00    +0.000 OA
BRANCH  19  20
ATOM     20  C   UNL     1       2.377   6.442  18.837  0.00  0.00    +0.000 C 
BRANCH  20  21
ATOM     21  C   UNL     1       3.224   5.523  19.705  0.00  0.00    +0.000 C 
BRANCH  21  22
ATOM     22  O   UNL     1       4.362   5.134  18.922  0.00  0.00    +0.000 OA
BRANCH  22  23
ATOM     23  C   UNL     1       4.069   5.074  17.523  0.00  0.00    +0.000 C 
BRANCH  23  24
ATOM     24  C   UNL     1       5.222   5.726  16.762  0.00  0.00    +0.000 C 
BRANCH  24  25
ATOM     25  O   UNL     1       4.799   6.955  16.176  0.00  0.00    +0.000 OA
ATOM     26  H   UNL     1       4.606   7.550  16.925  0.00  0.00    +0.000 HD
ENDBRANCH  24  25
ENDBRANCH  23  24
ENDBRANCH  22  23
ENDBRANCH  21  22
ENDBRANCH  20  21
ENDBRANCH  19  20
ENDBRANCH  17  19
ENDBRANCH  12  17
BRANCH   1  27
ATOM     27  O   UNL     1      -4.645  13.695  20.511  0.00  0.00    +0.000 OA
BRANCH  27  29
ATOM     28  C   UNL     1      -6.357  14.290  22.032  0.00  0.00    +0.000 C 
ATOM     29  C   UNL     1      -5.288  13.298  21.680  0.00  0.00    +0.000 C 
ATOM     30  O   UNL     1      -5.071  12.278  22.321  0.00  0.00    +0.000 OA
ENDBRANCH  27  29
ENDBRANCH   1  27
BRANCH  10  31
ATOM     31  O   UNL     1      -0.082  11.482  21.651  0.00  0.00    +0.000 OA
BRANCH  31  32
ATOM     32  C   UNL     1      -0.487  10.791  22.798  0.00  0.00    +0.000 C 
ATOM     33  C   UNL     1      -1.810  11.335  23.261  0.00  0.00    +0.000 C 
ATOM     34  O   UNL     1       0.161   9.945  23.400  0.00  0.00    +0.000 OA
ENDBRANCH  31  32
ENDBRANCH  10  31
TORSDOF 12
ENDMDL
MODEL 5
REMARK VINA RESULT:      -7.1      3.128      6.153
REMARK  Name = 
REMARK  14 active torsions:
REMARK  status: ('A' for Active; 'I' for Inactive)
REMARK    1  A    between atoms: C_1  and  C_2
REMARK    2  A    between atoms: C_2  and  O_4
REMARK    3  A    between atoms: O_4  and  C_5
REMARK    4  A    between atoms: C_14  and  O_15
REMARK    5  A    between atoms: O_15  and  C_16
REMARK    6  A    between atoms: C_16  and  C_17
REMARK    7  A    between atoms: C_20  and  C_21
REMARK    8  A    between atoms: C_21  and  O_23
REMARK    9  A    between atoms: O_23  and  C_24
REMARK   10  A    between atoms: C_24  and  C_25
REMARK   11  A    between atoms: C_25  and  O_26
REMARK   12  A    between atoms: O_26  and  C_27
REMARK   13  A    between atoms: C_27  and  C_28
REMARK   14  A    between atoms: C_28  and  O_29
REMARK                            x       y       z     vdW  Elec       q    Type
REMARK                         _______ _______ _______ _____ _____    ______ ____
ROOT
ATOM      1  C   UNL     1      -4.500  12.676  19.551  0.00  0.00    +0.000 A 
ATOM      2  C   UNL     1      -5.684  12.666  18.804  0.00  0.00    +0.000 A 
ATOM      3  C   UNL     1      -5.778  11.878  17.663  0.00  0.00    +0.000 A 
ATOM      4  C   UNL     1      -4.683  11.120  17.251  0.00  0.00    +0.000 A 
ATOM      5  C   UNL     1      -3.482  11.156  17.977  0.00  0.00    +0.000 A 
ATOM      6  C   UNL     1      -3.387  11.943  19.134  0.00  0.00    +0.000 A 
ATOM      7  C   UNL     1      -2.086  12.008  19.831  0.00  0.00    +0.000 C 
ATOM      8  O   UNL     1      -1.787  12.965  20.535  0.00  0.00    +0.000 OA
ATOM      9  C   UNL     1      -1.085  10.953  19.574  0.00  0.00    +0.000 A 
ATOM     10  C   UNL     1      -0.016  10.704  20.442  0.00  0.00    +0.000 A 
ATOM     11  C   UNL     1       1.076   9.935  20.020  0.00  0.00    +0.000 A 
ATOM     12  C   UNL     1       1.098   9.375  18.733  0.00  0.00    +0.000 A 
ATOM     13  C   UNL     1      -0.030   9.512  17.915  0.00  0.00    +0.000 A 
ATOM     14  C   UNL     1      -1.120  10.286  18.345  0.00  0.00    +0.000 A 
ATOM     15  C   UNL     1      -2.319  10.394  17.489  0.00  0.00    +0.000 C 
ATOM     16  O   UNL     1      -2.353   9.835  16.398  0.00  0.00    +0.000 OA
ENDROOT
BRANCH  12  17
ATOM     17  C   UNL     1       2.260   8.581  18.238  0.00  0.00    +0.000 C 
ATOM     18  O   UNL     1       2.914   8.870  17.252  0.00  0.00    +0.000 OA
BRANCH  17  19
ATOM     19  O   UNL     1       2.400   7.458  18.984  0.00  0.00    +0.000 OA
BRANCH  19  20
ATOM     20  C   UNL     1       2.351   6.235  18.241  0.00  0.00    +0.000 C 
BRANCH  20  21
ATOM     21  C   UNL     1       3.348   5.183  18.706  0.00  0.00    +0.000 C 
BRANCH  21  22
ATOM     22  O   UNL     1       3.094   4.948  20.097  0.00  0.00    +0.000 OA
BRANCH  22  23
ATOM     23  C   UNL     1       2.849   3.568  20.384  0.00  0.00    +0.000 C 
BRANCH  23  24
ATOM     24  C   UNL     1       1.444   3.440  20.970  0.00  0.00    +0.000 C 
BRANCH  24  25
ATOM     25  O   UNL     1       1.465   2.626  22.141  0.00  0.00    +0.000 OA
ATOM     26  H   UNL     1       1.344   3.242  22.889  0.00  0.00    +0.000 HD
ENDBRANCH  24  25
ENDBRANCH  23  24
ENDBRANCH  22  23
ENDBRANCH  21  22
ENDBRANCH  20  21
ENDBRANCH  19  20
ENDBRANCH  17  19
ENDBRANCH  12  17
BRANCH   1  27
ATOM     27  O   UNL     1      -4.427  13.525  20.668  0.00  0.00    +0.000 OA
BRANCH  27  29
ATOM     28  C   UNL     1      -4.195  13.167  22.995  0.00  0.00    +0.000 C 
ATOM     29  C   UNL     1      -5.103  13.090  21.804  0.00  0.00    +0.000 C 
ATOM     30  O   UNL     1      -6.274  12.736  21.864  0.00  0.00    +0.000 OA
ENDBRANCH  27  29
ENDBRANCH   1  27
BRANCH  10  31
ATOM     31  O   UNL     1       0.108  11.228  21.747  0.00  0.00    +0.000 OA
BRANCH  31  32
ATOM     32  C   UNL     1      -0.579  10.648  22.819  0.00  0.00    +0.000 C 
ATOM     33  C   UNL     1       0.165   9.424  23.278  0.00  0.00    +0.000 C 
ATOM     34  O   UNL     1      -1.661  11.005  23.264  0.00  0.00    +0.000 OA
ENDBRANCH  31  32
ENDBRANCH  10  31
TORSDOF 12
ENDMDL
MODEL 6
REMARK VINA RESULT:      -7.1      3.079      6.250
REMARK  Name = 
REMARK  14 active torsions:
REMARK  status: ('A' for Active; 'I' for Inactive)
REMARK    1  A    between atoms: C_1  and  C_2
REMARK    2  A    between atoms: C_2  and  O_4
REMARK    3  A    between atoms: O_4  and  C_5
REMARK    4  A    between atoms: C_14  and  O_15
REMARK    5  A    between atoms: O_15  and  C_16
REMARK    6  A    between atoms: C_16  and  C_17
REMARK    7  A    between atoms: C_20  and  C_21
REMARK    8  A    between atoms: C_21  and  O_23
REMARK    9  A    between atoms: O_23  and  C_24
REMARK   10  A    between atoms: C_24  and  C_25
REMARK   11  A    between atoms: C_25  and  O_26
REMARK   12  A    between atoms: O_26  and  C_27
REMARK   13  A    between atoms: C_27  and  C_28
REMARK   14  A    between atoms: C_28  and  O_29
REMARK                            x       y       z     vdW  Elec       q    Type
REMARK                         _______ _______ _______ _____ _____    ______ ____
ROOT
ATOM      1  C   UNL     1      -4.485  12.688  19.421  0.00  0.00    +0.000 A 
ATOM      2  C   UNL     1      -5.678  12.724  18.690  0.00  0.00    +0.000 A 
ATOM      3  C   UNL     1      -5.809  11.955  17.539  0.00  0.00    +0.000 A 
ATOM      4  C   UNL     1      -4.743  11.170  17.102  0.00  0.00    +0.000 A 
ATOM      5  C   UNL     1      -3.532  11.161  17.813  0.00  0.00    +0.000 A 
ATOM      6  C   UNL     1      -3.400  11.928  18.980  0.00  0.00    +0.000 A 
ATOM      7  C   UNL     1      -2.089  11.945  19.661  0.00  0.00    +0.000 C 
ATOM      8  O   UNL     1      -1.752  12.883  20.375  0.00  0.00    +0.000 OA
ATOM      9  C   UNL     1      -1.122  10.865  19.377  0.00  0.00    +0.000 A 
ATOM     10  C   UNL     1      -0.051  10.572  20.227  0.00  0.00    +0.000 A 
ATOM     11  C   UNL     1       1.013   9.777  19.781  0.00  0.00    +0.000 A 
ATOM     12  C   UNL     1       1.002   9.235  18.487  0.00  0.00    +0.000 A 
ATOM     13  C   UNL     1      -0.131   9.417  17.685  0.00  0.00    +0.000 A 
ATOM     14  C   UNL     1      -1.193  10.217  18.139  0.00  0.00    +0.000 A 
ATOM     15  C   UNL     1      -2.399  10.372  17.300  0.00  0.00    +0.000 C 
ATOM     16  O   UNL     1      -2.463   9.830  16.203  0.00  0.00    +0.000 OA
ENDROOT
BRANCH  12  17
ATOM     17  C   UNL     1       2.134   8.414  17.965  0.00  0.00    +0.000 C 
ATOM     18  O   UNL     1       3.048   8.859  17.294  0.00  0.00    +0.000 OA
BRANCH  17  19
ATOM     19  O   UNL     1       1.931   7.109  18.266  0.00  0.00    +0.000 OA
BRANCH  19  20
ATOM     20  C   UNL     1       3.031   6.466  18.918  0.00  0.00    +0.000 C 
BRANCH  20  21
ATOM     21  C   UNL     1       2.808   4.988  19.205  0.00  0.00    +0.000 C 
BRANCH  21  22
ATOM     22  O   UNL     1       1.538   4.873  19.861  0.00  0.00    +0.000 OA
BRANCH  22  23
ATOM     23  C   UNL     1       1.234   3.526  20.235  0.00  0.00    +0.000 C 
BRANCH  23  24
ATOM     24  C   UNL     1       0.905   2.738  18.968  0.00  0.00    +0.000 C 
BRANCH  24  25
ATOM     25  O   UNL     1       1.772   1.612  18.843  0.00  0.00    +0.000 OA
ATOM     26  H   UNL     1       1.490   0.987  19.538  0.00  0.00    +0.000 HD
ENDBRANCH  24  25
ENDBRANCH  23  24
ENDBRANCH  22  23
ENDBRANCH  21  22
ENDBRANCH  20  21
ENDBRANCH  19  20
ENDBRANCH  17  19
ENDBRANCH  12  17
BRANCH   1  27
ATOM     27  O   UNL     1      -4.373  13.518  20.548  0.00  0.00    +0.000 OA
BRANCH  27  29
ATOM     28  C   UNL     1      -4.247  13.713  22.903  0.00  0.00    +0.000 C 
ATOM     29  C   UNL     1      -4.858  12.989  21.741  0.00  0.00    +0.000 C 
ATOM     30  O   UNL     1      -5.692  12.100  21.857  0.00  0.00    +0.000 OA
ENDBRANCH  27  29
ENDBRANCH   1  27
BRANCH  10  31
ATOM     31  O   UNL     1       0.105  11.074  21.538  0.00  0.00    +0.000 OA
BRANCH  31  32
ATOM     32  C   UNL     1      -0.401  10.372  22.637  0.00  0.00    +0.000 C 
ATOM     33  C   UNL     1      -1.556  11.136  23.223  0.00  0.00    +0.000 C 
ATOM     34  O   UNL     1       0.066   9.348  23.120  0.00  0.00    +0.000 OA
ENDBRANCH  31  32
ENDBRANCH  10  31
TORSDOF 12
ENDMDL
MODEL 7
REMARK VINA RESULT:      -7.1      1.030      1.298
REMARK  Name = 
REMARK  14 active torsions:
REMARK  status: ('A' for Active; 'I' for Inactive)
REMARK    1  A    between atoms: C_1  and  C_2
REMARK    2  A    between atoms: C_2  and  O_4
REMARK    3  A    between atoms: O_4  and  C_5
REMARK    4  A    between atoms: C_14  and  O_15
REMARK    5  A    between atoms: O_15  and  C_16
REMARK    6  A    between atoms: C_16  and  C_17
REMARK    7  A    between atoms: C_20  and  C_21
REMARK    8  A    between atoms: C_21  and  O_23
REMARK    9  A    between atoms: O_23  and  C_24
REMARK   10  A    between atoms: C_24  and  C_25
REMARK   11  A    between atoms: C_25  and  O_26
REMARK   12  A    between atoms: O_26  and  C_27
REMARK   13  A    between atoms: C_27  and  C_28
REMARK   14  A    between atoms: C_28  and  O_29
REMARK                            x       y       z     vdW  Elec       q    Type
REMARK                         _______ _______ _______ _____ _____    ______ ____
ROOT
ATOM      1  C   UNL     1      -0.141   9.640  20.736  0.00  0.00    +0.000 A 
ATOM      2  C   UNL     1      -0.516  10.918  20.304  0.00  0.00    +0.000 A 
ATOM      3  C   UNL     1      -0.004  11.426  19.116  0.00  0.00    +0.000 A 
ATOM      4  C   UNL     1       0.903  10.673  18.372  0.00  0.00    +0.000 A 
ATOM      5  C   UNL     1       1.310   9.407  18.822  0.00  0.00    +0.000 A 
ATOM      6  C   UNL     1       0.787   8.886  20.015  0.00  0.00    +0.000 A 
ATOM      7  C   UNL     1       1.292   7.582  20.490  0.00  0.00    +0.000 C 
ATOM      8  O   UNL     1       1.250   7.274  21.675  0.00  0.00    +0.000 OA
ATOM      9  C   UNL     1       1.968   6.685  19.529  0.00  0.00    +0.000 A 
ATOM     10  C   UNL     1       2.125   5.315  19.764  0.00  0.00    +0.000 A 
ATOM     11  C   UNL     1       3.035   4.566  19.006  0.00  0.00    +0.000 A 
ATOM     12  C   UNL     1       3.774   5.171  17.979  0.00  0.00    +0.000 A 
ATOM     13  C   UNL     1       3.517   6.509  17.656  0.00  0.00    +0.000 A 
ATOM     14  C   UNL     1       2.605   7.254  18.422  0.00  0.00    +0.000 A 
ATOM     15  C   UNL     1       2.315   8.654  18.050  0.00  0.00    +0.000 C 
ATOM     16  O   UNL     1       2.886   9.172  17.097  0.00  0.00    +0.000 OA
ENDROOT
BRANCH  12  17
ATOM     17  C   UNL     1       4.777   4.412  17.175  0.00  0.00    +0.000 C 
ATOM     18  O   UNL     1       4.534   3.376  16.582  0.00  0.00    +0.000 OA
BRANCH  17  19
ATOM     19  O   UNL     1       5.995   4.993  17.294  0.00  0.00    +0.000 OA
BRANCH  19  20
ATOM     20  C   UNL     1       6.766   4.544  18.413  0.00  0.00    +0.000 C 
BRANCH  20  21
ATOM     21  C   UNL     1       7.204   5.656  19.356  0.00  0.00    +0.000 C 
BRANCH  21  22
ATOM     22  O   UNL     1       8.377   6.253  18.787  0.00  0.00    +0.000 OA
BRANCH  22  23
ATOM     23  C   UNL     1       8.333   7.682  18.817  0.00  0.00    +0.000 C 
BRANCH  23  24
ATOM     24  C   UNL     1       7.865   8.177  17.449  0.00  0.00    +0.000 C 
BRANCH  24  25
ATOM     25  O   UNL     1       7.746   7.086  16.539  0.00  0.00    +0.000 OA
ATOM     26  H   UNL     1       7.244   7.433  15.778  0.00  0.00    +0.000 HD
ENDBRANCH  24  25
ENDBRANCH  23  24
ENDBRANCH  22  23
ENDBRANCH  21  22
ENDBRANCH  20  21
ENDBRANCH  19  20
ENDBRANCH  17  19
ENDBRANCH  12  17
BRANCH   1  27
ATOM     27  O   UNL     1      -0.640   9.184  21.967  0.00  0.00    +0.000 OA
BRANCH  27  29
ATOM     28  C   UNL     1      -1.384  11.022  23.259  0.00  0.00    +0.000 C 
ATOM     29  C   UNL     1      -0.331   9.969  23.074  0.00  0.00    +0.000 C 
ATOM     30  O   UNL     1       0.621   9.823  23.829  0.00  0.00    +0.000 OA
ENDBRANCH  27  29
ENDBRANCH   1  27
BRANCH  10  31
ATOM     31  O   UNL     1       1.473   4.585  20.782  0.00  0.00    +0.000 OA
BRANCH  31  32
ATOM     32  C   UNL     1       1.851   3.270  21.072  0.00  0.00    +0.000 C 
ATOM     33  C   UNL     1       1.254   2.347  20.046  0.00  0.00    +0.000 C 
ATOM     34  O   UNL     1       2.483   2.897  22.052  0.00  0.00    +0.000 OA
ENDBRANCH  31  32
ENDBRANCH  10  31
TORSDOF 12
ENDMDL
MODEL 8
REMARK VINA RESULT:      -7.1      3.371      5.705
REMARK  Name = 
REMARK  14 active torsions:
REMARK  status: ('A' for Active; 'I' for Inactive)
REMARK    1  A    between atoms: C_1  and  C_2
REMARK    2  A    between atoms: C_2  and  O_4
REMARK    3  A    between atoms: O_4  and  C_5
REMARK    4  A    between atoms: C_14  and  O_15
REMARK    5  A    between atoms: O_15  and  C_16
REMARK    6  A    between atoms: C_16  and  C_17
REMARK    7  A    between atoms: C_20  and  C_21
REMARK    8  A    between atoms: C_21  and  O_23
REMARK    9  A    between atoms: O_23  and  C_24
REMARK   10  A    between atoms: C_24  and  C_25
REMARK   11  A    between atoms: C_25  and  O_26
REMARK   12  A    between atoms: O_26  and  C_27
REMARK   13  A    between atoms: C_27  and  C_28
REMARK   14  A    between atoms: C_28  and  O_29
REMARK                            x       y       z     vdW  Elec       q    Type
REMARK                         _______ _______ _______ _____ _____    ______ ____
ROOT
ATOM      1  C   UNL     1      -4.507  12.672  19.383  0.00  0.00    +0.000 A 
ATOM      2  C   UNL     1      -5.693  12.640  18.639  0.00  0.00    +0.000 A 
ATOM      3  C   UNL     1      -5.791  11.816  17.524  0.00  0.00    +0.000 A 
ATOM      4  C   UNL     1      -4.698  11.042  17.134  0.00  0.00    +0.000 A 
ATOM      5  C   UNL     1      -3.495  11.101  17.856  0.00  0.00    +0.000 A 
ATOM      6  C   UNL     1      -3.397  11.924  18.987  0.00  0.00    +0.000 A 
ATOM      7  C   UNL     1      -2.094  12.010  19.679  0.00  0.00    +0.000 C 
ATOM      8  O   UNL     1      -1.792  12.989  20.351  0.00  0.00    +0.000 OA
ATOM      9  C   UNL     1      -1.095  10.945  19.454  0.00  0.00    +0.000 A 
ATOM     10  C   UNL     1      -0.025  10.723  20.327  0.00  0.00    +0.000 A 
ATOM     11  C   UNL     1       1.066   9.939  19.928  0.00  0.00    +0.000 A 
ATOM     12  C   UNL     1       1.084   9.338  18.660  0.00  0.00    +0.000 A 
ATOM     13  C   UNL     1      -0.045   9.450  17.841  0.00  0.00    +0.000 A 
ATOM     14  C   UNL     1      -1.134  10.239  18.247  0.00  0.00    +0.000 A 
ATOM     15  C   UNL     1      -2.335  10.321  17.391  0.00  0.00    +0.000 C 
ATOM     16  O   UNL     1      -2.372   9.727  16.319  0.00  0.00    +0.000 OA
ENDROOT
BRANCH  12  17
ATOM     17  C   UNL     1       2.244   8.526  18.189  0.00  0.00    +0.000 C 
ATOM     18  O   UNL     1       2.919   8.802  17.213  0.00  0.00    +0.000 OA
BRANCH  17  19
ATOM     19  O   UNL     1       2.356   7.405  18.941  0.00  0.00    +0.000 OA
BRANCH  19  20
ATOM     20  C   UNL     1       2.898   6.273  18.253  0.00  0.00    +0.000 C 
BRANCH  20  21
ATOM     21  C   UNL     1       3.898   5.466  19.069  0.00  0.00    +0.000 C 
BRANCH  21  22
ATOM     22  O   UNL     1       5.207   5.831  18.610  0.00  0.00    +0.000 OA
BRANCH  22  23
ATOM     23  C   UNL     1       6.096   4.712  18.543  0.00  0.00    +0.000 C 
BRANCH  23  24
ATOM     24  C   UNL     1       6.774   4.719  17.174  0.00  0.00    +0.000 C 
BRANCH  24  25
ATOM     25  O   UNL     1       8.068   4.123  17.257  0.00  0.00    +0.000 OA
ATOM     26  H   UNL     1       8.617   4.759  17.754  0.00  0.00    +0.000 HD
ENDBRANCH  24  25
ENDBRANCH  23  24
ENDBRANCH  22  23
ENDBRANCH  21  22
ENDBRANCH  20  21
ENDBRANCH  19  20
ENDBRANCH  17  19
ENDBRANCH  12  17
BRANCH   1  27
ATOM     27  O   UNL     1      -4.431  13.557  20.471  0.00  0.00    +0.000 OA
BRANCH  27  29
ATOM     28  C   UNL     1      -5.759  12.669  22.216  0.00  0.00    +0.000 C 
ATOM     29  C   UNL     1      -5.612  13.745  21.182  0.00  0.00    +0.000 C 
ATOM     30  O   UNL     1      -6.409  14.664  21.041  0.00  0.00    +0.000 OA
ENDBRANCH  27  29
ENDBRANCH   1  27
BRANCH  10  31
ATOM     31  O   UNL     1       0.104  11.289  21.615  0.00  0.00    +0.000 OA
BRANCH  31  32
ATOM     32  C   UNL     1      -0.609  10.766  22.699  0.00  0.00    +0.000 C 
ATOM     33  C   UNL     1       0.005   9.456  23.108  0.00  0.00    +0.000 C 
ATOM     34  O   UNL     1      -1.628  11.235  23.190  0.00  0.00    +0.000 OA
ENDBRANCH  31  32
ENDBRANCH  10  31
TORSDOF 12
ENDMDL
MODEL 9
REMARK VINA RESULT:      -7.1      2.751      5.356
REMARK  Name = 
REMARK  14 active torsions:
REMARK  status: ('A' for Active; 'I' for Inactive)
REMARK    1  A    between atoms: C_1  and  C_2
REMARK    2  A    between atoms: C_2  and  O_4
REMARK    3  A    between atoms: O_4  and  C_5
REMARK    4  A    between atoms: C_14  and  O_15
REMARK    5  A    between atoms: O_15  and  C_16
REMARK    6  A    between atoms: C_16  and  C_17
REMARK    7  A    between atoms: C_20  and  C_21
REMARK    8  A    between atoms: C_21  and  O_23
REMARK    9  A    between atoms: O_23  and  C_24
REMARK   10  A    between atoms: C_24  and  C_25
REMARK   11  A    between atoms: C_25  and  O_26
REMARK   12  A    between atoms: O_26  and  C_27
REMARK   13  A    between atoms: C_27  and  C_28
REMARK   14  A    between atoms: C_28  and  O_29
REMARK                            x       y       z     vdW  Elec       q    Type
REMARK                         _______ _______ _______ _____ _____    ______ ____
ROOT
ATOM      1  C   UNL     1      -3.894  12.651  20.091  0.00  0.00    +0.000 A 
ATOM      2  C   UNL     1      -5.096  12.855  19.402  0.00  0.00    +0.000 A 
ATOM      3  C   UNL     1      -5.293  12.261  18.161  0.00  0.00    +0.000 A 
ATOM      4  C   UNL     1      -4.283  11.484  17.594  0.00  0.00    +0.000 A 
ATOM      5  C   UNL     1      -3.063  11.309  18.265  0.00  0.00    +0.000 A 
ATOM      6  C   UNL     1      -2.864  11.899  19.522  0.00  0.00    +0.000 A 
ATOM      7  C   UNL     1      -1.543  11.748  20.165  0.00  0.00    +0.000 C 
ATOM      8  O   UNL     1      -1.138  12.559  20.991  0.00  0.00    +0.000 OA
ATOM      9  C   UNL     1      -0.647  10.664  19.711  0.00  0.00    +0.000 A 
ATOM     10  C   UNL     1       0.419  10.197  20.486  0.00  0.00    +0.000 A 
ATOM     11  C   UNL     1       1.426   9.412  19.908  0.00  0.00    +0.000 A 
ATOM     12  C   UNL     1       1.360   9.055  18.553  0.00  0.00    +0.000 A 
ATOM     13  C   UNL     1       0.226   9.409  17.813  0.00  0.00    +0.000 A 
ATOM     14  C   UNL     1      -0.779  10.198  18.399  0.00  0.00    +0.000 A 
ATOM     15  C   UNL     1      -1.988  10.535  17.621  0.00  0.00    +0.000 C 
ATOM     16  O   UNL     1      -2.104  10.153  16.461  0.00  0.00    +0.000 OA
ENDROOT
BRANCH  12  17
ATOM     17  C   UNL     1       2.431   8.251  17.895  0.00  0.00    +0.000 C 
ATOM     18  O   UNL     1       3.048   8.611  16.909  0.00  0.00    +0.000 OA
BRANCH  17  19
ATOM     19  O   UNL     1       2.532   7.041  18.497  0.00  0.00    +0.000 OA
BRANCH  19  20
ATOM     20  C   UNL     1       3.324   6.083  17.788  0.00  0.00    +0.000 C 
BRANCH  20  21
ATOM     21  C   UNL     1       4.661   5.769  18.445  0.00  0.00    +0.000 C 
BRANCH  21  22
ATOM     22  O   UNL     1       4.376   5.248  19.751  0.00  0.00    +0.000 OA
BRANCH  22  23
ATOM     23  C   UNL     1       3.484   4.131  19.711  0.00  0.00    +0.000 C 
BRANCH  23  24
ATOM     24  C   UNL     1       2.493   4.266  20.866  0.00  0.00    +0.000 C 
BRANCH  24  25
ATOM     25  O   UNL     1       2.214   5.640  21.124  0.00  0.00    +0.000 OA
ATOM     26  H   UNL     1       2.939   6.138  20.702  0.00  0.00    +0.000 HD
ENDBRANCH  24  25
ENDBRANCH  23  24
ENDBRANCH  22  23
ENDBRANCH  21  22
ENDBRANCH  20  21
ENDBRANCH  19  20
ENDBRANCH  17  19
ENDBRANCH  12  17
BRANCH   1  27
ATOM     27  O   UNL     1      -3.713  13.311  21.317  0.00  0.00    +0.000 OA
BRANCH  27  29
ATOM     28  C   UNL     1      -3.294  12.422  23.470  0.00  0.00    +0.000 C 
ATOM     29  C   UNL     1      -4.322  12.719  22.419  0.00  0.00    +0.000 C 
ATOM     30  O   UNL     1      -5.519  12.500  22.560  0.00  0.00    +0.000 OA
ENDBRANCH  27  29
ENDBRANCH   1  27
BRANCH  10  31
ATOM     31  O   UNL     1       0.629  10.504  21.848  0.00  0.00    +0.000 OA
BRANCH  31  32
ATOM     32  C   UNL     1       0.240   9.609  22.850  0.00  0.00    +0.000 C 
ATOM     33  C   UNL     1      -0.649   8.554  22.252  0.00  0.00    +0.000 C 
ATOM     34  O   UNL     1       0.491   9.704  24.045  0.00  0.00    +0.000 OA
ENDBRANCH  31  32
ENDBRANCH  10  31
TORSDOF 12
ENDMDL
