MODEL 1
REMARK VINA RESULT:      -7.3      0.000      0.000
REMARK  Name = 
REMARK  5 active torsions:
REMARK  status: ('A' for Active; 'I' for Inactive)
REMARK    1  A    between atoms: C_1  and  C_2
REMARK    2  A    between atoms: C_3  and  N_4
REMARK    3  A    between atoms: C_7  and  C_8
REMARK    4  A    between atoms: N_18  and  C_19
REMARK    5  A    between atoms: N_25  and  C_26
REMARK                            x       y       z     vdW  Elec       q    Type
REMARK                         _______ _______ _______ _____ _____    ______ ____
ROOT
ATOM      1  C   UNL     1      -0.581  14.055  18.555  0.00  0.00    +0.000 C 
ATOM      2  C   UNL     1      -0.639  12.558  18.491  0.00  0.00    +0.000 A 
ATOM      3  C   UNL     1      -1.623  11.796  17.973  0.00  0.00    +0.000 A 
ATOM      4  C   UNL     1      -1.021  10.412  17.902  0.00  0.00    +0.000 A 
ATOM      5  O   UNL     1      -1.636   9.446  17.474  0.00  0.00    +0.000 OA
ATOM      6  N   UNL     1       0.268  10.506  18.429  0.00  0.00    +0.000 N 
ATOM      7  N   UNL     1       0.465  11.807  18.925  0.00  0.00    +0.000 N 
ATOM      8  C   UNL     1       1.819  12.358  18.909  0.00  0.00    +0.000 C 
ENDROOT
BRANCH   3   9
ATOM      9  N   UNL     1      -2.894  11.998  17.489  0.00  0.00    +0.000 N 
ATOM     10  C   UNL     1      -4.010  12.180  18.227  0.00  0.00    +0.000 A 
ATOM     11  N   UNL     1      -4.055  12.226  19.537  0.00  0.00    +0.000 NA
ATOM     12  C   UNL     1      -5.332  12.459  20.003  0.00  0.00    +0.000 A 
ATOM     13  C   UNL     1      -6.291  12.527  19.016  0.00  0.00    +0.000 A 
ATOM     14  S   UNL     1      -5.558  12.333  17.474  0.00  0.00    +0.000 S 
ATOM     15  H   UNL     1      -3.022  11.579  16.569  0.00  0.00    +0.000 HD
BRANCH  12  16
ATOM     16  C   UNL     1      -5.572  12.594  21.435  0.00  0.00    +0.000 A 
ATOM     17  C   UNL     1      -4.531  12.794  22.350  0.00  0.00    +0.000 A 
ATOM     18  C   UNL     1      -4.802  12.893  23.719  0.00  0.00    +0.000 A 
ATOM     19  C   UNL     1      -6.111  12.790  24.183  0.00  0.00    +0.000 A 
ATOM     20  C   UNL     1      -7.155  12.584  23.288  0.00  0.00    +0.000 A 
ATOM     21  C   UNL     1      -6.885  12.481  21.919  0.00  0.00    +0.000 A 
ENDBRANCH  12  16
ENDBRANCH   3   9
BRANCH   6  22
ATOM     22  C   UNL     1       1.063   9.412  18.824  0.00  0.00    +0.000 A 
ATOM     23  C   UNL     1       1.047   9.000  20.161  0.00  0.00    +0.000 A 
ATOM     24  C   UNL     1       1.711   7.833  20.542  0.00  0.00    +0.000 A 
ATOM     25  C   UNL     1       2.431   7.096  19.600  0.00  0.00    +0.000 A 
ATOM     26  C   UNL     1       2.494   7.530  18.278  0.00  0.00    +0.000 A 
ATOM     27  C   UNL     1       1.804   8.680  17.890  0.00  0.00    +0.000 A 
ENDBRANCH   6  22
TORSDOF 3
ENDMDL
MODEL 2
REMARK VINA RESULT:      -6.8      4.305      9.405
REMARK  Name = 
REMARK  5 active torsions:
REMARK  status: ('A' for Active; 'I' for Inactive)
REMARK    1  A    between atoms: C_1  and  C_2
REMARK    2  A    between atoms: C_3  and  N_4
REMARK    3  A    between atoms: C_7  and  C_8
REMARK    4  A    between atoms: N_18  and  C_19
REMARK    5  A    between atoms: N_25  and  C_26
REMARK                            x       y       z     vdW  Elec       q    Type
REMARK                         _______ _______ _______ _____ _____    ______ ____
ROOT
ATOM      1  C   UNL     1       1.593   8.732  17.978  0.00  0.00    +0.000 C 
ATOM      2  C   UNL     1       1.213   9.278  19.322  0.00  0.00    +0.000 A 
ATOM      3  C   UNL     1       1.237   8.634  20.507  0.00  0.00    +0.000 A 
ATOM      4  C   UNL     1       1.056   9.733  21.529  0.00  0.00    +0.000 A 
ATOM      5  O   UNL     1       1.029   9.516  22.731  0.00  0.00    +0.000 OA
ATOM      6  N   UNL     1       0.909  10.925  20.817  0.00  0.00    +0.000 N 
ATOM      7  N   UNL     1       0.866  10.633  19.442  0.00  0.00    +0.000 N 
ATOM      8  C   UNL     1       1.367  11.637  18.505  0.00  0.00    +0.000 C 
ENDROOT
BRANCH   3   9
ATOM      9  N   UNL     1       1.434   7.344  20.939  0.00  0.00    +0.000 N 
ATOM     10  C   UNL     1       2.108   6.376  20.281  0.00  0.00    +0.000 A 
ATOM     11  N   UNL     1       2.715   6.524  19.128  0.00  0.00    +0.000 NA
ATOM     12  C   UNL     1       3.346   5.365  18.724  0.00  0.00    +0.000 A 
ATOM     13  C   UNL     1       3.156   4.292  19.568  0.00  0.00    +0.000 A 
ATOM     14  S   UNL     1       2.196   4.770  20.912  0.00  0.00    +0.000 S 
ATOM     15  H   UNL     1       0.693   7.035  21.566  0.00  0.00    +0.000 HD
BRANCH  12  16
ATOM     16  C   UNL     1       4.119   5.350  17.488  0.00  0.00    +0.000 A 
ATOM     17  C   UNL     1       4.554   4.159  16.894  0.00  0.00    +0.000 A 
ATOM     18  C   UNL     1       5.317   4.190  15.721  0.00  0.00    +0.000 A 
ATOM     19  C   UNL     1       5.652   5.408  15.137  0.00  0.00    +0.000 A 
ATOM     20  C   UNL     1       5.235   6.601  15.718  0.00  0.00    +0.000 A 
ATOM     21  C   UNL     1       4.475   6.571  16.893  0.00  0.00    +0.000 A 
ENDBRANCH  12  16
ENDBRANCH   3   9
BRANCH   6  22
ATOM     22  C   UNL     1       0.425  12.133  21.355  0.00  0.00    +0.000 A 
ATOM     23  C   UNL     1      -0.798  12.141  22.033  0.00  0.00    +0.000 A 
ATOM     24  C   UNL     1      -1.224  13.293  22.698  0.00  0.00    +0.000 A 
ATOM     25  C   UNL     1      -0.452  14.455  22.650  0.00  0.00    +0.000 A 
ATOM     26  C   UNL     1       0.742  14.469  21.932  0.00  0.00    +0.000 A 
ATOM     27  C   UNL     1       1.182  13.308  21.294  0.00  0.00    +0.000 A 
ENDBRANCH   6  22
TORSDOF 3
ENDMDL
MODEL 3
REMARK VINA RESULT:      -6.7      3.528      8.071
REMARK  Name = 
REMARK  5 active torsions:
REMARK  status: ('A' for Active; 'I' for Inactive)
REMARK    1  A    between atoms: C_1  and  C_2
REMARK    2  A    between atoms: C_3  and  N_4
REMARK    3  A    between atoms: C_7  and  C_8
REMARK    4  A    between atoms: N_18  and  C_19
REMARK    5  A    between atoms: N_25  and  C_26
REMARK                            x       y       z     vdW  Elec       q    Type
REMARK                         _______ _______ _______ _____ _____    ______ ____
ROOT
ATOM      1  C   UNL     1      -1.312   9.614  17.012  0.00  0.00    +0.000 C 
ATOM      2  C   UNL     1      -0.611  10.228  18.187  0.00  0.00    +0.000 A 
ATOM      3  C   UNL     1       0.718  10.316  18.396  0.00  0.00    +0.000 A 
ATOM      4  C   UNL     1       0.847  11.279  19.553  0.00  0.00    +0.000 A 
ATOM      5  O   UNL     1       1.928  11.605  20.022  0.00  0.00    +0.000 OA
ATOM      6  N   UNL     1      -0.449  11.634  19.929  0.00  0.00    +0.000 N 
ATOM      7  N   UNL     1      -1.366  10.878  19.176  0.00  0.00    +0.000 N 
ATOM      8  C   UNL     1      -2.671  11.466  18.879  0.00  0.00    +0.000 C 
ENDROOT
BRANCH   3   9
ATOM      9  N   UNL     1       1.858   9.824  17.805  0.00  0.00    +0.000 N 
ATOM     10  C   UNL     1       2.351   8.574  17.942  0.00  0.00    +0.000 A 
ATOM     11  N   UNL     1       1.799   7.612  18.641  0.00  0.00    +0.000 NA
ATOM     12  C   UNL     1       2.518   6.437  18.563  0.00  0.00    +0.000 A 
ATOM     13  C   UNL     1       3.684   6.534  17.833  0.00  0.00    +0.000 A 
ATOM     14  S   UNL     1       3.849   8.125  17.206  0.00  0.00    +0.000 S 
ATOM     15  H   UNL     1       2.534  10.560  17.610  0.00  0.00    +0.000 HD
BRANCH  12  16
ATOM     16  C   UNL     1       2.031   5.239  19.235  0.00  0.00    +0.000 A 
ATOM     17  C   UNL     1       2.088   5.087  20.625  0.00  0.00    +0.000 A 
ATOM     18  C   UNL     1       1.633   3.909  21.228  0.00  0.00    +0.000 A 
ATOM     19  C   UNL     1       1.122   2.876  20.447  0.00  0.00    +0.000 A 
ATOM     20  C   UNL     1       1.066   3.007  19.064  0.00  0.00    +0.000 A 
ATOM     21  C   UNL     1       1.524   4.183  18.460  0.00  0.00    +0.000 A 
ENDBRANCH  12  16
ENDBRANCH   3   9
BRANCH   6  22
ATOM     22  C   UNL     1      -0.796  12.267  21.138  0.00  0.00    +0.000 A 
ATOM     23  C   UNL     1      -0.736  13.662  21.224  0.00  0.00    +0.000 A 
ATOM     24  C   UNL     1      -1.213  14.316  22.362  0.00  0.00    +0.000 A 
ATOM     25  C   UNL     1      -1.710  13.578  23.437  0.00  0.00    +0.000 A 
ATOM     26  C   UNL     1      -1.723  12.186  23.379  0.00  0.00    +0.000 A 
ATOM     27  C   UNL     1      -1.276  11.534  22.229  0.00  0.00    +0.000 A 
ENDBRANCH   6  22
TORSDOF 3
ENDMDL
MODEL 4
REMARK VINA RESULT:      -6.7      4.343      9.428
REMARK  Name = 
REMARK  5 active torsions:
REMARK  status: ('A' for Active; 'I' for Inactive)
REMARK    1  A    between atoms: C_1  and  C_2
REMARK    2  A    between atoms: C_3  and  N_4
REMARK    3  A    between atoms: C_7  and  C_8
REMARK    4  A    between atoms: N_18  and  C_19
REMARK    5  A    between atoms: N_25  and  C_26
REMARK                            x       y       z     vdW  Elec       q    Type
REMARK                         _______ _______ _______ _____ _____    ______ ____
ROOT
ATOM      1  C   UNL     1       1.487   8.782  18.015  0.00  0.00    +0.000 C 
ATOM      2  C   UNL     1       1.171   9.313  19.381  0.00  0.00    +0.000 A 
ATOM      3  C   UNL     1       1.228   8.649  20.554  0.00  0.00    +0.000 A 
ATOM      4  C   UNL     1       1.110   9.734  21.599  0.00  0.00    +0.000 A 
ATOM      5  O   UNL     1       1.125   9.499  22.798  0.00  0.00    +0.000 OA
ATOM      6  N   UNL     1       0.958  10.940  20.913  0.00  0.00    +0.000 N 
ATOM      7  N   UNL     1       0.856  10.672  19.536  0.00  0.00    +0.000 N 
ATOM      8  C   UNL     1       1.340  11.681  18.596  0.00  0.00    +0.000 C 
ENDROOT
BRANCH   3   9
ATOM      9  N   UNL     1       1.417   7.348  20.958  0.00  0.00    +0.000 N 
ATOM     10  C   UNL     1       2.100   6.396  20.288  0.00  0.00    +0.000 A 
ATOM     11  N   UNL     1       2.727   6.570  19.150  0.00  0.00    +0.000 NA
ATOM     12  C   UNL     1       3.364   5.421  18.728  0.00  0.00    +0.000 A 
ATOM     13  C   UNL     1       3.158   4.328  19.543  0.00  0.00    +0.000 A 
ATOM     14  S   UNL     1       2.176   4.774  20.881  0.00  0.00    +0.000 S 
ATOM     15  H   UNL     1       0.665   7.026  21.565  0.00  0.00    +0.000 HD
BRANCH  12  16
ATOM     16  C   UNL     1       4.158   5.435  17.506  0.00  0.00    +0.000 A 
ATOM     17  C   UNL     1       4.533   6.626  16.873  0.00  0.00    +0.000 A 
ATOM     18  C   UNL     1       5.274   6.593  15.686  0.00  0.00    +0.000 A 
ATOM     19  C   UNL     1       5.641   5.374  15.123  0.00  0.00    +0.000 A 
ATOM     20  C   UNL     1       5.269   4.182  15.735  0.00  0.00    +0.000 A 
ATOM     21  C   UNL     1       4.526   4.213  16.920  0.00  0.00    +0.000 A 
ENDBRANCH  12  16
ENDBRANCH   3   9
BRANCH   6  22
ATOM     22  C   UNL     1       0.520  12.149  21.489  0.00  0.00    +0.000 A 
ATOM     23  C   UNL     1       1.270  13.313  21.292  0.00  0.00    +0.000 A 
ATOM     24  C   UNL     1       0.778  14.545  21.729  0.00  0.00    +0.000 A 
ATOM     25  C   UNL     1      -0.441  14.613  22.404  0.00  0.00    +0.000 A 
ATOM     26  C   UNL     1      -1.167  13.450  22.650  0.00  0.00    +0.000 A 
ATOM     27  C   UNL     1      -0.690  12.223  22.185  0.00  0.00    +0.000 A 
ENDBRANCH   6  22
TORSDOF 3
ENDMDL
MODEL 5
REMARK VINA RESULT:      -6.7      4.217      9.944
REMARK  Name = 
REMARK  5 active torsions:
REMARK  status: ('A' for Active; 'I' for Inactive)
REMARK    1  A    between atoms: C_1  and  C_2
REMARK    2  A    between atoms: C_3  and  N_4
REMARK    3  A    between atoms: C_7  and  C_8
REMARK    4  A    between atoms: N_18  and  C_19
REMARK    5  A    between atoms: N_25  and  C_26
REMARK                            x       y       z     vdW  Elec       q    Type
REMARK                         _______ _______ _______ _____ _____    ______ ____
ROOT
ATOM      1  C   UNL     1       2.862   7.886  17.824  0.00  0.00    +0.000 C 
ATOM      2  C   UNL     1       1.946   8.401  18.894  0.00  0.00    +0.000 A 
ATOM      3  C   UNL     1       1.596   7.787  20.042  0.00  0.00    +0.000 A 
ATOM      4  C   UNL     1       0.922   8.870  20.851  0.00  0.00    +0.000 A 
ATOM      5  O   UNL     1       0.470   8.673  21.970  0.00  0.00    +0.000 OA
ATOM      6  N   UNL     1       0.918  10.020  20.061  0.00  0.00    +0.000 N 
ATOM      7  N   UNL     1       1.428   9.701  18.789  0.00  0.00    +0.000 N 
ATOM      8  C   UNL     1       2.127  10.745  18.041  0.00  0.00    +0.000 C 
ENDROOT
BRANCH   3   9
ATOM      9  N   UNL     1       1.762   6.540  20.599  0.00  0.00    +0.000 N 
ATOM     10  C   UNL     1       2.578   5.565  20.144  0.00  0.00    +0.000 A 
ATOM     11  N   UNL     1       3.375   5.664  19.108  0.00  0.00    +0.000 NA
ATOM     12  C   UNL     1       4.111   4.514  18.910  0.00  0.00    +0.000 A 
ATOM     13  C   UNL     1       3.814   3.493  19.787  0.00  0.00    +0.000 A 
ATOM     14  S   UNL     1       2.613   4.012  20.902  0.00  0.00    +0.000 S 
ATOM     15  H   UNL     1       0.933   6.238  21.109  0.00  0.00    +0.000 HD
BRANCH  12  16
ATOM     16  C   UNL     1       5.092   4.454  17.833  0.00  0.00    +0.000 A 
ATOM     17  C   UNL     1       6.458   4.661  18.056  0.00  0.00    +0.000 A 
ATOM     18  C   UNL     1       7.364   4.620  16.989  0.00  0.00    +0.000 A 
ATOM     19  C   UNL     1       6.910   4.376  15.696  0.00  0.00    +0.000 A 
ATOM     20  C   UNL     1       5.555   4.175  15.456  0.00  0.00    +0.000 A 
ATOM     21  C   UNL     1       4.649   4.219  16.521  0.00  0.00    +0.000 A 
ENDBRANCH  12  16
ENDBRANCH   3   9
BRANCH   6  22
ATOM     22  C   UNL     1       0.134  11.165  20.302  0.00  0.00    +0.000 A 
ATOM     23  C   UNL     1      -1.152  11.243  19.758  0.00  0.00    +0.000 A 
ATOM     24  C   UNL     1      -1.996  12.300  20.104  0.00  0.00    +0.000 A 
ATOM     25  C   UNL     1      -1.545  13.306  20.959  0.00  0.00    +0.000 A 
ATOM     26  C   UNL     1      -0.247  13.262  21.463  0.00  0.00    +0.000 A 
ATOM     27  C   UNL     1       0.586  12.189  21.141  0.00  0.00    +0.000 A 
ENDBRANCH   6  22
TORSDOF 3
ENDMDL
MODEL 6
REMARK VINA RESULT:      -6.6      6.151      9.510
REMARK  Name = 
REMARK  5 active torsions:
REMARK  status: ('A' for Active; 'I' for Inactive)
REMARK    1  A    between atoms: C_1  and  C_2
REMARK    2  A    between atoms: C_3  and  N_4
REMARK    3  A    between atoms: C_7  and  C_8
REMARK    4  A    between atoms: N_18  and  C_19
REMARK    5  A    between atoms: N_25  and  C_26
REMARK                            x       y       z     vdW  Elec       q    Type
REMARK                         _______ _______ _______ _____ _____    ______ ____
ROOT
ATOM      1  C   UNL     1       7.033   5.551  19.307  0.00  0.00    +0.000 C 
ATOM      2  C   UNL     1       6.382   4.916  18.114  0.00  0.00    +0.000 A 
ATOM      3  C   UNL     1       5.211   4.248  18.076  0.00  0.00    +0.000 A 
ATOM      4  C   UNL     1       4.912   4.108  16.602  0.00  0.00    +0.000 A 
ATOM      5  O   UNL     1       3.911   3.547  16.182  0.00  0.00    +0.000 OA
ATOM      6  N   UNL     1       5.979   4.692  15.917  0.00  0.00    +0.000 N 
ATOM      7  N   UNL     1       6.964   5.074  16.847  0.00  0.00    +0.000 N 
ATOM      8  C   UNL     1       7.807   6.225  16.530  0.00  0.00    +0.000 C 
ENDROOT
BRANCH   3   9
ATOM      9  N   UNL     1       4.299   3.776  18.992  0.00  0.00    +0.000 N 
ATOM     10  C   UNL     1       3.356   4.505  19.626  0.00  0.00    +0.000 A 
ATOM     11  N   UNL     1       3.136   5.785  19.444  0.00  0.00    +0.000 NA
ATOM     12  C   UNL     1       2.083   6.243  20.210  0.00  0.00    +0.000 A 
ATOM     13  C   UNL     1       1.533   5.292  21.042  0.00  0.00    +0.000 A 
ATOM     14  S   UNL     1       2.335   3.788  20.822  0.00  0.00    +0.000 S 
ATOM     15  H   UNL     1       4.644   2.953  19.483  0.00  0.00    +0.000 HD
BRANCH  12  16
ATOM     16  C   UNL     1       1.656   7.632  20.104  0.00  0.00    +0.000 A 
ATOM     17  C   UNL     1       1.048   8.310  21.168  0.00  0.00    +0.000 A 
ATOM     18  C   UNL     1       0.629   9.636  21.015  0.00  0.00    +0.000 A 
ATOM     19  C   UNL     1       0.810  10.292  19.801  0.00  0.00    +0.000 A 
ATOM     20  C   UNL     1       1.404   9.631  18.731  0.00  0.00    +0.000 A 
ATOM     21  C   UNL     1       1.821   8.304  18.881  0.00  0.00    +0.000 A 
ENDBRANCH  12  16
ENDBRANCH   3   9
BRANCH   6  22
ATOM     22  C   UNL     1       6.252   4.520  14.546  0.00  0.00    +0.000 A 
ATOM     23  C   UNL     1       7.344   5.182  13.976  0.00  0.00    +0.000 A 
ATOM     24  C   UNL     1       7.717   4.911  12.657  0.00  0.00    +0.000 A 
ATOM     25  C   UNL     1       6.974   4.014  11.889  0.00  0.00    +0.000 A 
ATOM     26  C   UNL     1       5.853   3.392  12.435  0.00  0.00    +0.000 A 
ATOM     27  C   UNL     1       5.499   3.639  13.763  0.00  0.00    +0.000 A 
ENDBRANCH   6  22
TORSDOF 3
ENDMDL
MODEL 7
REMARK VINA RESULT:      -6.6      4.169      9.941
REMARK  Name = 
REMARK  5 active torsions:
REMARK  status: ('A' for Active; 'I' for Inactive)
REMARK    1  A    between atoms: C_1  and  C_2
REMARK    2  A    between atoms: C_3  and  N_4
REMARK    3  A    between atoms: C_7  and  C_8
REMARK    4  A    between atoms: N_18  and  C_19
REMARK    5  A    between atoms: N_25  and  C_26
REMARK                            x       y       z     vdW  Elec       q    Type
REMARK                         _______ _______ _______ _____ _____    ______ ____
ROOT
ATOM      1  C   UNL     1       2.784   7.949  17.846  0.00  0.00    +0.000 C 
ATOM      2  C   UNL     1       1.892   8.470  18.933  0.00  0.00    +0.000 A 
ATOM      3  C   UNL     1       1.561   7.858  20.088  0.00  0.00    +0.000 A 
ATOM      4  C   UNL     1       0.910   8.945  20.911  0.00  0.00    +0.000 A 
ATOM      5  O   UNL     1       0.479   8.750  22.038  0.00  0.00    +0.000 OA
ATOM      6  N   UNL     1       0.897  10.095  20.120  0.00  0.00    +0.000 N 
ATOM      7  N   UNL     1       1.380   9.773  18.839  0.00  0.00    +0.000 N 
ATOM      8  C   UNL     1       2.070  10.813  18.077  0.00  0.00    +0.000 C 
ENDROOT
BRANCH   3   9
ATOM      9  N   UNL     1       1.731   6.610  20.643  0.00  0.00    +0.000 N 
ATOM     10  C   UNL     1       2.539   5.634  20.177  0.00  0.00    +0.000 A 
ATOM     11  N   UNL     1       3.324   5.732  19.131  0.00  0.00    +0.000 NA
ATOM     12  C   UNL     1       4.054   4.580  18.923  0.00  0.00    +0.000 A 
ATOM     13  C   UNL     1       3.765   3.559  19.802  0.00  0.00    +0.000 A 
ATOM     14  S   UNL     1       2.580   4.080  20.932  0.00  0.00    +0.000 S 
ATOM     15  H   UNL     1       0.908   6.309  21.162  0.00  0.00    +0.000 HD
BRANCH  12  16
ATOM     16  C   UNL     1       5.022   4.518  17.834  0.00  0.00    +0.000 A 
ATOM     17  C   UNL     1       4.643   4.254  16.512  0.00  0.00    +0.000 A 
ATOM     18  C   UNL     1       5.608   4.178  15.501  0.00  0.00    +0.000 A 
ATOM     19  C   UNL     1       6.954   4.361  15.803  0.00  0.00    +0.000 A 
ATOM     20  C   UNL     1       7.348   4.617  17.113  0.00  0.00    +0.000 A 
ATOM     21  C   UNL     1       6.385   4.690  18.125  0.00  0.00    +0.000 A 
ENDBRANCH  12  16
ENDBRANCH   3   9
BRANCH   6  22
ATOM     22  C   UNL     1       0.125  11.245  20.377  0.00  0.00    +0.000 A 
ATOM     23  C   UNL     1       0.693  12.308  21.086  0.00  0.00    +0.000 A 
ATOM     24  C   UNL     1      -0.005  13.510  21.224  0.00  0.00    +0.000 A 
ATOM     25  C   UNL     1      -1.289  13.640  20.694  0.00  0.00    +0.000 A 
ATOM     26  C   UNL     1      -1.882  12.566  20.033  0.00  0.00    +0.000 A 
ATOM     27  C   UNL     1      -1.172  11.375  19.868  0.00  0.00    +0.000 A 
ENDBRANCH   6  22
TORSDOF 3
ENDMDL
MODEL 8
REMARK VINA RESULT:      -6.6      3.575      8.063
REMARK  Name = 
REMARK  5 active torsions:
REMARK  status: ('A' for Active; 'I' for Inactive)
REMARK    1  A    between atoms: C_1  and  C_2
REMARK    2  A    between atoms: C_3  and  N_4
REMARK    3  A    between atoms: C_7  and  C_8
REMARK    4  A    between atoms: N_18  and  C_19
REMARK    5  A    between atoms: N_25  and  C_26
REMARK                            x       y       z     vdW  Elec       q    Type
REMARK                         _______ _______ _______ _____ _____    ______ ____
ROOT
ATOM      1  C   UNL     1      -1.278   9.450  16.915  0.00  0.00    +0.000 C 
ATOM      2  C   UNL     1      -0.610  10.127  18.074  0.00  0.00    +0.000 A 
ATOM      3  C   UNL     1       0.714  10.263  18.294  0.00  0.00    +0.000 A 
ATOM      4  C   UNL     1       0.801  11.271  19.417  0.00  0.00    +0.000 A 
ATOM      5  O   UNL     1       1.865  11.646  19.885  0.00  0.00    +0.000 OA
ATOM      6  N   UNL     1      -0.510  11.600  19.765  0.00  0.00    +0.000 N 
ATOM      7  N   UNL     1      -1.395  10.790  19.030  0.00  0.00    +0.000 N 
ATOM      8  C   UNL     1      -2.713  11.327  18.698  0.00  0.00    +0.000 C 
ENDROOT
BRANCH   3   9
ATOM      9  N   UNL     1       1.875   9.784  17.734  0.00  0.00    +0.000 N 
ATOM     10  C   UNL     1       2.378   8.540  17.883  0.00  0.00    +0.000 A 
ATOM     11  N   UNL     1       1.817   7.570  18.565  0.00  0.00    +0.000 NA
ATOM     12  C   UNL     1       2.552   6.404  18.505  0.00  0.00    +0.000 A 
ATOM     13  C   UNL     1       3.735   6.515  17.808  0.00  0.00    +0.000 A 
ATOM     14  S   UNL     1       3.900   8.109  17.187  0.00  0.00    +0.000 S 
ATOM     15  H   UNL     1       2.548  10.528  17.559  0.00  0.00    +0.000 HD
BRANCH  12  16
ATOM     16  C   UNL     1       2.059   5.199  19.162  0.00  0.00    +0.000 A 
ATOM     17  C   UNL     1       1.485   4.141  18.447  0.00  0.00    +0.000 A 
ATOM     18  C   UNL     1       1.002   3.013  19.119  0.00  0.00    +0.000 A 
ATOM     19  C   UNL     1       1.085   2.936  20.506  0.00  0.00    +0.000 A 
ATOM     20  C   UNL     1       1.645   3.982  21.233  0.00  0.00    +0.000 A 
ATOM     21  C   UNL     1       2.126   5.112  20.562  0.00  0.00    +0.000 A 
ENDBRANCH  12  16
ENDBRANCH   3   9
BRANCH   6  22
ATOM     22  C   UNL     1      -0.890  12.266  20.947  0.00  0.00    +0.000 A 
ATOM     23  C   UNL     1      -1.279  11.516  22.062  0.00  0.00    +0.000 A 
ATOM     24  C   UNL     1      -1.518  12.149  23.283  0.00  0.00    +0.000 A 
ATOM     25  C   UNL     1      -1.414  13.537  23.385  0.00  0.00    +0.000 A 
ATOM     26  C   UNL     1      -1.079  14.294  22.265  0.00  0.00    +0.000 A 
ATOM     27  C   UNL     1      -0.810  13.658  21.052  0.00  0.00    +0.000 A 
ENDBRANCH   6  22
TORSDOF 3
ENDMDL
MODEL 9
REMARK VINA RESULT:      -6.5      4.270      9.859
REMARK  Name = 
REMARK  5 active torsions:
REMARK  status: ('A' for Active; 'I' for Inactive)
REMARK    1  A    between atoms: C_1  and  C_2
REMARK    2  A    between atoms: C_3  and  N_4
REMARK    3  A    between atoms: C_7  and  C_8
REMARK    4  A    between atoms: N_18  and  C_19
REMARK    5  A    between atoms: N_25  and  C_26
REMARK                            x       y       z     vdW  Elec       q    Type
REMARK                         _______ _______ _______ _____ _____    ______ ____
ROOT
ATOM      1  C   UNL     1       2.429   7.887  17.795  0.00  0.00    +0.000 C 
ATOM      2  C   UNL     1       1.744   8.489  18.985  0.00  0.00    +0.000 A 
ATOM      3  C   UNL     1       1.519   7.910  20.182  0.00  0.00    +0.000 A 
ATOM      4  C   UNL     1       1.086   9.053  21.071  0.00  0.00    +0.000 A 
ATOM      5  O   UNL     1       0.797   8.900  22.248  0.00  0.00    +0.000 OA
ATOM      6  N   UNL     1       1.071  10.199  20.274  0.00  0.00    +0.000 N 
ATOM      7  N   UNL     1       1.344   9.833  18.944  0.00  0.00    +0.000 N 
ATOM      8  C   UNL     1       2.016  10.805  18.082  0.00  0.00    +0.000 C 
ENDROOT
BRANCH   3   9
ATOM      9  N   UNL     1       1.648   6.652  20.725  0.00  0.00    +0.000 N 
ATOM     10  C   UNL     1       2.452   5.667  20.271  0.00  0.00    +0.000 A 
ATOM     11  N   UNL     1       3.271   5.763  19.252  0.00  0.00    +0.000 NA
ATOM     12  C   UNL     1       3.987   4.601  19.051  0.00  0.00    +0.000 A 
ATOM     13  C   UNL     1       3.651   3.575  19.908  0.00  0.00    +0.000 A 
ATOM     14  S   UNL     1       2.441   4.103  21.007  0.00  0.00    +0.000 S 
ATOM     15  H   UNL     1       0.803   6.361  21.214  0.00  0.00    +0.000 HD
BRANCH  12  16
ATOM     16  C   UNL     1       4.987   4.535  17.992  0.00  0.00    +0.000 A 
ATOM     17  C   UNL     1       6.352   4.720  18.242  0.00  0.00    +0.000 A 
ATOM     18  C   UNL     1       7.276   4.674  17.192  0.00  0.00    +0.000 A 
ATOM     19  C   UNL     1       6.844   4.447  15.889  0.00  0.00    +0.000 A 
ATOM     20  C   UNL     1       5.490   4.269  15.622  0.00  0.00    +0.000 A 
ATOM     21  C   UNL     1       4.565   4.318  16.670  0.00  0.00    +0.000 A 
ENDBRANCH  12  16
ENDBRANCH   3   9
BRANCH   6  22
ATOM     22  C   UNL     1       0.448  11.415  20.618  0.00  0.00    +0.000 A 
ATOM     23  C   UNL     1       1.236  12.502  21.010  0.00  0.00    +0.000 A 
ATOM     24  C   UNL     1       0.652  13.754  21.213  0.00  0.00    +0.000 A 
ATOM     25  C   UNL     1      -0.727  13.915  21.070  0.00  0.00    +0.000 A 
ATOM     26  C   UNL     1      -1.524  12.823  20.732  0.00  0.00    +0.000 A 
ATOM     27  C   UNL     1      -0.936  11.579  20.498  0.00  0.00    +0.000 A 
ENDBRANCH   6  22
TORSDOF 3
ENDMDL
