MODEL 1
REMARK VINA RESULT:      -6.4      0.000      0.000
REMARK  Name = 
REMARK  7 active torsions:
REMARK  status: ('A' for Active; 'I' for Inactive)
REMARK    1  A    between atoms: C_1  and  C_2
REMARK    2  A    between atoms: C_4  and  N_5
REMARK    3  A    between atoms: N_5  and  C_6
REMARK    4  A    between atoms: C_6  and  C_7
REMARK    5  A    between atoms: C_7  and  N_8
REMARK    6  A    between atoms: N_8  and  C_9
REMARK    7  A    between atoms: N_8  and  C_10
REMARK                            x       y       z     vdW  Elec       q    Type
REMARK                         _______ _______ _______ _____ _____    ______ ____
ROOT
ATOM      1  C   UNL     1       8.111   7.861  18.328  0.00  0.00    +0.000 C 
ATOM      2  C   UNL     1       7.445   6.654  17.716  0.00  0.00    +0.000 A 
ATOM      3  C   UNL     1       6.744   5.720  18.650  0.00  0.00    +0.000 A 
ATOM      4  C   UNL     1       6.170   4.632  18.110  0.00  0.00    +0.000 A 
ATOM      5  N   UNL     1       6.264   4.454  16.707  0.00  0.00    +0.000 N 
ATOM      6  N   UNL     1       5.726   3.446  15.957  0.00  0.00    +0.000 NA
ATOM      7  C   UNL     1       6.047   3.765  14.702  0.00  0.00    +0.000 A 
ATOM      8  C   UNL     1       6.781   4.954  14.609  0.00  0.00    +0.000 A 
ATOM      9  C   UNL     1       6.917   5.396  15.906  0.00  0.00    +0.000 A 
ATOM     10  N   UNL     1       7.524   6.504  16.425  0.00  0.00    +0.000 NA
ENDROOT
BRANCH   4  11
ATOM     11  N   UNL     1       5.474   3.673  18.855  0.00  0.00    +0.000 N 
ATOM     12  H   UNL     1       5.865   2.740  18.673  0.00  0.00    +0.000 HD
BRANCH  11  13
ATOM     13  C   UNL     1       4.008   3.637  18.859  0.00  0.00    +0.000 C 
BRANCH  13  14
ATOM     14  C   UNL     1       3.412   4.515  19.985  0.00  0.00    +0.000 C 
BRANCH  14  15
ATOM     15  N   UNL     1       2.188   3.998  20.630  0.00  0.00    +0.000 NA
ATOM     16  C   UNL     1       1.157   3.654  19.650  0.00  0.00    +0.000 C 
ATOM     17  C   UNL     1       2.508   2.829  21.451  0.00  0.00    +0.000 C 
ENDBRANCH  14  15
ENDBRANCH  13  14
ENDBRANCH  11  13
ENDBRANCH   4  11
TORSDOF 4
ENDMDL
MODEL 2
REMARK VINA RESULT:      -6.3      1.335      2.914
REMARK  Name = 
REMARK  7 active torsions:
REMARK  status: ('A' for Active; 'I' for Inactive)
REMARK    1  A    between atoms: C_1  and  C_2
REMARK    2  A    between atoms: C_4  and  N_5
REMARK    3  A    between atoms: N_5  and  C_6
REMARK    4  A    between atoms: C_6  and  C_7
REMARK    5  A    between atoms: C_7  and  N_8
REMARK    6  A    between atoms: N_8  and  C_9
REMARK    7  A    between atoms: N_8  and  C_10
REMARK                            x       y       z     vdW  Elec       q    Type
REMARK                         _______ _______ _______ _____ _____    ______ ____
ROOT
ATOM      1  C   UNL     1       6.971   4.735  13.631  0.00  0.00    +0.000 C 
ATOM      2  C   UNL     1       6.696   4.709  15.114  0.00  0.00    +0.000 A 
ATOM      3  C   UNL     1       5.598   3.808  15.583  0.00  0.00    +0.000 A 
ATOM      4  C   UNL     1       5.336   3.799  16.901  0.00  0.00    +0.000 A 
ATOM      5  N   UNL     1       6.116   4.631  17.742  0.00  0.00    +0.000 N 
ATOM      6  N   UNL     1       6.040   4.746  19.103  0.00  0.00    +0.000 NA
ATOM      7  C   UNL     1       7.014   5.603  19.413  0.00  0.00    +0.000 A 
ATOM      8  C   UNL     1       7.726   6.054  18.294  0.00  0.00    +0.000 A 
ATOM      9  C   UNL     1       7.144   5.422  17.218  0.00  0.00    +0.000 A 
ATOM     10  N   UNL     1       7.426   5.465  15.883  0.00  0.00    +0.000 NA
ENDROOT
BRANCH   4  11
ATOM     11  N   UNL     1       4.345   3.004  17.489  0.00  0.00    +0.000 N 
ATOM     12  H   UNL     1       4.541   2.012  17.306  0.00  0.00    +0.000 HD
BRANCH  11  13
ATOM     13  C   UNL     1       2.923   3.304  17.295  0.00  0.00    +0.000 C 
BRANCH  13  14
ATOM     14  C   UNL     1       2.078   2.926  18.534  0.00  0.00    +0.000 C 
BRANCH  14  15
ATOM     15  N   UNL     1       2.405   3.642  19.784  0.00  0.00    +0.000 NA
ATOM     16  C   UNL     1       1.246   4.352  20.326  0.00  0.00    +0.000 C 
ATOM     17  C   UNL     1       2.927   2.703  20.778  0.00  0.00    +0.000 C 
ENDBRANCH  14  15
ENDBRANCH  13  14
ENDBRANCH  11  13
ENDBRANCH   4  11
TORSDOF 4
ENDMDL
MODEL 3
REMARK VINA RESULT:      -6.2      1.596      3.228
REMARK  Name = 
REMARK  7 active torsions:
REMARK  status: ('A' for Active; 'I' for Inactive)
REMARK    1  A    between atoms: C_1  and  C_2
REMARK    2  A    between atoms: C_4  and  N_5
REMARK    3  A    between atoms: N_5  and  C_6
REMARK    4  A    between atoms: C_6  and  C_7
REMARK    5  A    between atoms: C_7  and  N_8
REMARK    6  A    between atoms: N_8  and  C_9
REMARK    7  A    between atoms: N_8  and  C_10
REMARK                            x       y       z     vdW  Elec       q    Type
REMARK                         _______ _______ _______ _____ _____    ______ ____
ROOT
ATOM      1  C   UNL     1       6.664   4.159  13.802  0.00  0.00    +0.000 C 
ATOM      2  C   UNL     1       6.351   4.449  15.248  0.00  0.00    +0.000 A 
ATOM      3  C   UNL     1       4.914   4.373  15.658  0.00  0.00    +0.000 A 
ATOM      4  C   UNL     1       4.630   4.654  16.941  0.00  0.00    +0.000 A 
ATOM      5  N   UNL     1       5.701   4.991  17.805  0.00  0.00    +0.000 N 
ATOM      6  N   UNL     1       5.638   5.273  19.142  0.00  0.00    +0.000 NA
ATOM      7  C   UNL     1       6.909   5.466  19.495  0.00  0.00    +0.000 A 
ATOM      8  C   UNL     1       7.805   5.318  18.429  0.00  0.00    +0.000 A 
ATOM      9  C   UNL     1       7.020   5.009  17.340  0.00  0.00    +0.000 A 
ATOM     10  N   UNL     1       7.342   4.745  16.039  0.00  0.00    +0.000 NA
ENDROOT
BRANCH   4  11
ATOM     11  N   UNL     1       3.335   4.618  17.473  0.00  0.00    +0.000 N 
ATOM     12  H   UNL     1       3.354   4.921  18.455  0.00  0.00    +0.000 HD
BRANCH  11  13
ATOM     13  C   UNL     1       2.480   3.439  17.302  0.00  0.00    +0.000 C 
BRANCH  13  14
ATOM     14  C   UNL     1       2.945   2.255  18.182  0.00  0.00    +0.000 C 
BRANCH  14  15
ATOM     15  N   UNL     1       2.294   2.133  19.502  0.00  0.00    +0.000 NA
ATOM     16  C   UNL     1       3.077   2.777  20.558  0.00  0.00    +0.000 C 
ATOM     17  C   UNL     1       0.949   2.709  19.454  0.00  0.00    +0.000 C 
ENDBRANCH  14  15
ENDBRANCH  13  14
ENDBRANCH  11  13
ENDBRANCH   4  11
TORSDOF 4
ENDMDL
MODEL 4
REMARK VINA RESULT:      -6.2      0.702      1.015
REMARK  Name = 
REMARK  7 active torsions:
REMARK  status: ('A' for Active; 'I' for Inactive)
REMARK    1  A    between atoms: C_1  and  C_2
REMARK    2  A    between atoms: C_4  and  N_5
REMARK    3  A    between atoms: N_5  and  C_6
REMARK    4  A    between atoms: C_6  and  C_7
REMARK    5  A    between atoms: C_7  and  N_8
REMARK    6  A    between atoms: N_8  and  C_9
REMARK    7  A    between atoms: N_8  and  C_10
REMARK                            x       y       z     vdW  Elec       q    Type
REMARK                         _______ _______ _______ _____ _____    ______ ____
ROOT
ATOM      1  C   UNL     1       8.107   7.923  18.217  0.00  0.00    +0.000 C 
ATOM      2  C   UNL     1       7.473   6.693  17.618  0.00  0.00    +0.000 A 
ATOM      3  C   UNL     1       6.814   5.741  18.565  0.00  0.00    +0.000 A 
ATOM      4  C   UNL     1       6.268   4.633  18.037  0.00  0.00    +0.000 A 
ATOM      5  N   UNL     1       6.349   4.452  16.634  0.00  0.00    +0.000 N 
ATOM      6  N   UNL     1       5.832   3.424  15.894  0.00  0.00    +0.000 NA
ATOM      7  C   UNL     1       6.127   3.748  14.634  0.00  0.00    +0.000 A 
ATOM      8  C   UNL     1       6.822   4.959  14.526  0.00  0.00    +0.000 A 
ATOM      9  C   UNL     1       6.961   5.411  15.820  0.00  0.00    +0.000 A 
ATOM     10  N   UNL     1       7.539   6.540  16.326  0.00  0.00    +0.000 NA
ENDROOT
BRANCH   4  11
ATOM     11  N   UNL     1       5.612   3.655  18.794  0.00  0.00    +0.000 N 
ATOM     12  H   UNL     1       6.186   2.804  18.835  0.00  0.00    +0.000 HD
BRANCH  11  13
ATOM     13  C   UNL     1       4.204   3.329  18.551  0.00  0.00    +0.000 C 
BRANCH  13  14
ATOM     14  C   UNL     1       3.322   3.608  19.791  0.00  0.00    +0.000 C 
BRANCH  14  15
ATOM     15  N   UNL     1       2.215   4.566  19.598  0.00  0.00    +0.000 NA
ATOM     16  C   UNL     1       1.115   4.326  20.532  0.00  0.00    +0.000 C 
ATOM     17  C   UNL     1       2.707   5.937  19.744  0.00  0.00    +0.000 C 
ENDBRANCH  14  15
ENDBRANCH  13  14
ENDBRANCH  11  13
ENDBRANCH   4  11
TORSDOF 4
ENDMDL
MODEL 5
REMARK VINA RESULT:      -6.1      1.065      1.384
REMARK  Name = 
REMARK  7 active torsions:
REMARK  status: ('A' for Active; 'I' for Inactive)
REMARK    1  A    between atoms: C_1  and  C_2
REMARK    2  A    between atoms: C_4  and  N_5
REMARK    3  A    between atoms: N_5  and  C_6
REMARK    4  A    between atoms: C_6  and  C_7
REMARK    5  A    between atoms: C_7  and  N_8
REMARK    6  A    between atoms: N_8  and  C_9
REMARK    7  A    between atoms: N_8  and  C_10
REMARK                            x       y       z     vdW  Elec       q    Type
REMARK                         _______ _______ _______ _____ _____    ______ ____
ROOT
ATOM      1  C   UNL     1       8.051   7.208  18.387  0.00  0.00    +0.000 C 
ATOM      2  C   UNL     1       7.364   6.171  17.534  0.00  0.00    +0.000 A 
ATOM      3  C   UNL     1       6.445   5.220  18.234  0.00  0.00    +0.000 A 
ATOM      4  C   UNL     1       5.850   4.280  17.480  0.00  0.00    +0.000 A 
ATOM      5  N   UNL     1       6.128   4.263  16.091  0.00  0.00    +0.000 N 
ATOM      6  N   UNL     1       5.606   3.422  15.147  0.00  0.00    +0.000 NA
ATOM      7  C   UNL     1       6.137   3.850  14.000  0.00  0.00    +0.000 A 
ATOM      8  C   UNL     1       6.992   4.947  14.165  0.00  0.00    +0.000 A 
ATOM      9  C   UNL     1       6.981   5.211  15.517  0.00  0.00    +0.000 A 
ATOM     10  N   UNL     1       7.614   6.169  16.256  0.00  0.00    +0.000 NA
ENDROOT
BRANCH   4  11
ATOM     11  N   UNL     1       4.961   3.327  17.990  0.00  0.00    +0.000 N 
ATOM     12  H   UNL     1       4.148   3.241  17.368  0.00  0.00    +0.000 HD
BRANCH  11  13
ATOM     13  C   UNL     1       4.546   3.357  19.396  0.00  0.00    +0.000 C 
BRANCH  13  14
ATOM     14  C   UNL     1       3.062   3.765  19.553  0.00  0.00    +0.000 C 
BRANCH  14  15
ATOM     15  N   UNL     1       2.149   3.315  18.483  0.00  0.00    +0.000 NA
ATOM     16  C   UNL     1       1.054   2.497  19.006  0.00  0.00    +0.000 C 
ATOM     17  C   UNL     1       1.611   4.470  17.762  0.00  0.00    +0.000 C 
ENDBRANCH  14  15
ENDBRANCH  13  14
ENDBRANCH  11  13
ENDBRANCH   4  11
TORSDOF 4
ENDMDL
MODEL 6
REMARK VINA RESULT:      -6.1      1.319      2.885
REMARK  Name = 
REMARK  7 active torsions:
REMARK  status: ('A' for Active; 'I' for Inactive)
REMARK    1  A    between atoms: C_1  and  C_2
REMARK    2  A    between atoms: C_4  and  N_5
REMARK    3  A    between atoms: N_5  and  C_6
REMARK    4  A    between atoms: C_6  and  C_7
REMARK    5  A    between atoms: C_7  and  N_8
REMARK    6  A    between atoms: N_8  and  C_9
REMARK    7  A    between atoms: N_8  and  C_10
REMARK                            x       y       z     vdW  Elec       q    Type
REMARK                         _______ _______ _______ _____ _____    ______ ____
ROOT
ATOM      1  C   UNL     1       5.364   4.443  14.193  0.00  0.00    +0.000 C 
ATOM      2  C   UNL     1       5.786   4.665  15.624  0.00  0.00    +0.000 A 
ATOM      3  C   UNL     1       5.216   3.738  16.650  0.00  0.00    +0.000 A 
ATOM      4  C   UNL     1       5.572   3.948  17.929  0.00  0.00    +0.000 A 
ATOM      5  N   UNL     1       6.459   5.017  18.208  0.00  0.00    +0.000 N 
ATOM      6  N   UNL     1       6.972   5.379  19.423  0.00  0.00    +0.000 NA
ATOM      7  C   UNL     1       7.787   6.398  19.142  0.00  0.00    +0.000 A 
ATOM      8  C   UNL     1       7.823   6.713  17.778  0.00  0.00    +0.000 A 
ATOM      9  C   UNL     1       6.965   5.818  17.179  0.00  0.00    +0.000 A 
ATOM     10  N   UNL     1       6.611   5.642  15.872  0.00  0.00    +0.000 NA
ENDROOT
BRANCH   4  11
ATOM     11  N   UNL     1       5.127   3.160  18.996  0.00  0.00    +0.000 N 
ATOM     12  H   UNL     1       5.772   2.373  19.141  0.00  0.00    +0.000 HD
BRANCH  11  13
ATOM     13  C   UNL     1       3.731   2.718  19.079  0.00  0.00    +0.000 C 
BRANCH  13  14
ATOM     14  C   UNL     1       2.799   3.838  19.596  0.00  0.00    +0.000 C 
BRANCH  14  15
ATOM     15  N   UNL     1       1.413   3.436  19.908  0.00  0.00    +0.000 NA
ATOM     16  C   UNL     1       0.872   2.516  18.906  0.00  0.00    +0.000 C 
ATOM     17  C   UNL     1       1.355   2.822  21.235  0.00  0.00    +0.000 C 
ENDBRANCH  14  15
ENDBRANCH  13  14
ENDBRANCH  11  13
ENDBRANCH   4  11
TORSDOF 4
ENDMDL
MODEL 7
REMARK VINA RESULT:      -6.0      1.697      3.233
REMARK  Name = 
REMARK  7 active torsions:
REMARK  status: ('A' for Active; 'I' for Inactive)
REMARK    1  A    between atoms: C_1  and  C_2
REMARK    2  A    between atoms: C_4  and  N_5
REMARK    3  A    between atoms: N_5  and  C_6
REMARK    4  A    between atoms: C_6  and  C_7
REMARK    5  A    between atoms: C_7  and  N_8
REMARK    6  A    between atoms: N_8  and  C_9
REMARK    7  A    between atoms: N_8  and  C_10
REMARK                            x       y       z     vdW  Elec       q    Type
REMARK                         _______ _______ _______ _____ _____    ______ ____
ROOT
ATOM      1  C   UNL     1       6.320   4.194  13.958  0.00  0.00    +0.000 C 
ATOM      2  C   UNL     1       6.216   4.367  15.452  0.00  0.00    +0.000 A 
ATOM      3  C   UNL     1       5.025   3.758  16.123  0.00  0.00    +0.000 A 
ATOM      4  C   UNL     1       4.918   3.930  17.451  0.00  0.00    +0.000 A 
ATOM      5  N   UNL     1       5.934   4.663  18.114  0.00  0.00    +0.000 N 
ATOM      6  N   UNL     1       6.036   4.921  19.453  0.00  0.00    +0.000 NA
ATOM      7  C   UNL     1       7.186   5.588  19.569  0.00  0.00    +0.000 A 
ATOM      8  C   UNL     1       7.840   5.775  18.345  0.00  0.00    +0.000 A 
ATOM      9  C   UNL     1       7.028   5.173  17.408  0.00  0.00    +0.000 A 
ATOM     10  N   UNL     1       7.160   5.030  16.057  0.00  0.00    +0.000 NA
ENDROOT
BRANCH   4  11
ATOM     11  N   UNL     1       3.866   3.414  18.217  0.00  0.00    +0.000 N 
ATOM     12  H   UNL     1       3.825   2.393  18.109  0.00  0.00    +0.000 HD
BRANCH  11  13
ATOM     13  C   UNL     1       2.525   4.004  18.153  0.00  0.00    +0.000 C 
BRANCH  13  14
ATOM     14  C   UNL     1       2.565   5.547  18.265  0.00  0.00    +0.000 C 
BRANCH  14  15
ATOM     15  N   UNL     1       2.697   6.094  19.630  0.00  0.00    +0.000 NA
ATOM     16  C   UNL     1       2.169   7.456  19.726  0.00  0.00    +0.000 C 
ATOM     17  C   UNL     1       2.014   5.223  20.588  0.00  0.00    +0.000 C 
ENDBRANCH  14  15
ENDBRANCH  13  14
ENDBRANCH  11  13
ENDBRANCH   4  11
TORSDOF 4
ENDMDL
MODEL 8
REMARK VINA RESULT:      -5.9      2.003      3.190
REMARK  Name = 
REMARK  7 active torsions:
REMARK  status: ('A' for Active; 'I' for Inactive)
REMARK    1  A    between atoms: C_1  and  C_2
REMARK    2  A    between atoms: C_4  and  N_5
REMARK    3  A    between atoms: N_5  and  C_6
REMARK    4  A    between atoms: C_6  and  C_7
REMARK    5  A    between atoms: C_7  and  N_8
REMARK    6  A    between atoms: N_8  and  C_9
REMARK    7  A    between atoms: N_8  and  C_10
REMARK                            x       y       z     vdW  Elec       q    Type
REMARK                         _______ _______ _______ _____ _____    ______ ____
ROOT
ATOM      1  C   UNL     1       6.701   5.074  14.849  0.00  0.00    +0.000 C 
ATOM      2  C   UNL     1       5.850   5.239  16.084  0.00  0.00    +0.000 A 
ATOM      3  C   UNL     1       5.986   4.193  17.144  0.00  0.00    +0.000 A 
ATOM      4  C   UNL     1       5.212   4.326  18.235  0.00  0.00    +0.000 A 
ATOM      5  N   UNL     1       4.338   5.439  18.303  0.00  0.00    +0.000 N 
ATOM      6  N   UNL     1       3.499   5.780  19.328  0.00  0.00    +0.000 NA
ATOM      7  C   UNL     1       2.946   6.927  18.930  0.00  0.00    +0.000 A 
ATOM      8  C   UNL     1       3.398   7.348  17.673  0.00  0.00    +0.000 A 
ATOM      9  C   UNL     1       4.298   6.385  17.273  0.00  0.00    +0.000 A 
ATOM     10  N   UNL     1       5.060   6.272  16.145  0.00  0.00    +0.000 NA
ENDROOT
BRANCH   4  11
ATOM     11  N   UNL     1       5.232   3.432  19.312  0.00  0.00    +0.000 N 
ATOM     12  H   UNL     1       6.189   3.091  19.464  0.00  0.00    +0.000 HD
BRANCH  11  13
ATOM     13  C   UNL     1       4.262   2.336  19.403  0.00  0.00    +0.000 C 
BRANCH  13  14
ATOM     14  C   UNL     1       3.211   2.584  20.511  0.00  0.00    +0.000 C 
BRANCH  14  15
ATOM     15  N   UNL     1       1.797   2.534  20.085  0.00  0.00    +0.000 NA
ATOM     16  C   UNL     1       1.048   3.704  20.544  0.00  0.00    +0.000 C 
ATOM     17  C   UNL     1       1.715   2.426  18.628  0.00  0.00    +0.000 C 
ENDBRANCH  14  15
ENDBRANCH  13  14
ENDBRANCH  11  13
ENDBRANCH   4  11
TORSDOF 4
ENDMDL
MODEL 9
REMARK VINA RESULT:      -5.8      1.359      1.483
REMARK  Name = 
REMARK  7 active torsions:
REMARK  status: ('A' for Active; 'I' for Inactive)
REMARK    1  A    between atoms: C_1  and  C_2
REMARK    2  A    between atoms: C_4  and  N_5
REMARK    3  A    between atoms: N_5  and  C_6
REMARK    4  A    between atoms: C_6  and  C_7
REMARK    5  A    between atoms: C_7  and  N_8
REMARK    6  A    between atoms: N_8  and  C_9
REMARK    7  A    between atoms: N_8  and  C_10
REMARK                            x       y       z     vdW  Elec       q    Type
REMARK                         _______ _______ _______ _____ _____    ______ ____
ROOT
ATOM      1  C   UNL     1       7.839   7.486  18.058  0.00  0.00    +0.000 C 
ATOM      2  C   UNL     1       7.095   6.484  17.211  0.00  0.00    +0.000 A 
ATOM      3  C   UNL     1       5.860   5.882  17.803  0.00  0.00    +0.000 A 
ATOM      4  C   UNL     1       5.207   4.972  17.060  0.00  0.00    +0.000 A 
ATOM      5  N   UNL     1       5.727   4.658  15.780  0.00  0.00    +0.000 N 
ATOM      6  N   UNL     1       5.204   3.795  14.857  0.00  0.00    +0.000 NA
ATOM      7  C   UNL     1       6.027   3.898  13.812  0.00  0.00    +0.000 A 
ATOM      8  C   UNL     1       7.074   4.803  14.024  0.00  0.00    +0.000 A 
ATOM      9  C   UNL     1       6.875   5.293  15.296  0.00  0.00    +0.000 A 
ATOM     10  N   UNL     1       7.571   6.210  16.031  0.00  0.00    +0.000 NA
ENDROOT
BRANCH   4  11
ATOM     11  N   UNL     1       4.035   4.329  17.476  0.00  0.00    +0.000 N 
ATOM     12  H   UNL     1       3.747   3.639  16.771  0.00  0.00    +0.000 HD
BRANCH  11  13
ATOM     13  C   UNL     1       2.884   5.097  17.962  0.00  0.00    +0.000 C 
BRANCH  13  14
ATOM     14  C   UNL     1       1.591   4.247  17.986  0.00  0.00    +0.000 C 
BRANCH  14  15
ATOM     15  N   UNL     1       1.154   3.770  19.314  0.00  0.00    +0.000 NA
ATOM     16  C   UNL     1       1.649   2.423  19.600  0.00  0.00    +0.000 C 
ATOM     17  C   UNL     1       1.600   4.699  20.353  0.00  0.00    +0.000 C 
ENDBRANCH  14  15
ENDBRANCH  13  14
ENDBRANCH  11  13
ENDBRANCH   4  11
TORSDOF 4
ENDMDL
