MODEL 1
REMARK VINA RESULT:      -8.0      0.000      0.000
REMARK  Name = 
REMARK  5 active torsions:
REMARK  status: ('A' for Active; 'I' for Inactive)
REMARK    1  A    between atoms: C_2  and  O_3
REMARK    2  A    between atoms: C_2  and  C_4
REMARK    3  A    between atoms: C_8  and  C_9
REMARK    4  A    between atoms: C_18  and  C_19
REMARK    5  A    between atoms: C_31  and  O_32
REMARK                            x       y       z     vdW  Elec       q    Type
REMARK                         _______ _______ _______ _____ _____    ______ ____
ROOT
ATOM      1  C   UNL     1       5.738   3.255  12.378  0.00  0.00    +0.000 A 
ATOM      2  C   UNL     1       4.997   3.524  13.538  0.00  0.00    +0.000 A 
ATOM      3  C   UNL     1       5.513   4.316  14.551  0.00  0.00    +0.000 A 
ATOM      4  N   UNL     1       4.826   4.465  15.691  0.00  0.00    +0.000 NA
ATOM      5  C   UNL     1       5.369   5.229  16.684  0.00  0.00    +0.000 A 
ATOM      6  C   UNL     1       6.567   5.923  16.463  0.00  0.00    +0.000 A 
ATOM      7  N   UNL     1       7.277   5.742  15.305  0.00  0.00    +0.000 NA
ATOM      8  C   UNL     1       6.768   4.920  14.380  0.00  0.00    +0.000 A 
ATOM      9  C   UNL     1       7.512   4.657  13.246  0.00  0.00    +0.000 A 
ATOM     10  C   UNL     1       7.016   3.812  12.256  0.00  0.00    +0.000 A 
ENDROOT
BRANCH   5  11
ATOM     11  C   UNL     1       4.566   5.196  17.931  0.00  0.00    +0.000 A 
ATOM     12  C   UNL     1       3.798   6.296  18.400  0.00  0.00    +0.000 A 
ATOM     13  C   UNL     1       2.954   6.186  19.514  0.00  0.00    +0.000 A 
ATOM     14  C   UNL     1       2.927   4.980  20.173  0.00  0.00    +0.000 A 
ATOM     15  C   UNL     1       3.738   3.939  19.798  0.00  0.00    +0.000 A 
ATOM     16  C   UNL     1       4.569   4.021  18.707  0.00  0.00    +0.000 A 
ATOM     17  O   UNL     1       3.570   2.837  20.578  0.00  0.00    +0.000 OA
ATOM     18  C   UNL     1       2.360   3.220  21.271  0.00  0.00    +0.000 C 
ATOM     19  O   UNL     1       2.114   4.641  21.210  0.00  0.00    +0.000 OA
ENDBRANCH   5  11
BRANCH   6  20
ATOM     20  C   UNL     1       7.239   6.861  17.384  0.00  0.00    +0.000 A 
ATOM     21  C   UNL     1       7.897   6.454  18.574  0.00  0.00    +0.000 A 
ATOM     22  C   UNL     1       8.613   7.365  19.363  0.00  0.00    +0.000 A 
ATOM     23  C   UNL     1       8.636   8.677  18.956  0.00  0.00    +0.000 A 
ATOM     24  C   UNL     1       7.943   9.103  17.849  0.00  0.00    +0.000 A 
ATOM     25  C   UNL     1       7.233   8.232  17.060  0.00  0.00    +0.000 A 
ATOM     26  O   UNL     1       8.088  10.435  17.619  0.00  0.00    +0.000 OA
ATOM     27  C   UNL     1       9.150  10.730  18.548  0.00  0.00    +0.000 C 
ATOM     28  O   UNL     1       9.332   9.694  19.539  0.00  0.00    +0.000 OA
ENDBRANCH   6  20
BRANCH   1  30
ATOM     29  O   UNL     1       4.058   2.633  10.808  0.00  0.00    +0.000 OA
ATOM     30  C   UNL     1       5.105   2.359  11.369  0.00  0.00    +0.000 C 
BRANCH  30  31
ATOM     31  O   UNL     1       5.787   1.221  11.115  0.00  0.00    +0.000 OA
ATOM     32  H   UNL     1       5.519   0.791  10.272  0.00  0.00    +0.000 HD
ENDBRANCH  30  31
ENDBRANCH   1  30
BRANCH  10  33
ATOM     33  O   UNL     1       7.798   3.527  11.169  0.00  0.00    +0.000 OA
ATOM     34  H   UNL     1       7.970   2.565  11.149  0.00  0.00    +0.000 HD
ENDBRANCH  10  33
TORSDOF 5
ENDMDL
MODEL 2
REMARK VINA RESULT:      -7.9      4.078      8.799
REMARK  Name = 
REMARK  5 active torsions:
REMARK  status: ('A' for Active; 'I' for Inactive)
REMARK    1  A    between atoms: C_2  and  O_3
REMARK    2  A    between atoms: C_2  and  C_4
REMARK    3  A    between atoms: C_8  and  C_9
REMARK    4  A    between atoms: C_18  and  C_19
REMARK    5  A    between atoms: C_31  and  O_32
REMARK                            x       y       z     vdW  Elec       q    Type
REMARK                         _______ _______ _______ _____ _____    ______ ____
ROOT
ATOM      1  C   UNL     1       1.467  11.999  18.607  0.00  0.00    +0.000 A 
ATOM      2  C   UNL     1       2.298  11.086  17.942  0.00  0.00    +0.000 A 
ATOM      3  C   UNL     1       2.260   9.734  18.239  0.00  0.00    +0.000 A 
ATOM      4  N   UNL     1       3.140   8.904  17.664  0.00  0.00    +0.000 NA
ATOM      5  C   UNL     1       3.099   7.580  17.994  0.00  0.00    +0.000 A 
ATOM      6  C   UNL     1       2.086   7.094  18.833  0.00  0.00    +0.000 A 
ATOM      7  N   UNL     1       1.207   7.954  19.438  0.00  0.00    +0.000 NA
ATOM      8  C   UNL     1       1.321   9.259  19.168  0.00  0.00    +0.000 A 
ATOM      9  C   UNL     1       0.502  10.149  19.837  0.00  0.00    +0.000 A 
ATOM     10  C   UNL     1       0.584  11.515  19.580  0.00  0.00    +0.000 A 
ENDROOT
BRANCH   5  11
ATOM     11  C   UNL     1       4.211   6.807  17.389  0.00  0.00    +0.000 A 
ATOM     12  C   UNL     1       4.600   6.926  16.028  0.00  0.00    +0.000 A 
ATOM     13  C   UNL     1       5.735   6.273  15.523  0.00  0.00    +0.000 A 
ATOM     14  C   UNL     1       6.441   5.471  16.388  0.00  0.00    +0.000 A 
ATOM     15  C   UNL     1       6.023   5.262  17.677  0.00  0.00    +0.000 A 
ATOM     16  C   UNL     1       4.918   5.894  18.195  0.00  0.00    +0.000 A 
ATOM     17  O   UNL     1       6.849   4.431  18.368  0.00  0.00    +0.000 OA
ATOM     18  C   UNL     1       7.970   4.400  17.455  0.00  0.00    +0.000 C 
ATOM     19  O   UNL     1       7.612   4.829  16.124  0.00  0.00    +0.000 OA
ENDBRANCH   5  11
BRANCH   6  20
ATOM     20  C   UNL     1       1.836   5.689  19.212  0.00  0.00    +0.000 A 
ATOM     21  C   UNL     1       1.435   4.690  18.288  0.00  0.00    +0.000 A 
ATOM     22  C   UNL     1       1.313   3.346  18.670  0.00  0.00    +0.000 A 
ATOM     23  C   UNL     1       1.572   3.033  19.983  0.00  0.00    +0.000 A 
ATOM     24  C   UNL     1       1.888   3.998  20.908  0.00  0.00    +0.000 A 
ATOM     25  C   UNL     1       2.013   5.321  20.560  0.00  0.00    +0.000 A 
ATOM     26  O   UNL     1       2.101   3.486  22.149  0.00  0.00    +0.000 OA
ATOM     27  C   UNL     1       2.137   2.081  21.832  0.00  0.00    +0.000 C 
ATOM     28  O   UNL     1       1.582   1.785  20.531  0.00  0.00    +0.000 OA
ENDBRANCH   6  20
BRANCH   1  30
ATOM     29  O   UNL     1       0.746  14.264  18.449  0.00  0.00    +0.000 OA
ATOM     30  C   UNL     1       1.616  13.436  18.240  0.00  0.00    +0.000 C 
BRANCH  30  31
ATOM     31  O   UNL     1       2.796  13.754  17.664  0.00  0.00    +0.000 OA
ATOM     32  H   UNL     1       3.336  12.965  17.433  0.00  0.00    +0.000 HD
ENDBRANCH  30  31
ENDBRANCH   1  30
BRANCH  10  33
ATOM     33  O   UNL     1      -0.202  12.377  20.297  0.00  0.00    +0.000 OA
ATOM     34  H   UNL     1      -0.158  12.131  21.242  0.00  0.00    +0.000 HD
ENDBRANCH  10  33
TORSDOF 5
ENDMDL
MODEL 3
REMARK VINA RESULT:      -7.8      3.991      8.832
REMARK  Name = 
REMARK  5 active torsions:
REMARK  status: ('A' for Active; 'I' for Inactive)
REMARK    1  A    between atoms: C_2  and  O_3
REMARK    2  A    between atoms: C_2  and  C_4
REMARK    3  A    between atoms: C_8  and  C_9
REMARK    4  A    between atoms: C_18  and  C_19
REMARK    5  A    between atoms: C_31  and  O_32
REMARK                            x       y       z     vdW  Elec       q    Type
REMARK                         _______ _______ _______ _____ _____    ______ ____
ROOT
ATOM      1  C   UNL     1       1.542  11.957  18.516  0.00  0.00    +0.000 A 
ATOM      2  C   UNL     1       2.448  11.077  17.907  0.00  0.00    +0.000 A 
ATOM      3  C   UNL     1       2.429   9.721  18.188  0.00  0.00    +0.000 A 
ATOM      4  N   UNL     1       3.375   8.924  17.674  0.00  0.00    +0.000 NA
ATOM      5  C   UNL     1       3.351   7.596  17.987  0.00  0.00    +0.000 A 
ATOM      6  C   UNL     1       2.293   7.070  18.742  0.00  0.00    +0.000 A 
ATOM      7  N   UNL     1       1.345   7.896  19.287  0.00  0.00    +0.000 NA
ATOM      8  C   UNL     1       1.438   9.207  19.038  0.00  0.00    +0.000 A 
ATOM      9  C   UNL     1       0.544  10.064  19.652  0.00  0.00    +0.000 A 
ATOM     10  C   UNL     1       0.603  11.435  19.415  0.00  0.00    +0.000 A 
ENDROOT
BRANCH   5  11
ATOM     11  C   UNL     1       4.528   6.864  17.460  0.00  0.00    +0.000 A 
ATOM     12  C   UNL     1       5.535   6.298  18.287  0.00  0.00    +0.000 A 
ATOM     13  C   UNL     1       6.566   5.506  17.760  0.00  0.00    +0.000 A 
ATOM     14  C   UNL     1       6.596   5.330  16.397  0.00  0.00    +0.000 A 
ATOM     15  C   UNL     1       5.694   5.953  15.572  0.00  0.00    +0.000 A 
ATOM     16  C   UNL     1       4.673   6.729  16.066  0.00  0.00    +0.000 A 
ATOM     17  O   UNL     1       5.896   5.660  14.259  0.00  0.00    +0.000 OA
ATOM     18  C   UNL     1       6.823   4.561  14.401  0.00  0.00    +0.000 C 
ATOM     19  O   UNL     1       7.450   4.531  15.702  0.00  0.00    +0.000 OA
ENDBRANCH   5  11
BRANCH   6  20
ATOM     20  C   UNL     1       2.059   5.654  19.088  0.00  0.00    +0.000 A 
ATOM     21  C   UNL     1       1.812   4.644  18.122  0.00  0.00    +0.000 A 
ATOM     22  C   UNL     1       1.700   3.294  18.487  0.00  0.00    +0.000 A 
ATOM     23  C   UNL     1       1.815   2.985  19.820  0.00  0.00    +0.000 A 
ATOM     24  C   UNL     1       1.980   3.957  20.777  0.00  0.00    +0.000 A 
ATOM     25  C   UNL     1       2.090   5.286  20.447  0.00  0.00    +0.000 A 
ATOM     26  O   UNL     1       2.065   3.448  22.034  0.00  0.00    +0.000 OA
ATOM     27  C   UNL     1       2.197   2.046  21.723  0.00  0.00    +0.000 C 
ATOM     28  O   UNL     1       1.812   1.736  20.365  0.00  0.00    +0.000 OA
ENDBRANCH   6  20
BRANCH   1  30
ATOM     29  O   UNL     1       0.868  14.242  18.538  0.00  0.00    +0.000 OA
ATOM     30  C   UNL     1       1.673  13.402  18.175  0.00  0.00    +0.000 C 
BRANCH  30  31
ATOM     31  O   UNL     1       2.762  13.711  17.437  0.00  0.00    +0.000 OA
ATOM     32  H   UNL     1       2.685  13.427  16.499  0.00  0.00    +0.000 HD
ENDBRANCH  30  31
ENDBRANCH   1  30
BRANCH  10  33
ATOM     33  O   UNL     1      -0.261  12.264  20.078  0.00  0.00    +0.000 OA
ATOM     34  H   UNL     1       0.258  12.929  20.572  0.00  0.00    +0.000 HD
ENDBRANCH  10  33
TORSDOF 5
ENDMDL
MODEL 4
REMARK VINA RESULT:      -7.7      3.798      7.456
REMARK  Name = 
REMARK  5 active torsions:
REMARK  status: ('A' for Active; 'I' for Inactive)
REMARK    1  A    between atoms: C_2  and  O_3
REMARK    2  A    between atoms: C_2  and  C_4
REMARK    3  A    between atoms: C_8  and  C_9
REMARK    4  A    between atoms: C_18  and  C_19
REMARK    5  A    between atoms: C_31  and  O_32
REMARK                            x       y       z     vdW  Elec       q    Type
REMARK                         _______ _______ _______ _____ _____    ______ ____
ROOT
ATOM      1  C   UNL     1       0.306  10.614  19.556  0.00  0.00    +0.000 A 
ATOM      2  C   UNL     1       0.582   9.265  19.823  0.00  0.00    +0.000 A 
ATOM      3  C   UNL     1       1.581   8.589  19.141  0.00  0.00    +0.000 A 
ATOM      4  N   UNL     1       1.747   7.276  19.341  0.00  0.00    +0.000 NA
ATOM      5  C   UNL     1       2.721   6.627  18.637  0.00  0.00    +0.000 A 
ATOM      6  C   UNL     1       3.591   7.350  17.808  0.00  0.00    +0.000 A 
ATOM      7  N   UNL     1       3.396   8.689  17.588  0.00  0.00    +0.000 NA
ATOM      8  C   UNL     1       2.380   9.286  18.222  0.00  0.00    +0.000 A 
ATOM      9  C   UNL     1       2.114  10.614  17.944  0.00  0.00    +0.000 A 
ATOM     10  C   UNL     1       1.070  11.274  18.586  0.00  0.00    +0.000 A 
ENDROOT
BRANCH   5  11
ATOM     11  C   UNL     1       2.703   5.161  18.858  0.00  0.00    +0.000 A 
ATOM     12  C   UNL     1       1.631   4.319  18.457  0.00  0.00    +0.000 A 
ATOM     13  C   UNL     1       1.705   2.923  18.568  0.00  0.00    +0.000 A 
ATOM     14  C   UNL     1       2.843   2.391  19.126  0.00  0.00    +0.000 A 
ATOM     15  C   UNL     1       3.845   3.191  19.614  0.00  0.00    +0.000 A 
ATOM     16  C   UNL     1       3.798   4.561  19.511  0.00  0.00    +0.000 A 
ATOM     17  O   UNL     1       4.880   2.477  20.133  0.00  0.00    +0.000 OA
ATOM     18  C   UNL     1       4.534   1.164  19.636  0.00  0.00    +0.000 C 
ATOM     19  O   UNL     1       3.149   1.070  19.239  0.00  0.00    +0.000 OA
ENDBRANCH   5  11
BRANCH   6  20
ATOM     20  C   UNL     1       4.749   6.829  17.057  0.00  0.00    +0.000 A 
ATOM     21  C   UNL     1       6.097   7.052  17.443  0.00  0.00    +0.000 A 
ATOM     22  C   UNL     1       7.164   6.450  16.761  0.00  0.00    +0.000 A 
ATOM     23  C   UNL     1       6.859   5.650  15.686  0.00  0.00    +0.000 A 
ATOM     24  C   UNL     1       5.566   5.482  15.252  0.00  0.00    +0.000 A 
ATOM     25  C   UNL     1       4.504   6.062  15.901  0.00  0.00    +0.000 A 
ATOM     26  O   UNL     1       5.477   4.661  14.173  0.00  0.00    +0.000 OA
ATOM     27  C   UNL     1       6.820   4.137  14.151  0.00  0.00    +0.000 C 
ATOM     28  O   UNL     1       7.739   4.920  14.944  0.00  0.00    +0.000 OA
ENDBRANCH   6  20
BRANCH   1  30
ATOM     29  O   UNL     1      -1.693  11.891  19.783  0.00  0.00    +0.000 OA
ATOM     30  C   UNL     1      -0.815  11.234  20.318  0.00  0.00    +0.000 C 
BRANCH  30  31
ATOM     31  O   UNL     1      -0.790  11.006  21.649  0.00  0.00    +0.000 OA
ATOM     32  H   UNL     1      -1.443  11.548  22.145  0.00  0.00    +0.000 HD
ENDBRANCH  30  31
ENDBRANCH   1  30
BRANCH  10  33
ATOM     33  O   UNL     1       0.796  12.573  18.251  0.00  0.00    +0.000 OA
ATOM     34  H   UNL     1       1.603  13.108  18.382  0.00  0.00    +0.000 HD
ENDBRANCH  10  33
TORSDOF 5
ENDMDL
MODEL 5
REMARK VINA RESULT:      -7.6      4.129      7.523
REMARK  Name = 
REMARK  5 active torsions:
REMARK  status: ('A' for Active; 'I' for Inactive)
REMARK    1  A    between atoms: C_2  and  O_3
REMARK    2  A    between atoms: C_2  and  C_4
REMARK    3  A    between atoms: C_8  and  C_9
REMARK    4  A    between atoms: C_18  and  C_19
REMARK    5  A    between atoms: C_31  and  O_32
REMARK                            x       y       z     vdW  Elec       q    Type
REMARK                         _______ _______ _______ _____ _____    ______ ____
ROOT
ATOM      1  C   UNL     1       0.280  11.340  19.169  0.00  0.00    +0.000 A 
ATOM      2  C   UNL     1       0.348   9.997  19.566  0.00  0.00    +0.000 A 
ATOM      3  C   UNL     1       1.336   9.156  19.083  0.00  0.00    +0.000 A 
ATOM      4  N   UNL     1       1.310   7.854  19.396  0.00  0.00    +0.000 NA
ATOM      5  C   UNL     1       2.280   7.040  18.885  0.00  0.00    +0.000 A 
ATOM      6  C   UNL     1       3.335   7.585  18.140  0.00  0.00    +0.000 A 
ATOM      7  N   UNL     1       3.340   8.912  17.801  0.00  0.00    +0.000 NA
ATOM      8  C   UNL     1       2.332   9.674  18.240  0.00  0.00    +0.000 A 
ATOM      9  C   UNL     1       2.272  10.994  17.835  0.00  0.00    +0.000 A 
ATOM     10  C   UNL     1       1.243  11.823  18.274  0.00  0.00    +0.000 A 
ENDROOT
BRANCH   5  11
ATOM     11  C   UNL     1       2.050   5.610  19.203  0.00  0.00    +0.000 A 
ATOM     12  C   UNL     1       1.790   4.618  18.219  0.00  0.00    +0.000 A 
ATOM     13  C   UNL     1       1.703   3.257  18.546  0.00  0.00    +0.000 A 
ATOM     14  C   UNL     1       1.834   2.914  19.870  0.00  0.00    +0.000 A 
ATOM     15  C   UNL     1       1.981   3.865  20.848  0.00  0.00    +0.000 A 
ATOM     16  C   UNL     1       2.075   5.204  20.551  0.00  0.00    +0.000 A 
ATOM     17  O   UNL     1       2.085   3.326  22.092  0.00  0.00    +0.000 OA
ATOM     18  C   UNL     1       2.286   1.939  21.733  0.00  0.00    +0.000 C 
ATOM     19  O   UNL     1       1.872   1.653  20.380  0.00  0.00    +0.000 OA
ENDBRANCH   5  11
BRANCH   6  20
ATOM     20  C   UNL     1       4.509   6.871  17.599  0.00  0.00    +0.000 A 
ATOM     21  C   UNL     1       5.535   6.324  18.413  0.00  0.00    +0.000 A 
ATOM     22  C   UNL     1       6.577   5.563  17.865  0.00  0.00    +0.000 A 
ATOM     23  C   UNL     1       6.583   5.383  16.503  0.00  0.00    +0.000 A 
ATOM     24  C   UNL     1       5.641   5.968  15.691  0.00  0.00    +0.000 A 
ATOM     25  C   UNL     1       4.612   6.719  16.202  0.00  0.00    +0.000 A 
ATOM     26  O   UNL     1       5.826   5.674  14.377  0.00  0.00    +0.000 OA
ATOM     27  C   UNL     1       6.823   4.640  14.493  0.00  0.00    +0.000 C 
ATOM     28  O   UNL     1       7.459   4.620  15.790  0.00  0.00    +0.000 OA
ENDBRANCH   6  20
BRANCH   1  30
ATOM     29  O   UNL     1      -1.170  12.115  20.893  0.00  0.00    +0.000 OA
ATOM     30  C   UNL     1      -0.845  12.148  19.718  0.00  0.00    +0.000 C 
BRANCH  30  31
ATOM     31  O   UNL     1      -1.475  12.929  18.813  0.00  0.00    +0.000 OA
ATOM     32  H   UNL     1      -1.208  12.737  17.887  0.00  0.00    +0.000 HD
ENDBRANCH  30  31
ENDBRANCH   1  30
BRANCH  10  33
ATOM     33  O   UNL     1       1.180  13.110  17.814  0.00  0.00    +0.000 OA
ATOM     34  H   UNL     1       1.809  13.658  18.323  0.00  0.00    +0.000 HD
ENDBRANCH  10  33
TORSDOF 5
ENDMDL
MODEL 6
REMARK VINA RESULT:      -7.5      3.816      8.638
REMARK  Name = 
REMARK  5 active torsions:
REMARK  status: ('A' for Active; 'I' for Inactive)
REMARK    1  A    between atoms: C_2  and  O_3
REMARK    2  A    between atoms: C_2  and  C_4
REMARK    3  A    between atoms: C_8  and  C_9
REMARK    4  A    between atoms: C_18  and  C_19
REMARK    5  A    between atoms: C_31  and  O_32
REMARK                            x       y       z     vdW  Elec       q    Type
REMARK                         _______ _______ _______ _____ _____    ______ ____
ROOT
ATOM      1  C   UNL     1       1.200  11.339  18.846  0.00  0.00    +0.000 A 
ATOM      2  C   UNL     1       2.133  10.645  18.061  0.00  0.00    +0.000 A 
ATOM      3  C   UNL     1       2.347   9.288  18.233  0.00  0.00    +0.000 A 
ATOM      4  N   UNL     1       3.319   8.677  17.543  0.00  0.00    +0.000 NA
ATOM      5  C   UNL     1       3.528   7.344  17.750  0.00  0.00    +0.000 A 
ATOM      6  C   UNL     1       2.668   6.619  18.587  0.00  0.00    +0.000 A 
ATOM      7  N   UNL     1       1.693   7.256  19.310  0.00  0.00    +0.000 NA
ATOM      8  C   UNL     1       1.563   8.579  19.156  0.00  0.00    +0.000 A 
ATOM      9  C   UNL     1       0.647   9.251  19.943  0.00  0.00    +0.000 A 
ATOM     10  C   UNL     1       0.476  10.626  19.810  0.00  0.00    +0.000 A 
ENDROOT
BRANCH   5  11
ATOM     11  C   UNL     1       4.716   6.834  17.025  0.00  0.00    +0.000 A 
ATOM     12  C   UNL     1       6.053   7.063  17.448  0.00  0.00    +0.000 A 
ATOM     13  C   UNL     1       7.145   6.459  16.807  0.00  0.00    +0.000 A 
ATOM     14  C   UNL     1       6.881   5.664  15.717  0.00  0.00    +0.000 A 
ATOM     15  C   UNL     1       5.607   5.514  15.230  0.00  0.00    +0.000 A 
ATOM     16  C   UNL     1       4.521   6.091  15.844  0.00  0.00    +0.000 A 
ATOM     17  O   UNL     1       5.555   4.698  14.144  0.00  0.00    +0.000 OA
ATOM     18  C   UNL     1       6.884   4.133  14.207  0.00  0.00    +0.000 C 
ATOM     19  O   UNL     1       7.781   4.922  15.018  0.00  0.00    +0.000 OA
ENDBRANCH   5  11
BRANCH   6  20
ATOM     20  C   UNL     1       2.688   5.166  18.846  0.00  0.00    +0.000 A 
ATOM     21  C   UNL     1       1.633   4.291  18.475  0.00  0.00    +0.000 A 
ATOM     22  C   UNL     1       1.740   2.903  18.644  0.00  0.00    +0.000 A 
ATOM     23  C   UNL     1       2.897   2.419  19.205  0.00  0.00    +0.000 A 
ATOM     24  C   UNL     1       3.896   3.255  19.639  0.00  0.00    +0.000 A 
ATOM     25  C   UNL     1       3.816   4.618  19.487  0.00  0.00    +0.000 A 
ATOM     26  O   UNL     1       4.951   2.582  20.169  0.00  0.00    +0.000 OA
ATOM     27  C   UNL     1       4.607   1.238  19.779  0.00  0.00    +0.000 C 
ATOM     28  O   UNL     1       3.224   1.107  19.383  0.00  0.00    +0.000 OA
ENDBRANCH   6  20
BRANCH   1  30
ATOM     29  O   UNL     1       2.031  13.562  18.639  0.00  0.00    +0.000 OA
ATOM     30  C   UNL     1       1.076  12.804  18.606  0.00  0.00    +0.000 C 
BRANCH  30  31
ATOM     31  O   UNL     1      -0.178  13.230  18.341  0.00  0.00    +0.000 OA
ATOM     32  H   UNL     1      -0.803  12.494  18.154  0.00  0.00    +0.000 HD
ENDBRANCH  30  31
ENDBRANCH   1  30
BRANCH  10  33
ATOM     33  O   UNL     1      -0.400  11.273  20.639  0.00  0.00    +0.000 OA
ATOM     34  H   UNL     1       0.001  12.117  20.925  0.00  0.00    +0.000 HD
ENDBRANCH  10  33
TORSDOF 5
ENDMDL
MODEL 7
REMARK VINA RESULT:      -7.5      4.231      7.716
REMARK  Name = 
REMARK  5 active torsions:
REMARK  status: ('A' for Active; 'I' for Inactive)
REMARK    1  A    between atoms: C_2  and  O_3
REMARK    2  A    between atoms: C_2  and  C_4
REMARK    3  A    between atoms: C_8  and  C_9
REMARK    4  A    between atoms: C_18  and  C_19
REMARK    5  A    between atoms: C_31  and  O_32
REMARK                            x       y       z     vdW  Elec       q    Type
REMARK                         _______ _______ _______ _____ _____    ______ ____
ROOT
ATOM      1  C   UNL     1       0.110  11.378  19.515  0.00  0.00    +0.000 A 
ATOM      2  C   UNL     1       0.208  10.034  19.905  0.00  0.00    +0.000 A 
ATOM      3  C   UNL     1       1.138   9.186  19.327  0.00  0.00    +0.000 A 
ATOM      4  N   UNL     1       1.134   7.885  19.643  0.00  0.00    +0.000 NA
ATOM      5  C   UNL     1       2.043   7.064  19.040  0.00  0.00    +0.000 A 
ATOM      6  C   UNL     1       3.024   7.602  18.194  0.00  0.00    +0.000 A 
ATOM      7  N   UNL     1       3.004   8.929  17.855  0.00  0.00    +0.000 NA
ATOM      8  C   UNL     1       2.049   9.698  18.391  0.00  0.00    +0.000 A 
ATOM      9  C   UNL     1       1.958  11.018  17.991  0.00  0.00    +0.000 A 
ATOM     10  C   UNL     1       0.983  11.854  18.529  0.00  0.00    +0.000 A 
ENDROOT
BRANCH   5  11
ATOM     11  C   UNL     1       1.836   5.636  19.380  0.00  0.00    +0.000 A 
ATOM     12  C   UNL     1       1.479   4.645  18.427  0.00  0.00    +0.000 A 
ATOM     13  C   UNL     1       1.416   3.284  18.763  0.00  0.00    +0.000 A 
ATOM     14  C   UNL     1       1.669   2.941  20.070  0.00  0.00    +0.000 A 
ATOM     15  C   UNL     1       1.913   3.893  21.028  0.00  0.00    +0.000 A 
ATOM     16  C   UNL     1       1.986   5.231  20.721  0.00  0.00    +0.000 A 
ATOM     17  O   UNL     1       2.130   3.355  22.257  0.00  0.00    +0.000 OA
ATOM     18  C   UNL     1       2.289   1.967  21.884  0.00  0.00    +0.000 C 
ATOM     19  O   UNL     1       1.748   1.681  20.576  0.00  0.00    +0.000 OA
ENDBRANCH   5  11
BRANCH   6  20
ATOM     20  C   UNL     1       4.134   6.880  17.541  0.00  0.00    +0.000 A 
ATOM     21  C   UNL     1       4.490   7.060  16.179  0.00  0.00    +0.000 A 
ATOM     22  C   UNL     1       5.617   6.434  15.628  0.00  0.00    +0.000 A 
ATOM     23  C   UNL     1       6.356   5.619  16.450  0.00  0.00    +0.000 A 
ATOM     24  C   UNL     1       5.985   5.374  17.750  0.00  0.00    +0.000 A 
ATOM     25  C   UNL     1       4.885   5.972  18.313  0.00  0.00    +0.000 A 
ATOM     26  O   UNL     1       6.842   4.537  18.392  0.00  0.00    +0.000 OA
ATOM     27  C   UNL     1       7.916   4.501  17.432  0.00  0.00    +0.000 C 
ATOM     28  O   UNL     1       7.519   4.985  16.129  0.00  0.00    +0.000 OA
ENDBRANCH   6  20
BRANCH   1  30
ATOM     29  O   UNL     1      -1.103  12.229  21.381  0.00  0.00    +0.000 OA
ATOM     30  C   UNL     1      -0.951  12.194  20.171  0.00  0.00    +0.000 C 
BRANCH  30  31
ATOM     31  O   UNL     1      -1.728  12.900  19.322  0.00  0.00    +0.000 OA
ATOM     32  H   UNL     1      -1.993  12.387  18.526  0.00  0.00    +0.000 HD
ENDBRANCH  30  31
ENDBRANCH   1  30
BRANCH  10  33
ATOM     33  O   UNL     1       0.884  13.141  18.076  0.00  0.00    +0.000 OA
ATOM     34  H   UNL     1       0.554  13.706  18.802  0.00  0.00    +0.000 HD
ENDBRANCH  10  33
TORSDOF 5
ENDMDL
MODEL 8
REMARK VINA RESULT:      -7.3      4.080      8.829
REMARK  Name = 
REMARK  5 active torsions:
REMARK  status: ('A' for Active; 'I' for Inactive)
REMARK    1  A    between atoms: C_2  and  O_3
REMARK    2  A    between atoms: C_2  and  C_4
REMARK    3  A    between atoms: C_8  and  C_9
REMARK    4  A    between atoms: C_18  and  C_19
REMARK    5  A    between atoms: C_31  and  O_32
REMARK                            x       y       z     vdW  Elec       q    Type
REMARK                         _______ _______ _______ _____ _____    ______ ____
ROOT
ATOM      1  C   UNL     1       1.437  11.979  18.594  0.00  0.00    +0.000 A 
ATOM      2  C   UNL     1       2.328  11.139  17.911  0.00  0.00    +0.000 A 
ATOM      3  C   UNL     1       2.421   9.792  18.218  0.00  0.00    +0.000 A 
ATOM      4  N   UNL     1       3.357   9.040  17.624  0.00  0.00    +0.000 NA
ATOM      5  C   UNL     1       3.446   7.721  17.963  0.00  0.00    +0.000 A 
ATOM      6  C   UNL     1       2.506   7.153  18.835  0.00  0.00    +0.000 A 
ATOM      7  N   UNL     1       1.570   7.935  19.459  0.00  0.00    +0.000 NA
ATOM      8  C   UNL     1       1.556   9.243  19.177  0.00  0.00    +0.000 A 
ATOM      9  C   UNL     1       0.679  10.061  19.864  0.00  0.00    +0.000 A 
ATOM     10  C   UNL     1       0.629  11.426  19.595  0.00  0.00    +0.000 A 
ENDROOT
BRANCH   5  11
ATOM     11  C   UNL     1       4.606   7.047  17.331  0.00  0.00    +0.000 A 
ATOM     12  C   UNL     1       5.907   7.021  17.902  0.00  0.00    +0.000 A 
ATOM     13  C   UNL     1       6.947   6.268  17.339  0.00  0.00    +0.000 A 
ATOM     14  C   UNL     1       6.677   5.583  16.178  0.00  0.00    +0.000 A 
ATOM     15  C   UNL     1       5.458   5.679  15.554  0.00  0.00    +0.000 A 
ATOM     16  C   UNL     1       4.422   6.406  16.090  0.00  0.00    +0.000 A 
ATOM     17  O   UNL     1       5.392   4.936  14.417  0.00  0.00    +0.000 OA
ATOM     18  C   UNL     1       6.593   4.147  14.579  0.00  0.00    +0.000 C 
ATOM     19  O   UNL     1       7.513   4.729  15.527  0.00  0.00    +0.000 OA
ENDBRANCH   5  11
BRANCH   6  20
ATOM     20  C   UNL     1       2.396   5.735  19.230  0.00  0.00    +0.000 A 
ATOM     21  C   UNL     1       2.533   5.284  20.569  0.00  0.00    +0.000 A 
ATOM     22  C   UNL     1       2.316   3.942  20.915  0.00  0.00    +0.000 A 
ATOM     23  C   UNL     1       1.987   3.071  19.905  0.00  0.00    +0.000 A 
ATOM     24  C   UNL     1       1.923   3.475  18.593  0.00  0.00    +0.000 A 
ATOM     25  C   UNL     1       2.133   4.781  18.227  0.00  0.00    +0.000 A 
ATOM     26  O   UNL     1       1.589   2.464  17.749  0.00  0.00    +0.000 OA
ATOM     27  C   UNL     1       1.201   1.460  18.707  0.00  0.00    +0.000 C 
ATOM     28  O   UNL     1       1.665   1.754  20.044  0.00  0.00    +0.000 OA
ENDBRANCH   6  20
BRANCH   1  30
ATOM     29  O   UNL     1       0.500  14.163  18.422  0.00  0.00    +0.000 OA
ATOM     30  C   UNL     1       1.443  13.420  18.212  0.00  0.00    +0.000 C 
BRANCH  30  31
ATOM     31  O   UNL     1       2.583  13.844  17.623  0.00  0.00    +0.000 OA
ATOM     32  H   UNL     1       2.527  14.772  17.301  0.00  0.00    +0.000 HD
ENDBRANCH  30  31
ENDBRANCH   1  30
BRANCH  10  33
ATOM     33  O   UNL     1      -0.211  12.220  20.329  0.00  0.00    +0.000 OA
ATOM     34  H   UNL     1      -0.684  12.822  19.722  0.00  0.00    +0.000 HD
ENDBRANCH  10  33
TORSDOF 5
ENDMDL
MODEL 9
REMARK VINA RESULT:      -7.3      7.857     11.745
REMARK  Name = 
REMARK  5 active torsions:
REMARK  status: ('A' for Active; 'I' for Inactive)
REMARK    1  A    between atoms: C_2  and  O_3
REMARK    2  A    between atoms: C_2  and  C_4
REMARK    3  A    between atoms: C_8  and  C_9
REMARK    4  A    between atoms: C_18  and  C_19
REMARK    5  A    between atoms: C_31  and  O_32
REMARK                            x       y       z     vdW  Elec       q    Type
REMARK                         _______ _______ _______ _____ _____    ______ ____
ROOT
ATOM      1  C   UNL     1      -3.281  12.941  23.911  0.00  0.00    +0.000 A 
ATOM      2  C   UNL     1      -2.531  11.962  23.244  0.00  0.00    +0.000 A 
ATOM      3  C   UNL     1      -1.458  12.306  22.439  0.00  0.00    +0.000 A 
ATOM      4  N   UNL     1      -0.830  11.358  21.730  0.00  0.00    +0.000 NA
ATOM      5  C   UNL     1       0.207  11.727  20.923  0.00  0.00    +0.000 A 
ATOM      6  C   UNL     1       0.665  13.052  20.926  0.00  0.00    +0.000 A 
ATOM      7  N   UNL     1       0.001  14.020  21.633  0.00  0.00    +0.000 NA
ATOM      8  C   UNL     1      -1.068  13.651  22.349  0.00  0.00    +0.000 A 
ATOM      9  C   UNL     1      -1.803  14.627  22.994  0.00  0.00    +0.000 A 
ATOM     10  C   UNL     1      -2.918  14.284  23.755  0.00  0.00    +0.000 A 
ENDROOT
BRANCH   5  11
ATOM     11  C   UNL     1       0.717  10.603  20.101  0.00  0.00    +0.000 A 
ATOM     12  C   UNL     1       1.006  10.711  18.714  0.00  0.00    +0.000 A 
ATOM     13  C   UNL     1       1.605   9.664  18.000  0.00  0.00    +0.000 A 
ATOM     14  C   UNL     1       1.866   8.499  18.681  0.00  0.00    +0.000 A 
ATOM     15  C   UNL     1       1.500   8.337  19.994  0.00  0.00    +0.000 A 
ATOM     16  C   UNL     1       0.917   9.351  20.716  0.00  0.00    +0.000 A 
ATOM     17  O   UNL     1       1.836   7.114  20.484  0.00  0.00    +0.000 OA
ATOM     18  C   UNL     1       2.709   6.665  19.423  0.00  0.00    +0.000 C 
ATOM     19  O   UNL     1       2.519   7.407  18.200  0.00  0.00    +0.000 OA
ENDBRANCH   5  11
BRANCH   6  20
ATOM     20  C   UNL     1       1.826  13.598  20.196  0.00  0.00    +0.000 A 
ATOM     21  C   UNL     1       1.799  13.921  18.814  0.00  0.00    +0.000 A 
ATOM     22  C   UNL     1       2.891  14.537  18.185  0.00  0.00    +0.000 A 
ATOM     23  C   UNL     1       4.001  14.796  18.950  0.00  0.00    +0.000 A 
ATOM     24  C   UNL     1       4.074  14.423  20.271  0.00  0.00    +0.000 A 
ATOM     25  C   UNL     1       3.020  13.818  20.910  0.00  0.00    +0.000 A 
ATOM     26  O   UNL     1       5.256  14.763  20.848  0.00  0.00    +0.000 OA
ATOM     27  C   UNL     1       5.798  15.614  19.818  0.00  0.00    +0.000 C 
ATOM     28  O   UNL     1       5.127  15.451  18.548  0.00  0.00    +0.000 OA
ENDBRANCH   6  20
BRANCH   1  30
ATOM     29  O   UNL     1      -5.432  11.964  24.221  0.00  0.00    +0.000 OA
ATOM     30  C   UNL     1      -4.439  12.466  24.721  0.00  0.00    +0.000 C 
BRANCH  30  31
ATOM     31  O   UNL     1      -4.300  12.627  26.055  0.00  0.00    +0.000 OA
ATOM     32  H   UNL     1      -4.526  11.817  26.565  0.00  0.00    +0.000 HD
ENDBRANCH  30  31
ENDBRANCH   1  30
BRANCH  10  33
ATOM     33  O   UNL     1      -3.657  15.277  24.339  0.00  0.00    +0.000 OA
ATOM     34  H   UNL     1      -4.456  15.434  23.798  0.00  0.00    +0.000 HD
ENDBRANCH  10  33
TORSDOF 5
ENDMDL
