MODEL 1
REMARK VINA RESULT:      -7.1      0.000      0.000
REMARK  Name = 
REMARK  11 active torsions:
REMARK  status: ('A' for Active; 'I' for Inactive)
REMARK    1  A    between atoms: C_1  and  C_2
REMARK    2  A    between atoms: C_2  and  C_3
REMARK    3  A    between atoms: C_3  and  C_4
REMARK    4  A    between atoms: C_6  and  N_7
REMARK    5  A    between atoms: N_10  and  C_11
REMARK    6  A    between atoms: C_11  and  C_12
REMARK    7  A    between atoms: C_12  and  N_13
REMARK    8  A    between atoms: C_15  and  C_16
REMARK    9  A    between atoms: C_16  and  O_18
REMARK   10  A    between atoms: O_18  and  C_19
REMARK   11  A    between atoms: N_22  and  C_23
REMARK                            x       y       z     vdW  Elec       q    Type
REMARK                         _______ _______ _______ _____ _____    ______ ____
ROOT
ATOM      1  N   UNL     1       6.140   5.703  15.190  0.00  0.00    +0.000 N 
ATOM      2  C   UNL     1       7.017   5.492  16.299  0.00  0.00    +0.000 C 
ATOM      3  O   UNL     1       7.804   4.562  16.334  0.00  0.00    +0.000 OA
ATOM      4  N   UNL     1       6.845   6.402  17.312  0.00  0.00    +0.000 N 
ATOM      5  H   UNL     1       5.399   6.381  15.257  0.00  0.00    +0.000 HD
ATOM      6  H   UNL     1       6.358   7.270  17.145  0.00  0.00    +0.000 HD
ENDROOT
BRANCH   1   9
ATOM      7  C   UNL     1       5.818   3.467  12.381  0.00  0.00    +0.000 A 
ATOM      8  C   UNL     1       5.308   3.989  13.588  0.00  0.00    +0.000 A 
ATOM      9  C   UNL     1       6.230   4.919  14.030  0.00  0.00    +0.000 A 
ATOM     10  N   UNL     1       7.231   4.884  13.081  0.00  0.00    +0.000 N 
ATOM     11  C   UNL     1       8.392   5.728  12.936  0.00  0.00    +0.000 C 
ATOM     12  N   UNL     1       7.011   3.993  12.095  0.00  0.00    +0.000 NA
BRANCH   7  13
ATOM     13  C   UNL     1       5.188   2.469  11.464  0.00  0.00    +0.000 C 
BRANCH  13  15
ATOM     14  C   UNL     1       3.560   3.948  10.169  0.00  0.00    +0.000 C 
ATOM     15  C   UNL     1       3.726   2.779  11.129  0.00  0.00    +0.000 C 
ENDBRANCH  13  15
ENDBRANCH   7  13
ENDBRANCH   1   9
BRANCH   4  16
ATOM     16  C   UNL     1       7.731   6.266  18.473  0.00  0.00    +0.000 C 
BRANCH  16  17
ATOM     17  C   UNL     1       7.133   5.587  19.702  0.00  0.00    +0.000 C 
BRANCH  17  18
ATOM     18  N   UNL     1       5.842   4.999  19.400  0.00  0.00    +0.000 N 
ATOM     19  C   UNL     1       4.625   5.612  19.321  0.00  0.00    +0.000 A 
ATOM     20  C   UNL     1       3.757   4.595  18.964  0.00  0.00    +0.000 A 
ATOM     21  N   UNL     1       4.475   3.429  18.850  0.00  0.00    +0.000 NA
ATOM     22  N   UNL     1       5.750   3.692  19.117  0.00  0.00    +0.000 NA
BRANCH  20  23
ATOM     23  C   UNL     1       2.319   4.697  18.728  0.00  0.00    +0.000 C 
ATOM     24  O   UNL     1       1.833   5.387  17.840  0.00  0.00    +0.000 OA
BRANCH  23  25
ATOM     25  O   UNL     1       1.592   3.938  19.601  0.00  0.00    +0.000 OA
ATOM     26  C   UNL     1       0.980   2.782  19.027  0.00  0.00    +0.000 C 
ENDBRANCH  23  25
ENDBRANCH  20  23
ENDBRANCH  17  18
ENDBRANCH  16  17
ENDBRANCH   4  16
TORSDOF 8
ENDMDL
MODEL 2
REMARK VINA RESULT:      -6.9      2.978      5.714
REMARK  Name = 
REMARK  11 active torsions:
REMARK  status: ('A' for Active; 'I' for Inactive)
REMARK    1  A    between atoms: C_1  and  C_2
REMARK    2  A    between atoms: C_2  and  C_3
REMARK    3  A    between atoms: C_3  and  C_4
REMARK    4  A    between atoms: C_6  and  N_7
REMARK    5  A    between atoms: N_10  and  C_11
REMARK    6  A    between atoms: C_11  and  C_12
REMARK    7  A    between atoms: C_12  and  N_13
REMARK    8  A    between atoms: C_15  and  C_16
REMARK    9  A    between atoms: C_16  and  O_18
REMARK   10  A    between atoms: O_18  and  C_19
REMARK   11  A    between atoms: N_22  and  C_23
REMARK                            x       y       z     vdW  Elec       q    Type
REMARK                         _______ _______ _______ _____ _____    ______ ____
ROOT
ATOM      1  N   UNL     1       5.796   3.643  18.299  0.00  0.00    +0.000 N 
ATOM      2  C   UNL     1       4.414   3.498  17.962  0.00  0.00    +0.000 C 
ATOM      3  O   UNL     1       3.767   4.409  17.475  0.00  0.00    +0.000 OA
ATOM      4  N   UNL     1       3.900   2.267  18.284  0.00  0.00    +0.000 N 
ATOM      5  H   UNL     1       6.259   2.932  18.839  0.00  0.00    +0.000 HD
ATOM      6  H   UNL     1       4.513   1.486  18.466  0.00  0.00    +0.000 HD
ENDROOT
BRANCH   1   9
ATOM      7  C   UNL     1       7.668   6.715  18.063  0.00  0.00    +0.000 A 
ATOM      8  C   UNL     1       7.029   5.734  18.850  0.00  0.00    +0.000 A 
ATOM      9  C   UNL     1       6.509   4.806  17.968  0.00  0.00    +0.000 A 
ATOM     10  N   UNL     1       6.847   5.293  16.722  0.00  0.00    +0.000 N 
ATOM     11  C   UNL     1       6.688   4.686  15.423  0.00  0.00    +0.000 C 
ATOM     12  N   UNL     1       7.522   6.458  16.762  0.00  0.00    +0.000 NA
BRANCH   7  13
ATOM     13  C   UNL     1       8.439   7.911  18.519  0.00  0.00    +0.000 C 
BRANCH  13  15
ATOM     14  C   UNL     1       8.919  10.395  18.181  0.00  0.00    +0.000 C 
ATOM     15  C   UNL     1       8.054   9.204  17.793  0.00  0.00    +0.000 C 
ENDBRANCH  13  15
ENDBRANCH   7  13
ENDBRANCH   1   9
BRANCH   4  16
ATOM     16  C   UNL     1       2.494   2.034  17.941  0.00  0.00    +0.000 C 
BRANCH  16  17
ATOM     17  C   UNL     1       1.490   2.166  19.084  0.00  0.00    +0.000 C 
BRANCH  17  18
ATOM     18  N   UNL     1       1.665   3.419  19.792  0.00  0.00    +0.000 N 
ATOM     19  C   UNL     1       1.311   4.678  19.397  0.00  0.00    +0.000 A 
ATOM     20  C   UNL     1       1.671   5.480  20.466  0.00  0.00    +0.000 A 
ATOM     21  N   UNL     1       2.222   4.687  21.442  0.00  0.00    +0.000 NA
ATOM     22  N   UNL     1       2.210   3.427  21.017  0.00  0.00    +0.000 NA
BRANCH  20  23
ATOM     23  C   UNL     1       1.503   6.927  20.585  0.00  0.00    +0.000 C 
ATOM     24  O   UNL     1       2.287   7.734  20.102  0.00  0.00    +0.000 OA
BRANCH  23  25
ATOM     25  O   UNL     1       0.379   7.265  21.286  0.00  0.00    +0.000 OA
ATOM     26  C   UNL     1       0.271   8.649  21.618  0.00  0.00    +0.000 C 
ENDBRANCH  23  25
ENDBRANCH  20  23
ENDBRANCH  17  18
ENDBRANCH  16  17
ENDBRANCH   4  16
TORSDOF 8
ENDMDL
MODEL 3
REMARK VINA RESULT:      -6.8      4.371      8.454
REMARK  Name = 
REMARK  11 active torsions:
REMARK  status: ('A' for Active; 'I' for Inactive)
REMARK    1  A    between atoms: C_1  and  C_2
REMARK    2  A    between atoms: C_2  and  C_3
REMARK    3  A    between atoms: C_3  and  C_4
REMARK    4  A    between atoms: C_6  and  N_7
REMARK    5  A    between atoms: N_10  and  C_11
REMARK    6  A    between atoms: C_11  and  C_12
REMARK    7  A    between atoms: C_12  and  N_13
REMARK    8  A    between atoms: C_15  and  C_16
REMARK    9  A    between atoms: C_16  and  O_18
REMARK   10  A    between atoms: O_18  and  C_19
REMARK   11  A    between atoms: N_22  and  C_23
REMARK                            x       y       z     vdW  Elec       q    Type
REMARK                         _______ _______ _______ _____ _____    ______ ____
ROOT
ATOM      1  N   UNL     1       2.478   7.229  20.559  0.00  0.00    +0.000 N 
ATOM      2  C   UNL     1       2.069   5.867  20.407  0.00  0.00    +0.000 C 
ATOM      3  O   UNL     1       0.911   5.560  20.183  0.00  0.00    +0.000 OA
ATOM      4  N   UNL     1       3.090   4.968  20.585  0.00  0.00    +0.000 N 
ATOM      5  H   UNL     1       3.402   7.442  20.897  0.00  0.00    +0.000 HD
ATOM      6  H   UNL     1       4.053   5.268  20.539  0.00  0.00    +0.000 HD
ENDROOT
BRANCH   1   9
ATOM      7  C   UNL     1       0.087   9.927  20.591  0.00  0.00    +0.000 A 
ATOM      8  C   UNL     1       0.806   8.927  21.279  0.00  0.00    +0.000 A 
ATOM      9  C   UNL     1       1.585   8.288  20.333  0.00  0.00    +0.000 A 
ATOM     10  N   UNL     1       1.274   8.924  19.149  0.00  0.00    +0.000 N 
ATOM     11  C   UNL     1       1.869   8.779  17.843  0.00  0.00    +0.000 C 
ATOM     12  N   UNL     1       0.352   9.897  19.283  0.00  0.00    +0.000 NA
BRANCH   7  13
ATOM     13  C   UNL     1      -0.857  10.941  21.151  0.00  0.00    +0.000 C 
BRANCH  13  15
ATOM     14  C   UNL     1      -2.122  11.715  23.228  0.00  0.00    +0.000 C 
ATOM     15  C   UNL     1      -0.943  10.923  22.680  0.00  0.00    +0.000 C 
ENDBRANCH  13  15
ENDBRANCH   7  13
ENDBRANCH   1   9
BRANCH   4  16
ATOM     16  C   UNL     1       2.752   3.551  20.415  0.00  0.00    +0.000 C 
BRANCH  16  17
ATOM     17  C   UNL     1       3.384   2.845  19.219  0.00  0.00    +0.000 C 
BRANCH  17  18
ATOM     18  N   UNL     1       4.451   3.642  18.645  0.00  0.00    +0.000 N 
ATOM     19  C   UNL     1       4.442   4.377  17.494  0.00  0.00    +0.000 A 
ATOM     20  C   UNL     1       5.696   4.960  17.455  0.00  0.00    +0.000 A 
ATOM     21  N   UNL     1       6.401   4.555  18.563  0.00  0.00    +0.000 NA
ATOM     22  N   UNL     1       5.625   3.751  19.284  0.00  0.00    +0.000 NA
BRANCH  20  23
ATOM     23  C   UNL     1       6.223   5.865  16.436  0.00  0.00    +0.000 C 
ATOM     24  O   UNL     1       5.583   6.207  15.449  0.00  0.00    +0.000 OA
BRANCH  23  25
ATOM     25  O   UNL     1       7.493   6.282  16.716  0.00  0.00    +0.000 OA
ATOM     26  C   UNL     1       7.581   7.547  17.372  0.00  0.00    +0.000 C 
ENDBRANCH  23  25
ENDBRANCH  20  23
ENDBRANCH  17  18
ENDBRANCH  16  17
ENDBRANCH   4  16
TORSDOF 8
ENDMDL
MODEL 4
REMARK VINA RESULT:      -6.8      3.912      8.071
REMARK  Name = 
REMARK  11 active torsions:
REMARK  status: ('A' for Active; 'I' for Inactive)
REMARK    1  A    between atoms: C_1  and  C_2
REMARK    2  A    between atoms: C_2  and  C_3
REMARK    3  A    between atoms: C_3  and  C_4
REMARK    4  A    between atoms: C_6  and  N_7
REMARK    5  A    between atoms: N_10  and  C_11
REMARK    6  A    between atoms: C_11  and  C_12
REMARK    7  A    between atoms: C_12  and  N_13
REMARK    8  A    between atoms: C_15  and  C_16
REMARK    9  A    between atoms: C_16  and  O_18
REMARK   10  A    between atoms: O_18  and  C_19
REMARK   11  A    between atoms: N_22  and  C_23
REMARK                            x       y       z     vdW  Elec       q    Type
REMARK                         _______ _______ _______ _____ _____    ______ ____
ROOT
ATOM      1  N   UNL     1       2.541   6.478  20.637  0.00  0.00    +0.000 N 
ATOM      2  C   UNL     1       2.132   5.181  20.195  0.00  0.00    +0.000 C 
ATOM      3  O   UNL     1       1.101   5.005  19.570  0.00  0.00    +0.000 OA
ATOM      4  N   UNL     1       2.985   4.178  20.586  0.00  0.00    +0.000 N 
ATOM      5  H   UNL     1       3.309   6.572  21.281  0.00  0.00    +0.000 HD
ATOM      6  H   UNL     1       3.922   4.392  20.893  0.00  0.00    +0.000 HD
ENDROOT
BRANCH   1   9
ATOM      7  C   UNL     1       0.481   9.411  20.246  0.00  0.00    +0.000 A 
ATOM      8  C   UNL     1       0.914   8.321  21.030  0.00  0.00    +0.000 A 
ATOM      9  C   UNL     1       1.834   7.632  20.264  0.00  0.00    +0.000 A 
ATOM     10  N   UNL     1       1.881   8.332  19.075  0.00  0.00    +0.000 N 
ATOM     11  C   UNL     1       2.758   8.164  17.942  0.00  0.00    +0.000 C 
ATOM     12  N   UNL     1       1.051   9.392  19.039  0.00  0.00    +0.000 NA
BRANCH   7  13
ATOM     13  C   UNL     1      -0.469  10.502  20.620  0.00  0.00    +0.000 C 
BRANCH  13  15
ATOM     14  C   UNL     1      -1.107  10.838  23.068  0.00  0.00    +0.000 C 
ATOM     15  C   UNL     1      -0.132  11.182  21.951  0.00  0.00    +0.000 C 
ENDBRANCH  13  15
ENDBRANCH   7  13
ENDBRANCH   1   9
BRANCH   4  16
ATOM     16  C   UNL     1       2.646   2.822  20.144  0.00  0.00    +0.000 C 
BRANCH  16  17
ATOM     17  C   UNL     1       3.596   2.185  19.133  0.00  0.00    +0.000 C 
BRANCH  17  18
ATOM     18  N   UNL     1       4.538   3.158  18.614  0.00  0.00    +0.000 N 
ATOM     19  C   UNL     1       4.566   3.742  17.380  0.00  0.00    +0.000 A 
ATOM     20  C   UNL     1       5.641   4.612  17.443  0.00  0.00    +0.000 A 
ATOM     21  N   UNL     1       6.210   4.513  18.690  0.00  0.00    +0.000 NA
ATOM     22  N   UNL     1       5.522   3.621  19.396  0.00  0.00    +0.000 NA
BRANCH  20  23
ATOM     23  C   UNL     1       6.119   5.508  16.393  0.00  0.00    +0.000 C 
ATOM     24  O   UNL     1       5.564   6.562  16.108  0.00  0.00    +0.000 OA
BRANCH  23  25
ATOM     25  O   UNL     1       7.247   5.038  15.782  0.00  0.00    +0.000 OA
ATOM     26  C   UNL     1       7.159   4.928  14.361  0.00  0.00    +0.000 C 
ENDBRANCH  23  25
ENDBRANCH  20  23
ENDBRANCH  17  18
ENDBRANCH  16  17
ENDBRANCH   4  16
TORSDOF 8
ENDMDL
MODEL 5
REMARK VINA RESULT:      -6.7      3.578      4.744
REMARK  Name = 
REMARK  11 active torsions:
REMARK  status: ('A' for Active; 'I' for Inactive)
REMARK    1  A    between atoms: C_1  and  C_2
REMARK    2  A    between atoms: C_2  and  C_3
REMARK    3  A    between atoms: C_3  and  C_4
REMARK    4  A    between atoms: C_6  and  N_7
REMARK    5  A    between atoms: N_10  and  C_11
REMARK    6  A    between atoms: C_11  and  C_12
REMARK    7  A    between atoms: C_12  and  N_13
REMARK    8  A    between atoms: C_15  and  C_16
REMARK    9  A    between atoms: C_16  and  O_18
REMARK   10  A    between atoms: O_18  and  C_19
REMARK   11  A    between atoms: N_22  and  C_23
REMARK                            x       y       z     vdW  Elec       q    Type
REMARK                         _______ _______ _______ _____ _____    ______ ____
ROOT
ATOM      1  N   UNL     1       5.316   3.953  17.572  0.00  0.00    +0.000 N 
ATOM      2  C   UNL     1       4.052   4.522  17.926  0.00  0.00    +0.000 C 
ATOM      3  O   UNL     1       3.529   5.400  17.262  0.00  0.00    +0.000 OA
ATOM      4  N   UNL     1       3.532   4.015  19.091  0.00  0.00    +0.000 N 
ATOM      5  H   UNL     1       5.793   3.347  18.219  0.00  0.00    +0.000 HD
ATOM      6  H   UNL     1       3.878   3.147  19.472  0.00  0.00    +0.000 HD
ENDROOT
BRANCH   1   9
ATOM      7  C   UNL     1       6.634   4.361  14.242  0.00  0.00    +0.000 A 
ATOM      8  C   UNL     1       5.803   3.670  15.148  0.00  0.00    +0.000 A 
ATOM      9  C   UNL     1       5.958   4.292  16.372  0.00  0.00    +0.000 A 
ATOM     10  N   UNL     1       6.876   5.294  16.131  0.00  0.00    +0.000 N 
ATOM     11  C   UNL     1       7.330   6.354  16.997  0.00  0.00    +0.000 C 
ATOM     12  N   UNL     1       7.314   5.332  14.857  0.00  0.00    +0.000 NA
BRANCH   7  13
ATOM     13  C   UNL     1       6.799   4.132  12.775  0.00  0.00    +0.000 C 
BRANCH  13  15
ATOM     14  C   UNL     1       4.632   3.386  11.650  0.00  0.00    +0.000 C 
ATOM     15  C   UNL     1       5.970   2.960  12.239  0.00  0.00    +0.000 C 
ENDBRANCH  13  15
ENDBRANCH   7  13
ENDBRANCH   1   9
BRANCH   4  16
ATOM     16  C   UNL     1       2.223   4.531  19.502  0.00  0.00    +0.000 C 
BRANCH  16  17
ATOM     17  C   UNL     1       2.208   5.427  20.738  0.00  0.00    +0.000 C 
BRANCH  17  18
ATOM     18  N   UNL     1       1.856   6.790  20.391  0.00  0.00    +0.000 N 
ATOM     19  C   UNL     1       1.167   7.707  21.134  0.00  0.00    +0.000 A 
ATOM     20  C   UNL     1       1.156   8.842  20.342  0.00  0.00    +0.000 A 
ATOM     21  N   UNL     1       1.823   8.566  19.172  0.00  0.00    +0.000 NA
ATOM     22  N   UNL     1       2.247   7.307  19.219  0.00  0.00    +0.000 NA
BRANCH  20  23
ATOM     23  C   UNL     1       0.559  10.138  20.657  0.00  0.00    +0.000 C 
ATOM     24  O   UNL     1      -0.340  10.279  21.477  0.00  0.00    +0.000 OA
BRANCH  23  25
ATOM     25  O   UNL     1       1.121  11.157  19.942  0.00  0.00    +0.000 OA
ATOM     26  C   UNL     1       1.245  12.391  20.650  0.00  0.00    +0.000 C 
ENDBRANCH  23  25
ENDBRANCH  20  23
ENDBRANCH  17  18
ENDBRANCH  16  17
ENDBRANCH   4  16
TORSDOF 8
ENDMDL
MODEL 6
REMARK VINA RESULT:      -6.7      4.366      8.169
REMARK  Name = 
REMARK  11 active torsions:
REMARK  status: ('A' for Active; 'I' for Inactive)
REMARK    1  A    between atoms: C_1  and  C_2
REMARK    2  A    between atoms: C_2  and  C_3
REMARK    3  A    between atoms: C_3  and  C_4
REMARK    4  A    between atoms: C_6  and  N_7
REMARK    5  A    between atoms: N_10  and  C_11
REMARK    6  A    between atoms: C_11  and  C_12
REMARK    7  A    between atoms: C_12  and  N_13
REMARK    8  A    between atoms: C_15  and  C_16
REMARK    9  A    between atoms: C_16  and  O_18
REMARK   10  A    between atoms: O_18  and  C_19
REMARK   11  A    between atoms: N_22  and  C_23
REMARK                            x       y       z     vdW  Elec       q    Type
REMARK                         _______ _______ _______ _____ _____    ______ ____
ROOT
ATOM      1  N   UNL     1       2.227   7.680  20.570  0.00  0.00    +0.000 N 
ATOM      2  C   UNL     1       1.907   6.287  20.546  0.00  0.00    +0.000 C 
ATOM      3  O   UNL     1       0.756   5.887  20.498  0.00  0.00    +0.000 OA
ATOM      4  N   UNL     1       3.009   5.472  20.630  0.00  0.00    +0.000 N 
ATOM      5  H   UNL     1       3.169   7.977  20.766  0.00  0.00    +0.000 HD
ATOM      6  H   UNL     1       3.931   5.835  20.438  0.00  0.00    +0.000 HD
ENDROOT
BRANCH   1   9
ATOM      7  C   UNL     1      -0.259  10.087  19.559  0.00  0.00    +0.000 A 
ATOM      8  C   UNL     1       0.715   9.125  19.220  0.00  0.00    +0.000 A 
ATOM      9  C   UNL     1       1.234   8.659  20.413  0.00  0.00    +0.000 A 
ATOM     10  N   UNL     1       0.561   9.376  21.381  0.00  0.00    +0.000 N 
ATOM     11  C   UNL     1       0.583   9.231  22.816  0.00  0.00    +0.000 C 
ATOM     12  N   UNL     1      -0.324  10.261  20.881  0.00  0.00    +0.000 NA
BRANCH   7  13
ATOM     13  C   UNL     1      -1.159  10.857  18.647  0.00  0.00    +0.000 C 
BRANCH  13  15
ATOM     14  C   UNL     1      -3.157   9.749  17.508  0.00  0.00    +0.000 C 
ATOM     15  C   UNL     1      -1.664  10.043  17.452  0.00  0.00    +0.000 C 
ENDBRANCH  13  15
ENDBRANCH   7  13
ENDBRANCH   1   9
BRANCH   4  16
ATOM     16  C   UNL     1       2.760   4.028  20.583  0.00  0.00    +0.000 C 
BRANCH  16  17
ATOM     17  C   UNL     1       2.976   3.351  19.231  0.00  0.00    +0.000 C 
BRANCH  17  18
ATOM     18  N   UNL     1       4.179   3.841  18.586  0.00  0.00    +0.000 N 
ATOM     19  C   UNL     1       4.327   4.330  17.320  0.00  0.00    +0.000 A 
ATOM     20  C   UNL     1       5.663   4.686  17.251  0.00  0.00    +0.000 A 
ATOM     21  N   UNL     1       6.256   4.397  18.456  0.00  0.00    +0.000 NA
ATOM     22  N   UNL     1       5.334   3.882  19.264  0.00  0.00    +0.000 NA
BRANCH  20  23
ATOM     23  C   UNL     1       6.365   5.281  16.116  0.00  0.00    +0.000 C 
ATOM     24  O   UNL     1       7.393   5.936  16.233  0.00  0.00    +0.000 OA
BRANCH  23  25
ATOM     25  O   UNL     1       5.746   5.019  14.926  0.00  0.00    +0.000 OA
ATOM     26  C   UNL     1       6.384   4.027  14.122  0.00  0.00    +0.000 C 
ENDBRANCH  23  25
ENDBRANCH  20  23
ENDBRANCH  17  18
ENDBRANCH  16  17
ENDBRANCH   4  16
TORSDOF 8
ENDMDL
MODEL 7
REMARK VINA RESULT:      -6.7      0.695      1.167
REMARK  Name = 
REMARK  11 active torsions:
REMARK  status: ('A' for Active; 'I' for Inactive)
REMARK    1  A    between atoms: C_1  and  C_2
REMARK    2  A    between atoms: C_2  and  C_3
REMARK    3  A    between atoms: C_3  and  C_4
REMARK    4  A    between atoms: C_6  and  N_7
REMARK    5  A    between atoms: N_10  and  C_11
REMARK    6  A    between atoms: C_11  and  C_12
REMARK    7  A    between atoms: C_12  and  N_13
REMARK    8  A    between atoms: C_15  and  C_16
REMARK    9  A    between atoms: C_16  and  O_18
REMARK   10  A    between atoms: O_18  and  C_19
REMARK   11  A    between atoms: N_22  and  C_23
REMARK                            x       y       z     vdW  Elec       q    Type
REMARK                         _______ _______ _______ _____ _____    ______ ____
ROOT
ATOM      1  N   UNL     1       6.263   5.672  15.163  0.00  0.00    +0.000 N 
ATOM      2  C   UNL     1       7.132   5.399  16.266  0.00  0.00    +0.000 C 
ATOM      3  O   UNL     1       7.864   4.424  16.288  0.00  0.00    +0.000 OA
ATOM      4  N   UNL     1       7.017   6.306  17.289  0.00  0.00    +0.000 N 
ATOM      5  H   UNL     1       5.563   6.391  15.241  0.00  0.00    +0.000 HD
ATOM      6  H   UNL     1       6.581   7.204  17.133  0.00  0.00    +0.000 HD
ENDROOT
BRANCH   1   9
ATOM      7  C   UNL     1       5.813   3.463  12.350  0.00  0.00    +0.000 A 
ATOM      8  C   UNL     1       5.352   3.983  13.578  0.00  0.00    +0.000 A 
ATOM      9  C   UNL     1       6.302   4.896  13.995  0.00  0.00    +0.000 A 
ATOM     10  N   UNL     1       7.271   4.853  13.013  0.00  0.00    +0.000 N 
ATOM     11  C   UNL     1       8.438   5.681  12.835  0.00  0.00    +0.000 C 
ATOM     12  N   UNL     1       7.003   3.974  12.028  0.00  0.00    +0.000 NA
BRANCH   7  13
ATOM     13  C   UNL     1       5.138   2.482  11.448  0.00  0.00    +0.000 C 
BRANCH  13  15
ATOM     14  C   UNL     1       3.515   3.941  10.124  0.00  0.00    +0.000 C 
ATOM     15  C   UNL     1       3.676   2.826  11.149  0.00  0.00    +0.000 C 
ENDBRANCH  13  15
ENDBRANCH   7  13
ENDBRANCH   1   9
BRANCH   4  16
ATOM     16  C   UNL     1       7.899   6.107  18.443  0.00  0.00    +0.000 C 
BRANCH  16  17
ATOM     17  C   UNL     1       7.257   5.494  19.685  0.00  0.00    +0.000 C 
BRANCH  17  18
ATOM     18  N   UNL     1       5.900   5.063  19.414  0.00  0.00    +0.000 N 
ATOM     19  C   UNL     1       4.746   5.792  19.478  0.00  0.00    +0.000 A 
ATOM     20  C   UNL     1       3.763   4.901  19.081  0.00  0.00    +0.000 A 
ATOM     21  N   UNL     1       4.354   3.693  18.804  0.00  0.00    +0.000 NA
ATOM     22  N   UNL     1       5.662   3.808  19.010  0.00  0.00    +0.000 NA
BRANCH  20  23
ATOM     23  C   UNL     1       2.331   5.161  18.954  0.00  0.00    +0.000 C 
ATOM     24  O   UNL     1       1.483   4.279  19.012  0.00  0.00    +0.000 OA
BRANCH  23  25
ATOM     25  O   UNL     1       2.056   6.486  18.771  0.00  0.00    +0.000 OA
ATOM     26  C   UNL     1       1.937   7.247  19.974  0.00  0.00    +0.000 C 
ENDBRANCH  23  25
ENDBRANCH  20  23
ENDBRANCH  17  18
ENDBRANCH  16  17
ENDBRANCH   4  16
TORSDOF 8
ENDMDL
MODEL 8
REMARK VINA RESULT:      -6.6      4.761      7.710
REMARK  Name = 
REMARK  11 active torsions:
REMARK  status: ('A' for Active; 'I' for Inactive)
REMARK    1  A    between atoms: C_1  and  C_2
REMARK    2  A    between atoms: C_2  and  C_3
REMARK    3  A    between atoms: C_3  and  C_4
REMARK    4  A    between atoms: C_6  and  N_7
REMARK    5  A    between atoms: N_10  and  C_11
REMARK    6  A    between atoms: C_11  and  C_12
REMARK    7  A    between atoms: C_12  and  N_13
REMARK    8  A    between atoms: C_15  and  C_16
REMARK    9  A    between atoms: C_16  and  O_18
REMARK   10  A    between atoms: O_18  and  C_19
REMARK   11  A    between atoms: N_22  and  C_23
REMARK                            x       y       z     vdW  Elec       q    Type
REMARK                         _______ _______ _______ _____ _____    ______ ____
ROOT
ATOM      1  N   UNL     1       9.026   9.170  19.200  0.00  0.00    +0.000 N 
ATOM      2  C   UNL     1       8.251   8.546  18.173  0.00  0.00    +0.000 C 
ATOM      3  O   UNL     1       7.790   9.175  17.237  0.00  0.00    +0.000 OA
ATOM      4  N   UNL     1       8.050   7.204  18.380  0.00  0.00    +0.000 N 
ATOM      5  H   UNL     1       9.259   8.659  20.035  0.00  0.00    +0.000 HD
ATOM      6  H   UNL     1       8.631   6.692  19.029  0.00  0.00    +0.000 HD
ENDROOT
BRANCH   1   9
ATOM      7  C   UNL     1      10.084  12.517  18.377  0.00  0.00    +0.000 A 
ATOM      8  C   UNL     1       9.845  11.183  17.985  0.00  0.00    +0.000 A 
ATOM      9  C   UNL     1       9.399  10.520  19.113  0.00  0.00    +0.000 A 
ATOM     10  N   UNL     1       9.417  11.482  20.103  0.00  0.00    +0.000 N 
ATOM     11  C   UNL     1       8.933  11.415  21.460  0.00  0.00    +0.000 C 
ATOM     12  N   UNL     1       9.853  12.684  19.681  0.00  0.00    +0.000 NA
BRANCH   7  13
ATOM     13  C   UNL     1      10.524  13.666  17.530  0.00  0.00    +0.000 C 
BRANCH  13  15
ATOM     14  C   UNL     1       9.080  15.752  17.808  0.00  0.00    +0.000 C 
ATOM     15  C   UNL     1      10.359  15.029  18.209  0.00  0.00    +0.000 C 
ENDBRANCH  13  15
ENDBRANCH   7  13
ENDBRANCH   1   9
BRANCH   4  16
ATOM     16  C   UNL     1       7.287   6.490  17.352  0.00  0.00    +0.000 C 
BRANCH  16  17
ATOM     17  C   UNL     1       5.771   6.472  17.527  0.00  0.00    +0.000 C 
BRANCH  17  18
ATOM     18  N   UNL     1       5.330   5.238  18.148  0.00  0.00    +0.000 N 
ATOM     19  C   UNL     1       4.198   4.516  17.899  0.00  0.00    +0.000 A 
ATOM     20  C   UNL     1       4.305   3.421  18.739  0.00  0.00    +0.000 A 
ATOM     21  N   UNL     1       5.475   3.529  19.451  0.00  0.00    +0.000 NA
ATOM     22  N   UNL     1       6.092   4.645  19.077  0.00  0.00    +0.000 NA
BRANCH  20  23
ATOM     23  C   UNL     1       3.365   2.310  18.872  0.00  0.00    +0.000 C 
ATOM     24  O   UNL     1       3.610   1.175  18.482  0.00  0.00    +0.000 OA
BRANCH  23  25
ATOM     25  O   UNL     1       2.200   2.684  19.479  0.00  0.00    +0.000 OA
ATOM     26  C   UNL     1       1.014   2.382  18.743  0.00  0.00    +0.000 C 
ENDBRANCH  23  25
ENDBRANCH  20  23
ENDBRANCH  17  18
ENDBRANCH  16  17
ENDBRANCH   4  16
TORSDOF 8
ENDMDL
MODEL 9
REMARK VINA RESULT:      -6.5      1.818      2.509
REMARK  Name = 
REMARK  11 active torsions:
REMARK  status: ('A' for Active; 'I' for Inactive)
REMARK    1  A    between atoms: C_1  and  C_2
REMARK    2  A    between atoms: C_2  and  C_3
REMARK    3  A    between atoms: C_3  and  C_4
REMARK    4  A    between atoms: C_6  and  N_7
REMARK    5  A    between atoms: N_10  and  C_11
REMARK    6  A    between atoms: C_11  and  C_12
REMARK    7  A    between atoms: C_12  and  N_13
REMARK    8  A    between atoms: C_15  and  C_16
REMARK    9  A    between atoms: C_16  and  O_18
REMARK   10  A    between atoms: O_18  and  C_19
REMARK   11  A    between atoms: N_22  and  C_23
REMARK                            x       y       z     vdW  Elec       q    Type
REMARK                         _______ _______ _______ _____ _____    ______ ____
ROOT
ATOM      1  N   UNL     1       6.851   3.878  13.499  0.00  0.00    +0.000 N 
ATOM      2  C   UNL     1       6.427   4.091  14.848  0.00  0.00    +0.000 C 
ATOM      3  O   UNL     1       5.262   3.976  15.186  0.00  0.00    +0.000 OA
ATOM      4  N   UNL     1       7.444   4.477  15.685  0.00  0.00    +0.000 N 
ATOM      5  H   UNL     1       7.784   4.132  13.219  0.00  0.00    +0.000 HD
ATOM      6  H   UNL     1       8.408   4.337  15.420  0.00  0.00    +0.000 HD
ENDROOT
BRANCH   1   9
ATOM      7  C   UNL     1       4.206   3.125  11.168  0.00  0.00    +0.000 A 
ATOM      8  C   UNL     1       4.717   3.916  12.218  0.00  0.00    +0.000 A 
ATOM      9  C   UNL     1       5.964   3.403  12.522  0.00  0.00    +0.000 A 
ATOM     10  N   UNL     1       6.112   2.336  11.658  0.00  0.00    +0.000 N 
ATOM     11  C   UNL     1       7.263   1.499  11.419  0.00  0.00    +0.000 C 
ATOM     12  N   UNL     1       5.050   2.139  10.855  0.00  0.00    +0.000 NA
BRANCH   7  13
ATOM     13  C   UNL     1       2.918   3.285  10.429  0.00  0.00    +0.000 C 
BRANCH  13  15
ATOM     14  C   UNL     1       1.932   5.160   9.004  0.00  0.00    +0.000 C 
ATOM     15  C   UNL     1       3.040   4.127   9.155  0.00  0.00    +0.000 C 
ENDBRANCH  13  15
ENDBRANCH   7  13
ENDBRANCH   1   9
BRANCH   4  16
ATOM     16  C   UNL     1       7.090   4.686  17.092  0.00  0.00    +0.000 C 
BRANCH  16  17
ATOM     17  C   UNL     1       6.382   5.998  17.422  0.00  0.00    +0.000 C 
BRANCH  17  18
ATOM     18  N   UNL     1       5.035   5.759  17.904  0.00  0.00    +0.000 N 
ATOM     19  C   UNL     1       4.563   4.696  18.619  0.00  0.00    +0.000 A 
ATOM     20  C   UNL     1       3.232   5.004  18.842  0.00  0.00    +0.000 A 
ATOM     21  N   UNL     1       2.960   6.217  18.257  0.00  0.00    +0.000 NA
ATOM     22  N   UNL     1       4.074   6.668  17.689  0.00  0.00    +0.000 NA
BRANCH  20  23
ATOM     23  C   UNL     1       2.248   4.211  19.577  0.00  0.00    +0.000 C 
ATOM     24  O   UNL     1       1.164   3.888  19.108  0.00  0.00    +0.000 OA
BRANCH  23  25
ATOM     25  O   UNL     1       2.681   3.876  20.828  0.00  0.00    +0.000 OA
ATOM     26  C   UNL     1       1.748   3.122  21.604  0.00  0.00    +0.000 C 
ENDBRANCH  23  25
ENDBRANCH  20  23
ENDBRANCH  17  18
ENDBRANCH  16  17
ENDBRANCH   4  16
TORSDOF 8
ENDMDL
