MODEL 1
REMARK VINA RESULT:      -8.6      0.000      0.000
REMARK  Name = 
REMARK  6 active torsions:
REMARK  status: ('A' for Active; 'I' for Inactive)
REMARK    1  A    between atoms: C_1  and  C_2
REMARK    2  A    between atoms: C_7  and  N_8
REMARK    3  A    between atoms: N_8  and  C_9
REMARK    4  A    between atoms: C_9  and  C_10
REMARK    5  A    between atoms: C_16  and  O_17
REMARK    6  A    between atoms: C_21  and  C_22
REMARK                            x       y       z     vdW  Elec       q    Type
REMARK                         _______ _______ _______ _____ _____    ______ ____
ROOT
ATOM      1  C   UNL     1       1.792   1.997  21.918  0.00  0.00    +0.000 C 
ATOM      2  C   UNL     1       2.163   3.218  21.122  0.00  0.00    +0.000 A 
ATOM      3  N   UNL     1       1.731   4.388  21.483  0.00  0.00    +0.000 NA
ATOM      4  C   UNL     1       2.027   5.501  20.659  0.00  0.00    +0.000 A 
ATOM      5  C   UNL     1       1.521   6.748  21.028  0.00  0.00    +0.000 A 
ATOM      6  C   UNL     1       1.687   7.869  20.203  0.00  0.00    +0.000 A 
ATOM      7  C   UNL     1       2.313   7.743  18.962  0.00  0.00    +0.000 A 
ATOM      8  C   UNL     1       2.870   6.507  18.615  0.00  0.00    +0.000 A 
ATOM      9  C   UNL     1       2.763   5.404  19.461  0.00  0.00    +0.000 A 
ATOM     10  N   UNL     1       3.326   4.142  19.179  0.00  0.00    +0.000 N 
ATOM     11  C   UNL     1       4.235   3.639  18.251  0.00  0.00    +0.000 A 
ATOM     12  N   UNL     1       4.308   2.327  18.439  0.00  0.00    +0.000 NA
ATOM     13  N   UNL     1       3.532   1.969  19.511  0.00  0.00    +0.000 NA
ATOM     14  C   UNL     1       2.993   3.068  19.966  0.00  0.00    +0.000 A 
ENDROOT
BRANCH  11  15
ATOM     15  C   UNL     1       5.071   4.372  17.282  0.00  0.00    +0.000 A 
ATOM     16  C   UNL     1       4.788   4.296  15.905  0.00  0.00    +0.000 A 
ATOM     17  C   UNL     1       5.605   4.911  14.952  0.00  0.00    +0.000 A 
ATOM     18  C   UNL     1       6.657   5.718  15.361  0.00  0.00    +0.000 A 
ATOM     19  C   UNL     1       6.902   5.892  16.721  0.00  0.00    +0.000 A 
ATOM     20  C   UNL     1       6.130   5.213  17.677  0.00  0.00    +0.000 A 
ATOM     21 CL   UNL     1       6.586   5.455  19.331  0.00  0.00    +0.000 Cl
ENDBRANCH  11  15
BRANCH   7  22
ATOM     22  N   UNL     1       2.489   8.786  18.055  0.00  0.00    +0.000 N 
ATOM     23  H   UNL     1       3.307   9.352  18.265  0.00  0.00    +0.000 HD
BRANCH  22  24
ATOM     24  C   UNL     1       1.341   9.616  17.692  0.00  0.00    +0.000 C 
BRANCH  24  25
ATOM     25  C   UNL     1       1.294  10.801  18.629  0.00  0.00    +0.000 A 
ATOM     26  C   UNL     1       0.456  10.748  19.761  0.00  0.00    +0.000 A 
ATOM     27  C   UNL     1       0.421  11.801  20.674  0.00  0.00    +0.000 A 
ATOM     28 BR   UNL     1      -0.715  11.695  22.181  0.00  0.00    +0.000 Br
ATOM     29  C   UNL     1       1.220  12.922  20.486  0.00  0.00    +0.000 A 
ATOM     30  C   UNL     1       2.059  12.993  19.372  0.00  0.00    +0.000 A 
ATOM     31  C   UNL     1       2.092  11.939  18.454  0.00  0.00    +0.000 A 
BRANCH  31  32
ATOM     32  O   UNL     1       2.918  12.011  17.368  0.00  0.00    +0.000 OA
ATOM     33  H   UNL     1       3.020  11.119  16.995  0.00  0.00    +0.000 HD
ENDBRANCH  31  32
ENDBRANCH  24  25
ENDBRANCH  22  24
ENDBRANCH   7  22
TORSDOF 5
ENDMDL
MODEL 2
REMARK VINA RESULT:      -8.4      1.047      1.493
REMARK  Name = 
REMARK  6 active torsions:
REMARK  status: ('A' for Active; 'I' for Inactive)
REMARK    1  A    between atoms: C_1  and  C_2
REMARK    2  A    between atoms: C_7  and  N_8
REMARK    3  A    between atoms: N_8  and  C_9
REMARK    4  A    between atoms: C_9  and  C_10
REMARK    5  A    between atoms: C_16  and  O_17
REMARK    6  A    between atoms: C_21  and  C_22
REMARK                            x       y       z     vdW  Elec       q    Type
REMARK                         _______ _______ _______ _____ _____    ______ ____
ROOT
ATOM      1  C   UNL     1       1.877   1.896  21.767  0.00  0.00    +0.000 C 
ATOM      2  C   UNL     1       2.248   3.210  21.136  0.00  0.00    +0.000 A 
ATOM      3  N   UNL     1       1.529   4.268  21.360  0.00  0.00    +0.000 NA
ATOM      4  C   UNL     1       1.857   5.465  20.677  0.00  0.00    +0.000 A 
ATOM      5  C   UNL     1       1.053   6.586  20.889  0.00  0.00    +0.000 A 
ATOM      6  C   UNL     1       1.258   7.768  20.165  0.00  0.00    +0.000 A 
ATOM      7  C   UNL     1       2.236   7.827  19.172  0.00  0.00    +0.000 A 
ATOM      8  C   UNL     1       3.080   6.723  18.998  0.00  0.00    +0.000 A 
ATOM      9  C   UNL     1       2.921   5.566  19.759  0.00  0.00    +0.000 A 
ATOM     10  N   UNL     1       3.755   4.434  19.649  0.00  0.00    +0.000 N 
ATOM     11  C   UNL     1       4.973   4.147  19.036  0.00  0.00    +0.000 A 
ATOM     12  N   UNL     1       5.217   2.856  19.223  0.00  0.00    +0.000 NA
ATOM     13  N   UNL     1       4.232   2.308  20.004  0.00  0.00    +0.000 NA
ATOM     14  C   UNL     1       3.397   3.272  20.285  0.00  0.00    +0.000 A 
ENDROOT
BRANCH  11  15
ATOM     15  C   UNL     1       5.917   5.067  18.375  0.00  0.00    +0.000 A 
ATOM     16  C   UNL     1       6.925   5.704  19.124  0.00  0.00    +0.000 A 
ATOM     17  C   UNL     1       7.786   6.643  18.549  0.00  0.00    +0.000 A 
ATOM     18  C   UNL     1       7.738   6.878  17.182  0.00  0.00    +0.000 A 
ATOM     19  C   UNL     1       6.817   6.189  16.397  0.00  0.00    +0.000 A 
ATOM     20  C   UNL     1       5.900   5.304  16.986  0.00  0.00    +0.000 A 
ATOM     21 CL   UNL     1       4.757   4.569  15.912  0.00  0.00    +0.000 Cl
ENDBRANCH  11  15
BRANCH   7  22
ATOM     22  N   UNL     1       2.488   8.939  18.372  0.00  0.00    +0.000 N 
ATOM     23  H   UNL     1       3.236   9.522  18.740  0.00  0.00    +0.000 HD
BRANCH  22  24
ATOM     24  C   UNL     1       1.365   9.745  17.898  0.00  0.00    +0.000 C 
BRANCH  24  25
ATOM     25  C   UNL     1       1.285  10.997  18.742  0.00  0.00    +0.000 A 
ATOM     26  C   UNL     1       0.445  11.008  19.873  0.00  0.00    +0.000 A 
ATOM     27  C   UNL     1       0.380  12.127  20.704  0.00  0.00    +0.000 A 
ATOM     28 BR   UNL     1      -0.758  12.108  22.213  0.00  0.00    +0.000 Br
ATOM     29  C   UNL     1       1.151  13.251  20.431  0.00  0.00    +0.000 A 
ATOM     30  C   UNL     1       1.992  13.258  19.316  0.00  0.00    +0.000 A 
ATOM     31  C   UNL     1       2.054  12.138  18.482  0.00  0.00    +0.000 A 
BRANCH  31  32
ATOM     32  O   UNL     1       2.881  12.148  17.394  0.00  0.00    +0.000 OA
ATOM     33  H   UNL     1       2.441  11.680  16.664  0.00  0.00    +0.000 HD
ENDBRANCH  31  32
ENDBRANCH  24  25
ENDBRANCH  22  24
ENDBRANCH   7  22
TORSDOF 5
ENDMDL
MODEL 3
REMARK VINA RESULT:      -8.3      1.408      1.644
REMARK  Name = 
REMARK  6 active torsions:
REMARK  status: ('A' for Active; 'I' for Inactive)
REMARK    1  A    between atoms: C_1  and  C_2
REMARK    2  A    between atoms: C_7  and  N_8
REMARK    3  A    between atoms: N_8  and  C_9
REMARK    4  A    between atoms: C_9  and  C_10
REMARK    5  A    between atoms: C_16  and  O_17
REMARK    6  A    between atoms: C_21  and  C_22
REMARK                            x       y       z     vdW  Elec       q    Type
REMARK                         _______ _______ _______ _____ _____    ______ ____
ROOT
ATOM      1  C   UNL     1       1.676   1.947  21.755  0.00  0.00    +0.000 C 
ATOM      2  C   UNL     1       2.080   3.177  20.991  0.00  0.00    +0.000 A 
ATOM      3  N   UNL     1       1.678   4.349  21.382  0.00  0.00    +0.000 NA
ATOM      4  C   UNL     1       2.004   5.475  20.586  0.00  0.00    +0.000 A 
ATOM      5  C   UNL     1       1.531   6.725  20.988  0.00  0.00    +0.000 A 
ATOM      6  C   UNL     1       1.727   7.861  20.191  0.00  0.00    +0.000 A 
ATOM      7  C   UNL     1       2.350   7.752  18.948  0.00  0.00    +0.000 A 
ATOM      8  C   UNL     1       2.874   6.510  18.569  0.00  0.00    +0.000 A 
ATOM      9  C   UNL     1       2.738   5.389  19.386  0.00  0.00    +0.000 A 
ATOM     10  N   UNL     1       3.268   4.120  19.073  0.00  0.00    +0.000 N 
ATOM     11  C   UNL     1       4.164   3.618  18.132  0.00  0.00    +0.000 A 
ATOM     12  N   UNL     1       4.203   2.301  18.286  0.00  0.00    +0.000 NA
ATOM     13  N   UNL     1       3.417   1.935  19.348  0.00  0.00    +0.000 NA
ATOM     14  C   UNL     1       2.906   3.036  19.831  0.00  0.00    +0.000 A 
ENDROOT
BRANCH  11  15
ATOM     15  C   UNL     1       5.019   4.353  17.182  0.00  0.00    +0.000 A 
ATOM     16  C   UNL     1       4.761   4.286  15.800  0.00  0.00    +0.000 A 
ATOM     17  C   UNL     1       5.597   4.903  14.865  0.00  0.00    +0.000 A 
ATOM     18  C   UNL     1       6.645   5.704  15.297  0.00  0.00    +0.000 A 
ATOM     19  C   UNL     1       6.866   5.870  16.662  0.00  0.00    +0.000 A 
ATOM     20  C   UNL     1       6.074   5.189  17.600  0.00  0.00    +0.000 A 
ATOM     21 CL   UNL     1       6.501   5.420  19.263  0.00  0.00    +0.000 Cl
ENDBRANCH  11  15
BRANCH   7  22
ATOM     22  N   UNL     1       2.553   8.812  18.068  0.00  0.00    +0.000 N 
ATOM     23  H   UNL     1       3.307   9.427  18.366  0.00  0.00    +0.000 HD
BRANCH  22  24
ATOM     24  C   UNL     1       1.400   9.571  17.588  0.00  0.00    +0.000 C 
BRANCH  24  25
ATOM     25  C   UNL     1       1.303  10.850  18.388  0.00  0.00    +0.000 A 
ATOM     26  C   UNL     1       2.287  11.843  18.216  0.00  0.00    +0.000 A 
ATOM     27  C   UNL     1       2.207  13.055  18.900  0.00  0.00    +0.000 A 
ATOM     28 BR   UNL     1       3.546  14.365  18.645  0.00  0.00    +0.000 Br
ATOM     29  C   UNL     1       1.147  13.307  19.763  0.00  0.00    +0.000 A 
ATOM     30  C   UNL     1       0.160  12.336  19.946  0.00  0.00    +0.000 A 
ATOM     31  C   UNL     1       0.242  11.120  19.262  0.00  0.00    +0.000 A 
BRANCH  31  32
ATOM     32  O   UNL     1      -0.729  10.175  19.440  0.00  0.00    +0.000 OA
ATOM     33  H   UNL     1      -1.481  10.584  19.902  0.00  0.00    +0.000 HD
ENDBRANCH  31  32
ENDBRANCH  24  25
ENDBRANCH  22  24
ENDBRANCH   7  22
TORSDOF 5
ENDMDL
MODEL 4
REMARK VINA RESULT:      -8.3      1.490      1.773
REMARK  Name = 
REMARK  6 active torsions:
REMARK  status: ('A' for Active; 'I' for Inactive)
REMARK    1  A    between atoms: C_1  and  C_2
REMARK    2  A    between atoms: C_7  and  N_8
REMARK    3  A    between atoms: N_8  and  C_9
REMARK    4  A    between atoms: C_9  and  C_10
REMARK    5  A    between atoms: C_16  and  O_17
REMARK    6  A    between atoms: C_21  and  C_22
REMARK                            x       y       z     vdW  Elec       q    Type
REMARK                         _______ _______ _______ _____ _____    ______ ____
ROOT
ATOM      1  C   UNL     1       1.869   2.158  21.966  0.00  0.00    +0.000 C 
ATOM      2  C   UNL     1       2.206   3.353  21.117  0.00  0.00    +0.000 A 
ATOM      3  N   UNL     1       1.741   4.526  21.427  0.00  0.00    +0.000 NA
ATOM      4  C   UNL     1       2.006   5.609  20.554  0.00  0.00    +0.000 A 
ATOM      5  C   UNL     1       1.466   6.857  20.870  0.00  0.00    +0.000 A 
ATOM      6  C   UNL     1       1.601   7.944  19.995  0.00  0.00    +0.000 A 
ATOM      7  C   UNL     1       2.228   7.782  18.760  0.00  0.00    +0.000 A 
ATOM      8  C   UNL     1       2.819   6.547  18.466  0.00  0.00    +0.000 A 
ATOM      9  C   UNL     1       2.744   5.480  19.360  0.00  0.00    +0.000 A 
ATOM     10  N   UNL     1       3.341   4.222  19.133  0.00  0.00    +0.000 N 
ATOM     11  C   UNL     1       4.263   3.705  18.226  0.00  0.00    +0.000 A 
ATOM     12  N   UNL     1       4.373   2.405  18.470  0.00  0.00    +0.000 NA
ATOM     13  N   UNL     1       3.608   2.073  19.559  0.00  0.00    +0.000 NA
ATOM     14  C   UNL     1       3.038   3.175  19.967  0.00  0.00    +0.000 A 
ENDROOT
BRANCH  11  15
ATOM     15  C   UNL     1       5.077   4.417  17.224  0.00  0.00    +0.000 A 
ATOM     16  C   UNL     1       4.753   4.329  15.857  0.00  0.00    +0.000 A 
ATOM     17  C   UNL     1       5.547   4.924  14.872  0.00  0.00    +0.000 A 
ATOM     18  C   UNL     1       6.620   5.723  15.241  0.00  0.00    +0.000 A 
ATOM     19  C   UNL     1       6.907   5.910  16.590  0.00  0.00    +0.000 A 
ATOM     20  C   UNL     1       6.157   5.251  17.577  0.00  0.00    +0.000 A 
ATOM     21 CL   UNL     1       6.664   5.506  19.214  0.00  0.00    +0.000 Cl
ENDBRANCH  11  15
BRANCH   7  22
ATOM     22  N   UNL     1       2.374   8.788  17.807  0.00  0.00    +0.000 N 
ATOM     23  H   UNL     1       3.137   8.604  17.160  0.00  0.00    +0.000 HD
BRANCH  22  24
ATOM     24  C   UNL     1       2.361  10.184  18.238  0.00  0.00    +0.000 C 
BRANCH  24  25
ATOM     25  C   UNL     1       0.930  10.586  18.514  0.00  0.00    +0.000 A 
ATOM     26  C   UNL     1      -0.091  10.110  17.667  0.00  0.00    +0.000 A 
ATOM     27  C   UNL     1      -1.428  10.418  17.915  0.00  0.00    +0.000 A 
ATOM     28 BR   UNL     1      -2.771   9.763  16.758  0.00  0.00    +0.000 Br
ATOM     29  C   UNL     1      -1.777  11.199  19.011  0.00  0.00    +0.000 A 
ATOM     30  C   UNL     1      -0.781  11.678  19.863  0.00  0.00    +0.000 A 
ATOM     31  C   UNL     1       0.560  11.371  19.613  0.00  0.00    +0.000 A 
BRANCH  31  32
ATOM     32  O   UNL     1       1.531  11.839  20.452  0.00  0.00    +0.000 OA
ATOM     33  H   UNL     1       2.045  11.084  20.785  0.00  0.00    +0.000 HD
ENDBRANCH  31  32
ENDBRANCH  24  25
ENDBRANCH  22  24
ENDBRANCH   7  22
TORSDOF 5
ENDMDL
MODEL 5
REMARK VINA RESULT:      -8.1      1.792      2.247
REMARK  Name = 
REMARK  6 active torsions:
REMARK  status: ('A' for Active; 'I' for Inactive)
REMARK    1  A    between atoms: C_1  and  C_2
REMARK    2  A    between atoms: C_7  and  N_8
REMARK    3  A    between atoms: N_8  and  C_9
REMARK    4  A    between atoms: C_9  and  C_10
REMARK    5  A    between atoms: C_16  and  O_17
REMARK    6  A    between atoms: C_21  and  C_22
REMARK                            x       y       z     vdW  Elec       q    Type
REMARK                         _______ _______ _______ _____ _____    ______ ____
ROOT
ATOM      1  C   UNL     1       1.846   1.947  21.812  0.00  0.00    +0.000 C 
ATOM      2  C   UNL     1       2.229   3.245  21.158  0.00  0.00    +0.000 A 
ATOM      3  N   UNL     1       1.525   4.316  21.370  0.00  0.00    +0.000 NA
ATOM      4  C   UNL     1       1.865   5.497  20.666  0.00  0.00    +0.000 A 
ATOM      5  C   UNL     1       1.077   6.632  20.865  0.00  0.00    +0.000 A 
ATOM      6  C   UNL     1       1.292   7.800  20.121  0.00  0.00    +0.000 A 
ATOM      7  C   UNL     1       2.265   7.830  19.121  0.00  0.00    +0.000 A 
ATOM      8  C   UNL     1       3.093   6.713  18.960  0.00  0.00    +0.000 A 
ATOM      9  C   UNL     1       2.925   5.570  19.740  0.00  0.00    +0.000 A 
ATOM     10  N   UNL     1       3.743   4.425  19.643  0.00  0.00    +0.000 N 
ATOM     11  C   UNL     1       4.953   4.114  19.028  0.00  0.00    +0.000 A 
ATOM     12  N   UNL     1       5.181   2.823  19.234  0.00  0.00    +0.000 NA
ATOM     13  N   UNL     1       4.195   2.300  20.029  0.00  0.00    +0.000 NA
ATOM     14  C   UNL     1       3.374   3.279  20.300  0.00  0.00    +0.000 A 
ENDROOT
BRANCH  11  15
ATOM     15  C   UNL     1       5.905   5.011  18.347  0.00  0.00    +0.000 A 
ATOM     16  C   UNL     1       6.901   5.678  19.086  0.00  0.00    +0.000 A 
ATOM     17  C   UNL     1       7.769   6.596  18.488  0.00  0.00    +0.000 A 
ATOM     18  C   UNL     1       7.740   6.780  17.113  0.00  0.00    +0.000 A 
ATOM     19  C   UNL     1       6.831   6.060  16.341  0.00  0.00    +0.000 A 
ATOM     20  C   UNL     1       5.908   5.195  16.950  0.00  0.00    +0.000 A 
ATOM     21 CL   UNL     1       4.781   4.419  15.887  0.00  0.00    +0.000 Cl
ENDBRANCH  11  15
BRANCH   7  22
ATOM     22  N   UNL     1       2.527   8.926  18.303  0.00  0.00    +0.000 N 
ATOM     23  H   UNL     1       3.278   9.510  18.662  0.00  0.00    +0.000 HD
BRANCH  22  24
ATOM     24  C   UNL     1       1.409   9.732  17.812  0.00  0.00    +0.000 C 
BRANCH  24  25
ATOM     25  C   UNL     1       1.445  11.073  18.509  0.00  0.00    +0.000 A 
ATOM     26  C   UNL     1       2.448  11.999  18.162  0.00  0.00    +0.000 A 
ATOM     27  C   UNL     1       2.486  13.264  18.748  0.00  0.00    +0.000 A 
ATOM     28 BR   UNL     1       3.847  14.482  18.259  0.00  0.00    +0.000 Br
ATOM     29  C   UNL     1       1.528  13.635  19.683  0.00  0.00    +0.000 A 
ATOM     30  C   UNL     1       0.524  12.731  20.039  0.00  0.00    +0.000 A 
ATOM     31  C   UNL     1       0.487  11.462  19.454  0.00  0.00    +0.000 A 
BRANCH  31  32
ATOM     32  O   UNL     1      -0.499  10.584  19.802  0.00  0.00    +0.000 OA
ATOM     33  H   UNL     1      -0.089   9.742  20.064  0.00  0.00    +0.000 HD
ENDBRANCH  31  32
ENDBRANCH  24  25
ENDBRANCH  22  24
ENDBRANCH   7  22
TORSDOF 5
ENDMDL
MODEL 6
REMARK VINA RESULT:      -7.9      4.394      7.650
REMARK  Name = 
REMARK  6 active torsions:
REMARK  status: ('A' for Active; 'I' for Inactive)
REMARK    1  A    between atoms: C_1  and  C_2
REMARK    2  A    between atoms: C_7  and  N_8
REMARK    3  A    between atoms: N_8  and  C_9
REMARK    4  A    between atoms: C_9  and  C_10
REMARK    5  A    between atoms: C_16  and  O_17
REMARK    6  A    between atoms: C_21  and  C_22
REMARK                            x       y       z     vdW  Elec       q    Type
REMARK                         _______ _______ _______ _____ _____    ______ ____
ROOT
ATOM      1  C   UNL     1       2.486   6.599  19.002  0.00  0.00    +0.000 C 
ATOM      2  C   UNL     1       1.884   7.811  19.657  0.00  0.00    +0.000 A 
ATOM      3  N   UNL     1       1.422   7.736  20.869  0.00  0.00    +0.000 NA
ATOM      4  C   UNL     1       0.781   8.873  21.419  0.00  0.00    +0.000 A 
ATOM      5  C   UNL     1       0.247   8.771  22.704  0.00  0.00    +0.000 A 
ATOM      6  C   UNL     1      -0.492   9.822  23.265  0.00  0.00    +0.000 A 
ATOM      7  C   UNL     1      -0.758  10.972  22.521  0.00  0.00    +0.000 A 
ATOM      8  C   UNL     1      -0.177  11.099  21.254  0.00  0.00    +0.000 A 
ATOM      9  C   UNL     1       0.612  10.083  20.716  0.00  0.00    +0.000 A 
ATOM     10  N   UNL     1       1.246  10.163  19.459  0.00  0.00    +0.000 N 
ATOM     11  C   UNL     1       1.495  11.171  18.530  0.00  0.00    +0.000 A 
ATOM     12  N   UNL     1       2.077  10.607  17.479  0.00  0.00    +0.000 NA
ATOM     13  N   UNL     1       2.284   9.274  17.725  0.00  0.00    +0.000 NA
ATOM     14  C   UNL     1       1.824   9.039  18.925  0.00  0.00    +0.000 A 
ENDROOT
BRANCH  11  15
ATOM     15  C   UNL     1       1.277  12.624  18.658  0.00  0.00    +0.000 A 
ATOM     16  C   UNL     1       2.363  13.483  18.910  0.00  0.00    +0.000 A 
ATOM     17  C   UNL     1       2.184  14.854  19.116  0.00  0.00    +0.000 A 
ATOM     18  C   UNL     1       0.926  15.418  18.956  0.00  0.00    +0.000 A 
ATOM     19  C   UNL     1      -0.152  14.608  18.609  0.00  0.00    +0.000 A 
ATOM     20  C   UNL     1       0.013  13.220  18.478  0.00  0.00    +0.000 A 
ATOM     21 CL   UNL     1      -1.421  12.316  18.119  0.00  0.00    +0.000 Cl
ENDBRANCH  11  15
BRANCH   7  22
ATOM     22  N   UNL     1      -1.515  12.050  22.973  0.00  0.00    +0.000 N 
ATOM     23  H   UNL     1      -2.201  11.778  23.674  0.00  0.00    +0.000 HD
BRANCH  22  24
ATOM     24  C   UNL     1      -2.083  12.981  21.999  0.00  0.00    +0.000 C 
BRANCH  24  25
ATOM     25  C   UNL     1      -3.590  12.937  22.120  0.00  0.00    +0.000 A 
ATOM     26  C   UNL     1      -4.359  12.614  20.984  0.00  0.00    +0.000 A 
ATOM     27  C   UNL     1      -5.748  12.517  21.066  0.00  0.00    +0.000 A 
ATOM     28 BR   UNL     1      -6.748  12.083  19.523  0.00  0.00    +0.000 Br
ATOM     29  C   UNL     1      -6.398  12.732  22.276  0.00  0.00    +0.000 A 
ATOM     30  C   UNL     1      -5.652  13.051  23.413  0.00  0.00    +0.000 A 
ATOM     31  C   UNL     1      -4.260  13.152  23.330  0.00  0.00    +0.000 A 
BRANCH  31  32
ATOM     32  O   UNL     1      -3.535  13.460  24.447  0.00  0.00    +0.000 OA
ATOM     33  H   UNL     1      -2.609  13.600  24.188  0.00  0.00    +0.000 HD
ENDBRANCH  31  32
ENDBRANCH  24  25
ENDBRANCH  22  24
ENDBRANCH   7  22
TORSDOF 5
ENDMDL
MODEL 7
REMARK VINA RESULT:      -7.8      2.496      4.853
REMARK  Name = 
REMARK  6 active torsions:
REMARK  status: ('A' for Active; 'I' for Inactive)
REMARK    1  A    between atoms: C_1  and  C_2
REMARK    2  A    between atoms: C_7  and  N_8
REMARK    3  A    between atoms: N_8  and  C_9
REMARK    4  A    between atoms: C_9  and  C_10
REMARK    5  A    between atoms: C_16  and  O_17
REMARK    6  A    between atoms: C_21  and  C_22
REMARK                            x       y       z     vdW  Elec       q    Type
REMARK                         _______ _______ _______ _____ _____    ______ ____
ROOT
ATOM      1  C   UNL     1       6.759   5.898  15.618  0.00  0.00    +0.000 C 
ATOM      2  C   UNL     1       5.580   6.084  16.531  0.00  0.00    +0.000 A 
ATOM      3  N   UNL     1       4.889   7.183  16.489  0.00  0.00    +0.000 NA
ATOM      4  C   UNL     1       3.842   7.359  17.427  0.00  0.00    +0.000 A 
ATOM      5  C   UNL     1       3.133   8.561  17.406  0.00  0.00    +0.000 A 
ATOM      6  C   UNL     1       2.158   8.841  18.372  0.00  0.00    +0.000 A 
ATOM      7  C   UNL     1       1.919   7.944  19.413  0.00  0.00    +0.000 A 
ATOM      8  C   UNL     1       2.588   6.714  19.404  0.00  0.00    +0.000 A 
ATOM      9  C   UNL     1       3.513   6.403  18.409  0.00  0.00    +0.000 A 
ATOM     10  N   UNL     1       4.198   5.172  18.331  0.00  0.00    +0.000 N 
ATOM     11  C   UNL     1       4.084   3.927  18.944  0.00  0.00    +0.000 A 
ATOM     12  N   UNL     1       5.087   3.176  18.506  0.00  0.00    +0.000 NA
ATOM     13  N   UNL     1       5.809   3.870  17.569  0.00  0.00    +0.000 NA
ATOM     14  C   UNL     1       5.237   5.037  17.445  0.00  0.00    +0.000 A 
ENDROOT
BRANCH  11  15
ATOM     15  C   UNL     1       3.024   3.428  19.839  0.00  0.00    +0.000 A 
ATOM     16  C   UNL     1       3.328   3.073  21.167  0.00  0.00    +0.000 A 
ATOM     17  C   UNL     1       2.368   2.522  22.020  0.00  0.00    +0.000 A 
ATOM     18  C   UNL     1       1.048   2.423  21.602  0.00  0.00    +0.000 A 
ATOM     19  C   UNL     1       0.696   2.859  20.327  0.00  0.00    +0.000 A 
ATOM     20  C   UNL     1       1.674   3.341  19.443  0.00  0.00    +0.000 A 
ATOM     21 CL   UNL     1       1.119   3.777  17.861  0.00  0.00    +0.000 Cl
ENDBRANCH  11  15
BRANCH   7  22
ATOM     22  N   UNL     1       1.002   8.150  20.442  0.00  0.00    +0.000 N 
ATOM     23  H   UNL     1       0.080   8.404  20.096  0.00  0.00    +0.000 HD
BRANCH  22  24
ATOM     24  C   UNL     1       1.390   8.969  21.589  0.00  0.00    +0.000 C 
BRANCH  24  25
ATOM     25  C   UNL     1       0.354  10.055  21.772  0.00  0.00    +0.000 A 
ATOM     26  C   UNL     1       0.070  10.920  20.697  0.00  0.00    +0.000 A 
ATOM     27  C   UNL     1      -0.912  11.903  20.811  0.00  0.00    +0.000 A 
ATOM     28 BR   UNL     1      -1.268  13.045  19.348  0.00  0.00    +0.000 Br
ATOM     29  C   UNL     1      -1.634  12.043  21.991  0.00  0.00    +0.000 A 
ATOM     30  C   UNL     1      -1.368  11.194  23.067  0.00  0.00    +0.000 A 
ATOM     31  C   UNL     1      -0.381  10.210  22.954  0.00  0.00    +0.000 A 
BRANCH  31  32
ATOM     32  O   UNL     1      -0.128   9.379  24.008  0.00  0.00    +0.000 OA
ATOM     33  H   UNL     1      -0.814   8.691  24.035  0.00  0.00    +0.000 HD
ENDBRANCH  31  32
ENDBRANCH  24  25
ENDBRANCH  22  24
ENDBRANCH   7  22
TORSDOF 5
ENDMDL
MODEL 8
REMARK VINA RESULT:      -7.8      1.681      2.124
REMARK  Name = 
REMARK  6 active torsions:
REMARK  status: ('A' for Active; 'I' for Inactive)
REMARK    1  A    between atoms: C_1  and  C_2
REMARK    2  A    between atoms: C_7  and  N_8
REMARK    3  A    between atoms: N_8  and  C_9
REMARK    4  A    between atoms: C_9  and  C_10
REMARK    5  A    between atoms: C_16  and  O_17
REMARK    6  A    between atoms: C_21  and  C_22
REMARK                            x       y       z     vdW  Elec       q    Type
REMARK                         _______ _______ _______ _____ _____    ______ ____
ROOT
ATOM      1  C   UNL     1       1.864   1.787  21.817  0.00  0.00    +0.000 C 
ATOM      2  C   UNL     1       2.239   3.107  21.204  0.00  0.00    +0.000 A 
ATOM      3  N   UNL     1       1.549   4.173  21.475  0.00  0.00    +0.000 NA
ATOM      4  C   UNL     1       1.878   5.379  20.808  0.00  0.00    +0.000 A 
ATOM      5  C   UNL     1       1.104   6.510  21.071  0.00  0.00    +0.000 A 
ATOM      6  C   UNL     1       1.308   7.705  20.368  0.00  0.00    +0.000 A 
ATOM      7  C   UNL     1       2.255   7.767  19.344  0.00  0.00    +0.000 A 
ATOM      8  C   UNL     1       3.070   6.652  19.118  0.00  0.00    +0.000 A 
ATOM      9  C   UNL     1       2.914   5.481  19.858  0.00  0.00    +0.000 A 
ATOM     10  N   UNL     1       3.721   4.336  19.695  0.00  0.00    +0.000 N 
ATOM     11  C   UNL     1       4.913   4.041  19.037  0.00  0.00    +0.000 A 
ATOM     12  N   UNL     1       5.137   2.741  19.186  0.00  0.00    +0.000 NA
ATOM     13  N   UNL     1       4.168   2.194  19.987  0.00  0.00    +0.000 NA
ATOM     14  C   UNL     1       3.361   3.167  20.317  0.00  0.00    +0.000 A 
ENDROOT
BRANCH  11  15
ATOM     15  C   UNL     1       5.853   4.958  18.366  0.00  0.00    +0.000 A 
ATOM     16  C   UNL     1       6.822   5.650  19.116  0.00  0.00    +0.000 A 
ATOM     17  C   UNL     1       7.677   6.587  18.527  0.00  0.00    +0.000 A 
ATOM     18  C   UNL     1       7.663   6.766  17.151  0.00  0.00    +0.000 A 
ATOM     19  C   UNL     1       6.782   6.022  16.369  0.00  0.00    +0.000 A 
ATOM     20  C   UNL     1       5.870   5.138  16.968  0.00  0.00    +0.000 A 
ATOM     21 CL   UNL     1       4.777   4.332  15.893  0.00  0.00    +0.000 Cl
ENDBRANCH  11  15
BRANCH   7  22
ATOM     22  N   UNL     1       2.502   8.893  18.562  0.00  0.00    +0.000 N 
ATOM     23  H   UNL     1       2.689   9.722  19.121  0.00  0.00    +0.000 HD
BRANCH  22  24
ATOM     24  C   UNL     1       1.613   9.191  17.440  0.00  0.00    +0.000 C 
BRANCH  24  25
ATOM     25  C   UNL     1       0.537  10.136  17.922  0.00  0.00    +0.000 A 
ATOM     26  C   UNL     1      -0.815   9.808  17.697  0.00  0.00    +0.000 A 
ATOM     27  C   UNL     1      -1.838  10.630  18.168  0.00  0.00    +0.000 A 
ATOM     28 BR   UNL     1      -3.640  10.160  17.847  0.00  0.00    +0.000 Br
ATOM     29  C   UNL     1      -1.539  11.789  18.876  0.00  0.00    +0.000 A 
ATOM     30  C   UNL     1      -0.206  12.130  19.111  0.00  0.00    +0.000 A 
ATOM     31  C   UNL     1       0.820  11.307  18.636  0.00  0.00    +0.000 A 
BRANCH  31  32
ATOM     32  O   UNL     1       2.123  11.643  18.873  0.00  0.00    +0.000 OA
ATOM     33  H   UNL     1       2.339  12.437  18.355  0.00  0.00    +0.000 HD
ENDBRANCH  31  32
ENDBRANCH  24  25
ENDBRANCH  22  24
ENDBRANCH   7  22
TORSDOF 5
ENDMDL
MODEL 9
REMARK VINA RESULT:      -7.8      1.623      2.069
REMARK  Name = 
REMARK  6 active torsions:
REMARK  status: ('A' for Active; 'I' for Inactive)
REMARK    1  A    between atoms: C_1  and  C_2
REMARK    2  A    between atoms: C_7  and  N_8
REMARK    3  A    between atoms: N_8  and  C_9
REMARK    4  A    between atoms: C_9  and  C_10
REMARK    5  A    between atoms: C_16  and  O_17
REMARK    6  A    between atoms: C_21  and  C_22
REMARK                            x       y       z     vdW  Elec       q    Type
REMARK                         _______ _______ _______ _____ _____    ______ ____
ROOT
ATOM      1  C   UNL     1       1.908   1.851  21.898  0.00  0.00    +0.000 C 
ATOM      2  C   UNL     1       2.272   3.151  21.238  0.00  0.00    +0.000 A 
ATOM      3  N   UNL     1       1.568   4.219  21.466  0.00  0.00    +0.000 NA
ATOM      4  C   UNL     1       1.888   5.403  20.757  0.00  0.00    +0.000 A 
ATOM      5  C   UNL     1       1.099   6.534  20.973  0.00  0.00    +0.000 A 
ATOM      6  C   UNL     1       1.294   7.704  20.227  0.00  0.00    +0.000 A 
ATOM      7  C   UNL     1       2.246   7.739  19.207  0.00  0.00    +0.000 A 
ATOM      8  C   UNL     1       3.075   6.626  19.027  0.00  0.00    +0.000 A 
ATOM      9  C   UNL     1       2.928   5.482  19.809  0.00  0.00    +0.000 A 
ATOM     10  N   UNL     1       3.749   4.341  19.693  0.00  0.00    +0.000 N 
ATOM     11  C   UNL     1       4.947   4.035  19.052  0.00  0.00    +0.000 A 
ATOM     12  N   UNL     1       5.185   2.745  19.251  0.00  0.00    +0.000 NA
ATOM     13  N   UNL     1       4.218   2.216  20.066  0.00  0.00    +0.000 NA
ATOM     14  C   UNL     1       3.398   3.191  20.355  0.00  0.00    +0.000 A 
ENDROOT
BRANCH  11  15
ATOM     15  C   UNL     1       5.881   4.937  18.352  0.00  0.00    +0.000 A 
ATOM     16  C   UNL     1       6.863   5.639  19.077  0.00  0.00    +0.000 A 
ATOM     17  C   UNL     1       7.712   6.563  18.461  0.00  0.00    +0.000 A 
ATOM     18  C   UNL     1       7.679   6.718  17.082  0.00  0.00    +0.000 A 
ATOM     19  C   UNL     1       6.785   5.965  16.326  0.00  0.00    +0.000 A 
ATOM     20  C   UNL     1       5.879   5.094  16.952  0.00  0.00    +0.000 A 
ATOM     21 CL   UNL     1       4.769   4.273  15.906  0.00  0.00    +0.000 Cl
ENDBRANCH  11  15
BRANCH   7  22
ATOM     22  N   UNL     1       2.485   8.838  18.385  0.00  0.00    +0.000 N 
ATOM     23  H   UNL     1       2.996   9.577  18.862  0.00  0.00    +0.000 HD
BRANCH  22  24
ATOM     24  C   UNL     1       1.391   9.377  17.579  0.00  0.00    +0.000 C 
BRANCH  24  25
ATOM     25  C   UNL     1       0.731  10.494  18.355  0.00  0.00    +0.000 A 
ATOM     26  C   UNL     1       1.537  11.409  19.060  0.00  0.00    +0.000 A 
ATOM     27  C   UNL     1       0.969  12.480  19.748  0.00  0.00    +0.000 A 
ATOM     28 BR   UNL     1       2.081  13.688  20.683  0.00  0.00    +0.000 Br
ATOM     29  C   UNL     1      -0.409  12.667  19.744  0.00  0.00    +0.000 A 
ATOM     30  C   UNL     1      -1.225  11.771  19.049  0.00  0.00    +0.000 A 
ATOM     31  C   UNL     1      -0.655  10.696  18.362  0.00  0.00    +0.000 A 
BRANCH  31  32
ATOM     32  O   UNL     1      -1.458   9.825  17.680  0.00  0.00    +0.000 OA
ATOM     33  H   UNL     1      -1.706   9.098  18.276  0.00  0.00    +0.000 HD
ENDBRANCH  31  32
ENDBRANCH  24  25
ENDBRANCH  22  24
ENDBRANCH   7  22
TORSDOF 5
ENDMDL
