MODEL 1
REMARK VINA RESULT:      -8.8      0.000      0.000
REMARK  Name = 
REMARK  8 active torsions:
REMARK  status: ('A' for Active; 'I' for Inactive)
REMARK    1  A    between atoms: C_2  and  C_25
REMARK    2  A    between atoms: N_3  and  CA_4
REMARK    3  A    between atoms: CA_4  and  C_5
REMARK    4  A    between atoms: CA_4  and  C_7
REMARK    5  A    between atoms: C_5  and  O_6
REMARK    6  A    between atoms: C_10  and  N_11
REMARK    7  A    between atoms: C_12  and  C_14
REMARK    8  A    between atoms: C_16  and  C_17
REMARK                            x       y       z     vdW  Elec       q    Type
REMARK                         _______ _______ _______ _____ _____    ______ ____
ROOT
ATOM      1  C   UNL     1       4.698   5.670  18.347  0.00  0.00    +0.000 A 
ATOM      2  C   UNL     1       3.873   5.372  19.439  0.00  0.00    +0.000 A 
ATOM      3  C   UNL     1       2.770   6.173  19.749  0.00  0.00    +0.000 A 
ATOM      4  C   UNL     1       2.453   7.286  18.976  0.00  0.00    +0.000 A 
ATOM      5  C   UNL     1       3.270   7.596  17.883  0.00  0.00    +0.000 A 
ATOM      6  C   UNL     1       4.390   6.807  17.582  0.00  0.00    +0.000 A 
ENDROOT
BRANCH   4   7
ATOM      7  N   UNL     1       1.350   8.130  19.238  0.00  0.00    +0.000 N 
ATOM      8  C   UNL     1       1.075   8.778  20.427  0.00  0.00    +0.000 C 
ATOM      9  O   UNL     1       1.745   8.765  21.450  0.00  0.00    +0.000 OA
ATOM     10  H   UNL     1       0.708   8.284  18.470  0.00  0.00    +0.000 HD
BRANCH   8  11
ATOM     11  C   UNL     1      -0.172   9.594  20.391  0.00  0.00    +0.000 C 
ATOM     12  C   UNL     1      -0.160  11.043  20.815  0.00  0.00    +0.000 C 
ATOM     13  C   UNL     1      -0.291  10.703  19.352  0.00  0.00    +0.000 C 
BRANCH  13  14
ATOM     14  C   UNL     1      -1.594  10.805  18.602  0.00  0.00    +0.000 A 
ATOM     15  C   UNL     1      -1.895  10.040  17.469  0.00  0.00    +0.000 A 
ATOM     16  C   UNL     1      -3.102  10.217  16.794  0.00  0.00    +0.000 A 
ATOM     17  C   UNL     1      -3.994  11.155  17.280  0.00  0.00    +0.000 A 
ATOM     18  N   UNL     1      -3.766  11.903  18.378  0.00  0.00    +0.000 NA
ATOM     19  C   UNL     1      -2.586  11.702  19.008  0.00  0.00    +0.000 A 
ENDBRANCH  13  14
ENDBRANCH   8  11
ENDBRANCH   4   7
BRANCH   1  20
ATOM     20  CA  UNL     1       5.919   4.791  18.089  0.00  0.00    +0.000 C 
BRANCH  20  23
ATOM     21  O   UNL     1       7.399   6.239  16.113  0.00  0.00    +0.000 OA
ATOM     22  C   UNL     1       6.785   5.235  15.785  0.00  0.00    +0.000 C 
ATOM     23  N   UNL     1       6.036   4.482  16.661  0.00  0.00    +0.000 N 
ATOM     24  H   UNL     1       5.909   3.513  16.403  0.00  0.00    +0.000 HD
BRANCH  22  25
ATOM     25  C   UNL     1       6.809   4.750  14.379  0.00  0.00    +0.000 A 
ATOM     26  C   UNL     1       7.704   5.328  13.472  0.00  0.00    +0.000 A 
ATOM     27  C   UNL     1       7.723   4.897  12.144  0.00  0.00    +0.000 A 
ATOM     28  C   UNL     1       6.845   3.898  11.720  0.00  0.00    +0.000 A 
ATOM     29  C   UNL     1       5.940   3.332  12.617  0.00  0.00    +0.000 A 
ATOM     30  C   UNL     1       5.917   3.759  13.945  0.00  0.00    +0.000 A 
ENDBRANCH  22  25
ENDBRANCH  20  23
BRANCH  20  31
ATOM     31  C   UNL     1       7.174   5.487  18.680  0.00  0.00    +0.000 C 
BRANCH  31  32
ATOM     32  O   UNL     1       7.278   5.405  20.099  0.00  0.00    +0.000 OA
ATOM     33  H   UNL     1       8.228   5.311  20.333  0.00  0.00    +0.000 HD
ENDBRANCH  31  32
ENDBRANCH  20  31
ENDBRANCH   1  20
TORSDOF 8
ENDMDL
MODEL 2
REMARK VINA RESULT:      -8.7      5.833      9.214
REMARK  Name = 
REMARK  8 active torsions:
REMARK  status: ('A' for Active; 'I' for Inactive)
REMARK    1  A    between atoms: C_2  and  C_25
REMARK    2  A    between atoms: N_3  and  CA_4
REMARK    3  A    between atoms: CA_4  and  C_5
REMARK    4  A    between atoms: CA_4  and  C_7
REMARK    5  A    between atoms: C_5  and  O_6
REMARK    6  A    between atoms: C_10  and  N_11
REMARK    7  A    between atoms: C_12  and  C_14
REMARK    8  A    between atoms: C_16  and  C_17
REMARK                            x       y       z     vdW  Elec       q    Type
REMARK                         _______ _______ _______ _____ _____    ______ ____
ROOT
ATOM      1  C   UNL     1       6.944   5.780  17.551  0.00  0.00    +0.000 A 
ATOM      2  C   UNL     1       6.799   6.995  16.871  0.00  0.00    +0.000 A 
ATOM      3  C   UNL     1       7.456   8.149  17.309  0.00  0.00    +0.000 A 
ATOM      4  C   UNL     1       8.281   8.123  18.430  0.00  0.00    +0.000 A 
ATOM      5  C   UNL     1       8.433   6.914  19.119  0.00  0.00    +0.000 A 
ATOM      6  C   UNL     1       7.759   5.760  18.695  0.00  0.00    +0.000 A 
ENDROOT
BRANCH   4   7
ATOM      7  N   UNL     1       8.973   9.254  18.917  0.00  0.00    +0.000 N 
ATOM      8  C   UNL     1       8.876  10.547  18.437  0.00  0.00    +0.000 C 
ATOM      9  O   UNL     1       8.159  10.949  17.532  0.00  0.00    +0.000 OA
ATOM     10  H   UNL     1       9.588   9.101  19.708  0.00  0.00    +0.000 HD
BRANCH   8  11
ATOM     11  C   UNL     1       9.741  11.522  19.161  0.00  0.00    +0.000 C 
ATOM     12  C   UNL     1      11.141  11.149  19.583  0.00  0.00    +0.000 C 
ATOM     13  C   UNL     1      10.946  12.109  18.437  0.00  0.00    +0.000 C 
BRANCH  13  14
ATOM     14  C   UNL     1      11.171  13.593  18.566  0.00  0.00    +0.000 A 
ATOM     15  C   UNL     1      11.887  14.179  19.616  0.00  0.00    +0.000 A 
ATOM     16  C   UNL     1      12.019  15.564  19.701  0.00  0.00    +0.000 A 
ATOM     17  C   UNL     1      11.438  16.339  18.714  0.00  0.00    +0.000 A 
ATOM     18  N   UNL     1      10.756  15.829  17.669  0.00  0.00    +0.000 NA
ATOM     19  C   UNL     1      10.651  14.481  17.620  0.00  0.00    +0.000 A 
ENDBRANCH  13  14
ENDBRANCH   8  11
ENDBRANCH   4   7
BRANCH   1  20
ATOM     20  CA  UNL     1       6.160   4.566  17.059  0.00  0.00    +0.000 C 
BRANCH  20  23
ATOM     21  O   UNL     1       5.472   3.163  19.457  0.00  0.00    +0.000 OA
ATOM     22  C   UNL     1       4.615   3.808  18.873  0.00  0.00    +0.000 C 
ATOM     23  N   UNL     1       4.848   4.504  17.708  0.00  0.00    +0.000 N 
ATOM     24  H   UNL     1       4.228   5.283  17.536  0.00  0.00    +0.000 HD
BRANCH  22  25
ATOM     25  C   UNL     1       3.226   3.886  19.400  0.00  0.00    +0.000 A 
ATOM     26  C   UNL     1       2.811   5.045  20.064  0.00  0.00    +0.000 A 
ATOM     27  C   UNL     1       1.517   5.124  20.583  0.00  0.00    +0.000 A 
ATOM     28  C   UNL     1       0.642   4.044  20.449  0.00  0.00    +0.000 A 
ATOM     29  C   UNL     1       1.059   2.881  19.803  0.00  0.00    +0.000 A 
ATOM     30  C   UNL     1       2.350   2.798  19.283  0.00  0.00    +0.000 A 
ENDBRANCH  22  25
ENDBRANCH  20  23
BRANCH  20  31
ATOM     31  C   UNL     1       6.086   4.609  15.509  0.00  0.00    +0.000 C 
BRANCH  31  32
ATOM     32  O   UNL     1       6.377   3.367  14.872  0.00  0.00    +0.000 OA
ATOM     33  H   UNL     1       5.654   2.736  15.086  0.00  0.00    +0.000 HD
ENDBRANCH  31  32
ENDBRANCH  20  31
ENDBRANCH   1  20
TORSDOF 8
ENDMDL
MODEL 3
REMARK VINA RESULT:      -8.5      1.039      1.374
REMARK  Name = 
REMARK  8 active torsions:
REMARK  status: ('A' for Active; 'I' for Inactive)
REMARK    1  A    between atoms: C_2  and  C_25
REMARK    2  A    between atoms: N_3  and  CA_4
REMARK    3  A    between atoms: CA_4  and  C_5
REMARK    4  A    between atoms: CA_4  and  C_7
REMARK    5  A    between atoms: C_5  and  O_6
REMARK    6  A    between atoms: C_10  and  N_11
REMARK    7  A    between atoms: C_12  and  C_14
REMARK    8  A    between atoms: C_16  and  C_17
REMARK                            x       y       z     vdW  Elec       q    Type
REMARK                         _______ _______ _______ _____ _____    ______ ____
ROOT
ATOM      1  C   UNL     1       4.580   5.916  18.426  0.00  0.00    +0.000 A 
ATOM      2  C   UNL     1       4.402   6.950  17.500  0.00  0.00    +0.000 A 
ATOM      3  C   UNL     1       3.319   7.829  17.600  0.00  0.00    +0.000 A 
ATOM      4  C   UNL     1       2.389   7.707  18.630  0.00  0.00    +0.000 A 
ATOM      5  C   UNL     1       2.556   6.676  19.561  0.00  0.00    +0.000 A 
ATOM      6  C   UNL     1       3.629   5.780  19.451  0.00  0.00    +0.000 A 
ENDROOT
BRANCH   4   7
ATOM      7  N   UNL     1       1.278   8.566  18.784  0.00  0.00    +0.000 N 
ATOM      8  C   UNL     1       0.834   9.133  19.963  0.00  0.00    +0.000 C 
ATOM      9  O   UNL     1       1.335   9.021  21.073  0.00  0.00    +0.000 OA
ATOM     10  H   UNL     1       0.767   8.798  17.940  0.00  0.00    +0.000 HD
BRANCH   8  11
ATOM     11  C   UNL     1      -0.374   9.991  19.799  0.00  0.00    +0.000 C 
ATOM     12  C   UNL     1      -0.273  11.494  19.892  0.00  0.00    +0.000 C 
ATOM     13  C   UNL     1      -0.495  10.851  18.547  0.00  0.00    +0.000 C 
BRANCH  13  14
ATOM     14  C   UNL     1      -1.829  10.862  17.846  0.00  0.00    +0.000 A 
ATOM     15  C   UNL     1      -2.090  10.146  16.671  0.00  0.00    +0.000 A 
ATOM     16  C   UNL     1      -3.333  10.236  16.047  0.00  0.00    +0.000 A 
ATOM     17  C   UNL     1      -4.302  11.035  16.626  0.00  0.00    +0.000 A 
ATOM     18  N   UNL     1      -4.113  11.728  17.767  0.00  0.00    +0.000 NA
ATOM     19  C   UNL     1      -2.895  11.615  18.345  0.00  0.00    +0.000 A 
ENDBRANCH  13  14
ENDBRANCH   8  11
ENDBRANCH   4   7
BRANCH   1  20
ATOM     20  CA  UNL     1       5.751   4.955  18.236  0.00  0.00    +0.000 C 
BRANCH  20  23
ATOM     21  O   UNL     1       4.979   3.061  16.233  0.00  0.00    +0.000 OA
ATOM     22  C   UNL     1       5.732   3.975  15.935  0.00  0.00    +0.000 C 
ATOM     23  N   UNL     1       6.168   4.925  16.831  0.00  0.00    +0.000 N 
ATOM     24  H   UNL     1       6.440   5.811  16.428  0.00  0.00    +0.000 HD
BRANCH  22  25
ATOM     25  C   UNL     1       6.239   4.125  14.544  0.00  0.00    +0.000 A 
ATOM     26  C   UNL     1       7.269   5.036  14.287  0.00  0.00    +0.000 A 
ATOM     27  C   UNL     1       7.740   5.201  12.982  0.00  0.00    +0.000 A 
ATOM     28  C   UNL     1       7.177   4.467  11.936  0.00  0.00    +0.000 A 
ATOM     29  C   UNL     1       6.139   3.572  12.187  0.00  0.00    +0.000 A 
ATOM     30  C   UNL     1       5.665   3.402  13.489  0.00  0.00    +0.000 A 
ENDBRANCH  22  25
ENDBRANCH  20  23
BRANCH  20  31
ATOM     31  C   UNL     1       6.889   5.347  19.215  0.00  0.00    +0.000 C 
BRANCH  31  32
ATOM     32  O   UNL     1       8.175   4.851  18.850  0.00  0.00    +0.000 OA
ATOM     33  H   UNL     1       8.189   3.883  19.017  0.00  0.00    +0.000 HD
ENDBRANCH  31  32
ENDBRANCH  20  31
ENDBRANCH   1  20
TORSDOF 8
ENDMDL
MODEL 4
REMARK VINA RESULT:      -8.4      1.826      9.872
REMARK  Name = 
REMARK  8 active torsions:
REMARK  status: ('A' for Active; 'I' for Inactive)
REMARK    1  A    between atoms: C_2  and  C_25
REMARK    2  A    between atoms: N_3  and  CA_4
REMARK    3  A    between atoms: CA_4  and  C_5
REMARK    4  A    between atoms: CA_4  and  C_7
REMARK    5  A    between atoms: C_5  and  O_6
REMARK    6  A    between atoms: C_10  and  N_11
REMARK    7  A    between atoms: C_12  and  C_14
REMARK    8  A    between atoms: C_16  and  C_17
REMARK                            x       y       z     vdW  Elec       q    Type
REMARK                         _______ _______ _______ _____ _____    ______ ____
ROOT
ATOM      1  C   UNL     1       1.236   8.927  19.770  0.00  0.00    +0.000 A 
ATOM      2  C   UNL     1       1.578   7.719  20.389  0.00  0.00    +0.000 A 
ATOM      3  C   UNL     1       2.380   6.777  19.736  0.00  0.00    +0.000 A 
ATOM      4  C   UNL     1       2.868   7.016  18.455  0.00  0.00    +0.000 A 
ATOM      5  C   UNL     1       2.531   8.219  17.825  0.00  0.00    +0.000 A 
ATOM      6  C   UNL     1       1.710   9.157  18.468  0.00  0.00    +0.000 A 
ENDROOT
BRANCH   4   7
ATOM      7  N   UNL     1       3.683   6.104  17.748  0.00  0.00    +0.000 N 
ATOM      8  C   UNL     1       4.818   5.476  18.223  0.00  0.00    +0.000 C 
ATOM      9  O   UNL     1       5.303   5.570  19.342  0.00  0.00    +0.000 OA
ATOM     10  H   UNL     1       3.394   5.880  16.802  0.00  0.00    +0.000 HD
BRANCH   8  11
ATOM     11  C   UNL     1       5.465   4.572  17.230  0.00  0.00    +0.000 C 
ATOM     12  C   UNL     1       4.794   3.290  16.799  0.00  0.00    +0.000 C 
ATOM     13  C   UNL     1       4.850   4.452  15.840  0.00  0.00    +0.000 C 
BRANCH  13  14
ATOM     14  C   UNL     1       5.791   4.499  14.665  0.00  0.00    +0.000 A 
ATOM     15  C   UNL     1       5.619   3.731  13.506  0.00  0.00    +0.000 A 
ATOM     16  C   UNL     1       6.553   3.787  12.473  0.00  0.00    +0.000 A 
ATOM     17  C   UNL     1       7.641   4.629  12.617  0.00  0.00    +0.000 A 
ATOM     18  N   UNL     1       7.845   5.407  13.699  0.00  0.00    +0.000 NA
ATOM     19  C   UNL     1       6.917   5.327  14.680  0.00  0.00    +0.000 A 
ENDBRANCH  13  14
ENDBRANCH   8  11
ENDBRANCH   4   7
BRANCH   1  20
ATOM     20  CA  UNL     1       0.314   9.894  20.509  0.00  0.00    +0.000 C 
BRANCH  20  23
ATOM     21  O   UNL     1      -0.312  12.251  19.011  0.00  0.00    +0.000 OA
ATOM     22  C   UNL     1      -1.103  11.320  19.022  0.00  0.00    +0.000 C 
ATOM     23  N   UNL     1      -0.895  10.154  19.723  0.00  0.00    +0.000 N 
ATOM     24  H   UNL     1      -1.378   9.341  19.367  0.00  0.00    +0.000 HD
BRANCH  22  25
ATOM     25  C   UNL     1      -2.376  11.391  18.256  0.00  0.00    +0.000 A 
ATOM     26  C   UNL     1      -3.536  11.840  18.898  0.00  0.00    +0.000 A 
ATOM     27  C   UNL     1      -4.742  11.892  18.197  0.00  0.00    +0.000 A 
ATOM     28  C   UNL     1      -4.795  11.487  16.862  0.00  0.00    +0.000 A 
ATOM     29  C   UNL     1      -3.645  11.022  16.225  0.00  0.00    +0.000 A 
ATOM     30  C   UNL     1      -2.437  10.970  16.921  0.00  0.00    +0.000 A 
ENDBRANCH  22  25
ENDBRANCH  20  23
BRANCH  20  31
ATOM     31  C   UNL     1       0.025   9.331  21.927  0.00  0.00    +0.000 C 
BRANCH  31  32
ATOM     32  O   UNL     1      -0.716  10.210  22.769  0.00  0.00    +0.000 OA
ATOM     33  H   UNL     1      -1.588   9.796  22.953  0.00  0.00    +0.000 HD
ENDBRANCH  31  32
ENDBRANCH  20  31
ENDBRANCH   1  20
TORSDOF 8
ENDMDL
MODEL 5
REMARK VINA RESULT:      -8.4      1.174      1.668
REMARK  Name = 
REMARK  8 active torsions:
REMARK  status: ('A' for Active; 'I' for Inactive)
REMARK    1  A    between atoms: C_2  and  C_25
REMARK    2  A    between atoms: N_3  and  CA_4
REMARK    3  A    between atoms: CA_4  and  C_5
REMARK    4  A    between atoms: CA_4  and  C_7
REMARK    5  A    between atoms: C_5  and  O_6
REMARK    6  A    between atoms: C_10  and  N_11
REMARK    7  A    between atoms: C_12  and  C_14
REMARK    8  A    between atoms: C_16  and  C_17
REMARK                            x       y       z     vdW  Elec       q    Type
REMARK                         _______ _______ _______ _____ _____    ______ ____
ROOT
ATOM      1  C   UNL     1       4.468   6.137  18.351  0.00  0.00    +0.000 A 
ATOM      2  C   UNL     1       4.148   7.168  17.461  0.00  0.00    +0.000 A 
ATOM      3  C   UNL     1       3.021   7.972  17.664  0.00  0.00    +0.000 A 
ATOM      4  C   UNL     1       2.189   7.775  18.762  0.00  0.00    +0.000 A 
ATOM      5  C   UNL     1       2.497   6.745  19.658  0.00  0.00    +0.000 A 
ATOM      6  C   UNL     1       3.614   5.924  19.446  0.00  0.00    +0.000 A 
ENDROOT
BRANCH   4   7
ATOM      7  N   UNL     1       1.040   8.556  19.020  0.00  0.00    +0.000 N 
ATOM      8  C   UNL     1       0.927   9.925  18.876  0.00  0.00    +0.000 C 
ATOM      9  O   UNL     1       1.783  10.701  18.475  0.00  0.00    +0.000 OA
ATOM     10  H   UNL     1       0.214   8.054  19.326  0.00  0.00    +0.000 HD
BRANCH   8  11
ATOM     11  C   UNL     1      -0.418  10.458  19.236  0.00  0.00    +0.000 C 
ATOM     12  C   UNL     1      -0.563  11.795  19.919  0.00  0.00    +0.000 C 
ATOM     13  C   UNL     1      -0.958  11.660  18.470  0.00  0.00    +0.000 C 
BRANCH  13  14
ATOM     14  C   UNL     1      -2.393  11.599  18.015  0.00  0.00    +0.000 A 
ATOM     15  C   UNL     1      -3.479  11.924  18.836  0.00  0.00    +0.000 A 
ATOM     16  C   UNL     1      -4.786  11.802  18.367  0.00  0.00    +0.000 A 
ATOM     17  C   UNL     1      -4.978  11.367  17.068  0.00  0.00    +0.000 A 
ATOM     18  N   UNL     1      -3.970  11.062  16.227  0.00  0.00    +0.000 NA
ATOM     19  C   UNL     1      -2.716  11.194  16.717  0.00  0.00    +0.000 A 
ENDBRANCH  13  14
ENDBRANCH   8  11
ENDBRANCH   4   7
BRANCH   1  20
ATOM     20  CA  UNL     1       5.680   5.258  18.050  0.00  0.00    +0.000 C 
BRANCH  20  23
ATOM     21  O   UNL     1       7.953   4.197  16.671  0.00  0.00    +0.000 OA
ATOM     22  C   UNL     1       6.975   4.553  16.031  0.00  0.00    +0.000 C 
ATOM     23  N   UNL     1       5.843   5.086  16.604  0.00  0.00    +0.000 N 
ATOM     24  H   UNL     1       4.992   4.977  16.069  0.00  0.00    +0.000 HD
BRANCH  22  25
ATOM     25  C   UNL     1       6.947   4.428  14.549  0.00  0.00    +0.000 A 
ATOM     26  C   UNL     1       7.769   5.257  13.777  0.00  0.00    +0.000 A 
ATOM     27  C   UNL     1       7.737   5.165  12.384  0.00  0.00    +0.000 A 
ATOM     28  C   UNL     1       6.879   4.255  11.762  0.00  0.00    +0.000 A 
ATOM     29  C   UNL     1       6.047   3.441  12.527  0.00  0.00    +0.000 A 
ATOM     30  C   UNL     1       6.075   3.528  13.920  0.00  0.00    +0.000 A 
ENDBRANCH  22  25
ENDBRANCH  20  23
BRANCH  20  31
ATOM     31  C   UNL     1       6.927   5.862  18.750  0.00  0.00    +0.000 C 
BRANCH  31  32
ATOM     32  O   UNL     1       7.256   5.250  19.994  0.00  0.00    +0.000 OA
ATOM     33  H   UNL     1       7.774   5.895  20.526  0.00  0.00    +0.000 HD
ENDBRANCH  31  32
ENDBRANCH  20  31
ENDBRANCH   1  20
TORSDOF 8
ENDMDL
MODEL 6
REMARK VINA RESULT:      -8.4      1.880     10.000
REMARK  Name = 
REMARK  8 active torsions:
REMARK  status: ('A' for Active; 'I' for Inactive)
REMARK    1  A    between atoms: C_2  and  C_25
REMARK    2  A    between atoms: N_3  and  CA_4
REMARK    3  A    between atoms: CA_4  and  C_5
REMARK    4  A    between atoms: CA_4  and  C_7
REMARK    5  A    between atoms: C_5  and  O_6
REMARK    6  A    between atoms: C_10  and  N_11
REMARK    7  A    between atoms: C_12  and  C_14
REMARK    8  A    between atoms: C_16  and  C_17
REMARK                            x       y       z     vdW  Elec       q    Type
REMARK                         _______ _______ _______ _____ _____    ______ ____
ROOT
ATOM      1  C   UNL     1       1.093   9.136  19.724  0.00  0.00    +0.000 A 
ATOM      2  C   UNL     1       1.489   7.984  20.414  0.00  0.00    +0.000 A 
ATOM      3  C   UNL     1       2.306   7.025  19.807  0.00  0.00    +0.000 A 
ATOM      4  C   UNL     1       2.757   7.191  18.501  0.00  0.00    +0.000 A 
ATOM      5  C   UNL     1       2.366   8.337  17.799  0.00  0.00    +0.000 A 
ATOM      6  C   UNL     1       1.530   9.290  18.397  0.00  0.00    +0.000 A 
ENDROOT
BRANCH   4   7
ATOM      7  N   UNL     1       3.585   6.258  17.837  0.00  0.00    +0.000 N 
ATOM      8  C   UNL     1       4.590   5.500  18.406  0.00  0.00    +0.000 C 
ATOM      9  O   UNL     1       4.923   5.474  19.583  0.00  0.00    +0.000 OA
ATOM     10  H   UNL     1       3.411   6.125  16.847  0.00  0.00    +0.000 HD
BRANCH   8  11
ATOM     11  C   UNL     1       5.292   4.609  17.438  0.00  0.00    +0.000 C 
ATOM     12  C   UNL     1       4.674   3.303  17.001  0.00  0.00    +0.000 C 
ATOM     13  C   UNL     1       4.718   4.459  16.034  0.00  0.00    +0.000 C 
BRANCH  13  14
ATOM     14  C   UNL     1       5.688   4.527  14.883  0.00  0.00    +0.000 A 
ATOM     15  C   UNL     1       5.525   3.810  13.692  0.00  0.00    +0.000 A 
ATOM     16  C   UNL     1       6.485   3.882  12.683  0.00  0.00    +0.000 A 
ATOM     17  C   UNL     1       7.589   4.689  12.885  0.00  0.00    +0.000 A 
ATOM     18  N   UNL     1       7.786   5.418  14.002  0.00  0.00    +0.000 NA
ATOM     19  C   UNL     1       6.833   5.324  14.958  0.00  0.00    +0.000 A 
ENDBRANCH  13  14
ENDBRANCH   8  11
ENDBRANCH   4   7
BRANCH   1  20
ATOM     20  CA  UNL     1       0.157  10.122  20.419  0.00  0.00    +0.000 C 
BRANCH  20  23
ATOM     21  O   UNL     1      -1.297  12.567  20.098  0.00  0.00    +0.000 OA
ATOM     22  C   UNL     1      -1.673  11.563  19.510  0.00  0.00    +0.000 C 
ATOM     23  N   UNL     1      -1.047  10.342  19.612  0.00  0.00    +0.000 N 
ATOM     24  H   UNL     1      -1.177   9.719  18.828  0.00  0.00    +0.000 HD
BRANCH  22  25
ATOM     25  C   UNL     1      -2.865  11.601  18.621  0.00  0.00    +0.000 A 
ATOM     26  C   UNL     1      -2.733  11.209  17.285  0.00  0.00    +0.000 A 
ATOM     27  C   UNL     1      -3.839  11.260  16.433  0.00  0.00    +0.000 A 
ATOM     28  C   UNL     1      -5.071  11.710  16.911  0.00  0.00    +0.000 A 
ATOM     29  C   UNL     1      -5.201  12.118  18.238  0.00  0.00    +0.000 A 
ATOM     30  C   UNL     1      -4.100  12.069  19.093  0.00  0.00    +0.000 A 
ENDBRANCH  22  25
ENDBRANCH  20  23
BRANCH  20  31
ATOM     31  C   UNL     1      -0.139   9.610  21.854  0.00  0.00    +0.000 C 
BRANCH  31  32
ATOM     32  O   UNL     1       0.492  10.362  22.887  0.00  0.00    +0.000 OA
ATOM     33  H   UNL     1       1.450  10.426  22.679  0.00  0.00    +0.000 HD
ENDBRANCH  31  32
ENDBRANCH  20  31
ENDBRANCH   1  20
TORSDOF 8
ENDMDL
MODEL 7
REMARK VINA RESULT:      -8.3      5.744      8.980
REMARK  Name = 
REMARK  8 active torsions:
REMARK  status: ('A' for Active; 'I' for Inactive)
REMARK    1  A    between atoms: C_2  and  C_25
REMARK    2  A    between atoms: N_3  and  CA_4
REMARK    3  A    between atoms: CA_4  and  C_5
REMARK    4  A    between atoms: CA_4  and  C_7
REMARK    5  A    between atoms: C_5  and  O_6
REMARK    6  A    between atoms: C_10  and  N_11
REMARK    7  A    between atoms: C_12  and  C_14
REMARK    8  A    between atoms: C_16  and  C_17
REMARK                            x       y       z     vdW  Elec       q    Type
REMARK                         _______ _______ _______ _____ _____    ______ ____
ROOT
ATOM      1  C   UNL     1       6.869   5.617  17.493  0.00  0.00    +0.000 A 
ATOM      2  C   UNL     1       6.801   6.835  16.807  0.00  0.00    +0.000 A 
ATOM      3  C   UNL     1       7.474   7.967  17.280  0.00  0.00    +0.000 A 
ATOM      4  C   UNL     1       8.238   7.913  18.442  0.00  0.00    +0.000 A 
ATOM      5  C   UNL     1       8.312   6.701  19.138  0.00  0.00    +0.000 A 
ATOM      6  C   UNL     1       7.622   5.570  18.678  0.00  0.00    +0.000 A 
ENDROOT
BRANCH   4   7
ATOM      7  N   UNL     1       8.941   9.021  18.966  0.00  0.00    +0.000 N 
ATOM      8  C   UNL     1       8.848  10.331  18.537  0.00  0.00    +0.000 C 
ATOM      9  O   UNL     1       8.125  10.772  17.654  0.00  0.00    +0.000 OA
ATOM     10  H   UNL     1       9.563   8.834  19.744  0.00  0.00    +0.000 HD
BRANCH   8  11
ATOM     11  C   UNL     1       9.726  11.273  19.289  0.00  0.00    +0.000 C 
ATOM     12  C   UNL     1      11.225  11.230  19.125  0.00  0.00    +0.000 C 
ATOM     13  C   UNL     1      10.449  12.372  18.520  0.00  0.00    +0.000 C 
BRANCH  13  14
ATOM     14  C   UNL     1      10.430  13.756  19.116  0.00  0.00    +0.000 A 
ATOM     15  C   UNL     1      10.014  14.894  18.415  0.00  0.00    +0.000 A 
ATOM     16  C   UNL     1      10.065  16.153  19.011  0.00  0.00    +0.000 A 
ATOM     17  C   UNL     1      10.522  16.244  20.313  0.00  0.00    +0.000 A 
ATOM     18  N   UNL     1      10.913  15.180  21.043  0.00  0.00    +0.000 NA
ATOM     19  C   UNL     1      10.848  13.975  20.431  0.00  0.00    +0.000 A 
ENDBRANCH  13  14
ENDBRANCH   8  11
ENDBRANCH   4   7
BRANCH   1  20
ATOM     20  CA  UNL     1       6.071   4.429  16.960  0.00  0.00    +0.000 C 
BRANCH  20  23
ATOM     21  O   UNL     1       5.457   3.034  19.382  0.00  0.00    +0.000 OA
ATOM     22  C   UNL     1       4.575   3.652  18.806  0.00  0.00    +0.000 C 
ATOM     23  N   UNL     1       4.771   4.341  17.631  0.00  0.00    +0.000 N 
ATOM     24  H   UNL     1       4.130   5.103  17.461  0.00  0.00    +0.000 HD
BRANCH  22  25
ATOM     25  C   UNL     1       3.193   3.700  19.355  0.00  0.00    +0.000 A 
ATOM     26  C   UNL     1       2.266   2.730  18.958  0.00  0.00    +0.000 A 
ATOM     27  C   UNL     1       0.959   2.776  19.449  0.00  0.00    +0.000 A 
ATOM     28  C   UNL     1       0.576   3.792  20.326  0.00  0.00    +0.000 A 
ATOM     29  C   UNL     1       1.493   4.769  20.710  0.00  0.00    +0.000 A 
ATOM     30  C   UNL     1       2.799   4.728  20.223  0.00  0.00    +0.000 A 
ENDBRANCH  22  25
ENDBRANCH  20  23
BRANCH  20  31
ATOM     31  C   UNL     1       5.968   4.545  15.415  0.00  0.00    +0.000 C 
BRANCH  31  32
ATOM     32  O   UNL     1       6.424   3.395  14.708  0.00  0.00    +0.000 OA
ATOM     33  H   UNL     1       5.922   3.334  13.864  0.00  0.00    +0.000 HD
ENDBRANCH  31  32
ENDBRANCH  20  31
ENDBRANCH   1  20
TORSDOF 8
ENDMDL
MODEL 8
REMARK VINA RESULT:      -8.3      1.380      1.985
REMARK  Name = 
REMARK  8 active torsions:
REMARK  status: ('A' for Active; 'I' for Inactive)
REMARK    1  A    between atoms: C_2  and  C_25
REMARK    2  A    between atoms: N_3  and  CA_4
REMARK    3  A    between atoms: CA_4  and  C_5
REMARK    4  A    between atoms: CA_4  and  C_7
REMARK    5  A    between atoms: C_5  and  O_6
REMARK    6  A    between atoms: C_10  and  N_11
REMARK    7  A    between atoms: C_12  and  C_14
REMARK    8  A    between atoms: C_16  and  C_17
REMARK                            x       y       z     vdW  Elec       q    Type
REMARK                         _______ _______ _______ _____ _____    ______ ____
ROOT
ATOM      1  C   UNL     1       5.036   5.856  18.390  0.00  0.00    +0.000 A 
ATOM      2  C   UNL     1       4.715   6.883  17.495  0.00  0.00    +0.000 A 
ATOM      3  C   UNL     1       3.541   7.628  17.644  0.00  0.00    +0.000 A 
ATOM      4  C   UNL     1       2.659   7.376  18.692  0.00  0.00    +0.000 A 
ATOM      5  C   UNL     1       2.968   6.349  19.592  0.00  0.00    +0.000 A 
ATOM      6  C   UNL     1       4.134   5.586  19.433  0.00  0.00    +0.000 A 
ENDROOT
BRANCH   4   7
ATOM      7  N   UNL     1       1.461   8.096  18.895  0.00  0.00    +0.000 N 
ATOM      8  C   UNL     1       1.223   9.411  18.545  0.00  0.00    +0.000 C 
ATOM      9  O   UNL     1       1.988  10.176  17.974  0.00  0.00    +0.000 OA
ATOM     10  H   UNL     1       0.698   7.588  19.326  0.00  0.00    +0.000 HD
BRANCH   8  11
ATOM     11  C   UNL     1      -0.144   9.888  18.899  0.00  0.00    +0.000 C 
ATOM     12  C   UNL     1      -0.337  11.068  19.820  0.00  0.00    +0.000 C 
ATOM     13  C   UNL     1      -0.617  11.228  18.347  0.00  0.00    +0.000 C 
BRANCH  13  14
ATOM     14  C   UNL     1      -2.012  11.286  17.781  0.00  0.00    +0.000 A 
ATOM     15  C   UNL     1      -3.137  11.646  18.532  0.00  0.00    +0.000 A 
ATOM     16  C   UNL     1      -4.408  11.634  17.958  0.00  0.00    +0.000 A 
ATOM     17  C   UNL     1      -4.523  11.274  16.628  0.00  0.00    +0.000 A 
ATOM     18  N   UNL     1      -3.473  10.941  15.852  0.00  0.00    +0.000 NA
ATOM     19  C   UNL     1      -2.256  10.965  16.443  0.00  0.00    +0.000 A 
ENDBRANCH  13  14
ENDBRANCH   8  11
ENDBRANCH   4   7
BRANCH   1  20
ATOM     20  CA  UNL     1       6.304   5.041  18.147  0.00  0.00    +0.000 C 
BRANCH  20  23
ATOM     21  O   UNL     1       5.129   3.358  16.151  0.00  0.00    +0.000 OA
ATOM     22  C   UNL     1       5.992   4.161  15.827  0.00  0.00    +0.000 C 
ATOM     23  N   UNL     1       6.622   5.001  16.717  0.00  0.00    +0.000 N 
ATOM     24  H   UNL     1       6.999   5.850  16.320  0.00  0.00    +0.000 HD
BRANCH  22  25
ATOM     25  C   UNL     1       6.427   4.283  14.410  0.00  0.00    +0.000 A 
ATOM     26  C   UNL     1       5.858   3.444  13.445  0.00  0.00    +0.000 A 
ATOM     27  C   UNL     1       6.272   3.534  12.115  0.00  0.00    +0.000 A 
ATOM     28  C   UNL     1       7.258   4.452  11.749  0.00  0.00    +0.000 A 
ATOM     29  C   UNL     1       7.840   5.277  12.710  0.00  0.00    +0.000 A 
ATOM     30  C   UNL     1       7.429   5.191  14.041  0.00  0.00    +0.000 A 
ENDBRANCH  22  25
ENDBRANCH  20  23
BRANCH  20  31
ATOM     31  C   UNL     1       7.448   5.616  19.023  0.00  0.00    +0.000 C 
BRANCH  31  32
ATOM     32  O   UNL     1       7.976   6.857  18.560  0.00  0.00    +0.000 OA
ATOM     33  H   UNL     1       7.227   7.479  18.427  0.00  0.00    +0.000 HD
ENDBRANCH  31  32
ENDBRANCH  20  31
ENDBRANCH   1  20
TORSDOF 8
ENDMDL
MODEL 9
REMARK VINA RESULT:      -8.3      5.537      8.733
REMARK  Name = 
REMARK  8 active torsions:
REMARK  status: ('A' for Active; 'I' for Inactive)
REMARK    1  A    between atoms: C_2  and  C_25
REMARK    2  A    between atoms: N_3  and  CA_4
REMARK    3  A    between atoms: CA_4  and  C_5
REMARK    4  A    between atoms: CA_4  and  C_7
REMARK    5  A    between atoms: C_5  and  O_6
REMARK    6  A    between atoms: C_10  and  N_11
REMARK    7  A    between atoms: C_12  and  C_14
REMARK    8  A    between atoms: C_16  and  C_17
REMARK                            x       y       z     vdW  Elec       q    Type
REMARK                         _______ _______ _______ _____ _____    ______ ____
ROOT
ATOM      1  C   UNL     1       6.647   5.540  17.289  0.00  0.00    +0.000 A 
ATOM      2  C   UNL     1       7.431   5.357  18.435  0.00  0.00    +0.000 A 
ATOM      3  C   UNL     1       8.162   6.415  18.984  0.00  0.00    +0.000 A 
ATOM      4  C   UNL     1       8.128   7.684  18.412  0.00  0.00    +0.000 A 
ATOM      5  C   UNL     1       7.350   7.879  17.265  0.00  0.00    +0.000 A 
ATOM      6  C   UNL     1       6.632   6.815  16.699  0.00  0.00    +0.000 A 
ENDROOT
BRANCH   4   7
ATOM      7  N   UNL     1       8.843   8.790  18.923  0.00  0.00    +0.000 N 
ATOM      8  C   UNL     1       8.714  10.107  18.526  0.00  0.00    +0.000 C 
ATOM      9  O   UNL     1       7.945  10.556  17.688  0.00  0.00    +0.000 OA
ATOM     10  H   UNL     1       9.504   8.595  19.666  0.00  0.00    +0.000 HD
BRANCH   8  11
ATOM     11  C   UNL     1       9.617  11.044  19.253  0.00  0.00    +0.000 C 
ATOM     12  C   UNL     1      11.084  11.126  18.912  0.00  0.00    +0.000 C 
ATOM     13  C   UNL     1      10.169  12.254  18.509  0.00  0.00    +0.000 C 
BRANCH  13  14
ATOM     14  C   UNL     1      10.137  13.578  19.228  0.00  0.00    +0.000 A 
ATOM     15  C   UNL     1      11.081  13.960  20.188  0.00  0.00    +0.000 A 
ATOM     16  C   UNL     1      10.967  15.181  20.850  0.00  0.00    +0.000 A 
ATOM     17  C   UNL     1       9.908  16.008  20.522  0.00  0.00    +0.000 A 
ATOM     18  N   UNL     1       8.983  15.702  19.591  0.00  0.00    +0.000 NA
ATOM     19  C   UNL     1       9.128  14.509  18.969  0.00  0.00    +0.000 A 
ENDBRANCH  13  14
ENDBRANCH   8  11
ENDBRANCH   4   7
BRANCH   1  20
ATOM     20  CA  UNL     1       5.912   4.337  16.703  0.00  0.00    +0.000 C 
BRANCH  20  23
ATOM     21  O   UNL     1       5.457   3.184  19.283  0.00  0.00    +0.000 OA
ATOM     22  C   UNL     1       4.506   3.586  18.630  0.00  0.00    +0.000 C 
ATOM     23  N   UNL     1       4.625   4.143  17.377  0.00  0.00    +0.000 N 
ATOM     24  H   UNL     1       3.883   4.774  17.108  0.00  0.00    +0.000 HD
BRANCH  22  25
ATOM     25  C   UNL     1       3.121   3.499  19.165  0.00  0.00    +0.000 A 
ATOM     26  C   UNL     1       2.872   3.894  20.483  0.00  0.00    +0.000 A 
ATOM     27  C   UNL     1       1.580   3.797  21.005  0.00  0.00    +0.000 A 
ATOM     28  C   UNL     1       0.542   3.298  20.217  0.00  0.00    +0.000 A 
ATOM     29  C   UNL     1       0.791   2.887  18.908  0.00  0.00    +0.000 A 
ATOM     30  C   UNL     1       2.079   2.982  18.382  0.00  0.00    +0.000 A 
ENDBRANCH  22  25
ENDBRANCH  20  23
BRANCH  20  31
ATOM     31  C   UNL     1       5.789   4.521  15.167  0.00  0.00    +0.000 C 
BRANCH  31  32
ATOM     32  O   UNL     1       6.533   3.576  14.400  0.00  0.00    +0.000 OA
ATOM     33  H   UNL     1       7.204   4.067  13.877  0.00  0.00    +0.000 HD
ENDBRANCH  31  32
ENDBRANCH  20  31
ENDBRANCH   1  20
TORSDOF 8
ENDMDL
