MODEL 1
REMARK VINA RESULT:      -8.0      0.000      0.000
REMARK  Name = 
REMARK  3 active torsions:
REMARK  status: ('A' for Active; 'I' for Inactive)
REMARK    1  A    between atoms: C_4  and  S_5
REMARK    2  A    between atoms: S_5  and  C_6
REMARK    3  A    between atoms: C_9  and  C_10
REMARK                            x       y       z     vdW  Elec       q    Type
REMARK                         _______ _______ _______ _____ _____    ______ ____
ROOT
ATOM      1  C   UNL     1       0.899  10.123  19.042  0.00  0.00    +0.000 A 
ATOM      2  C   UNL     1       0.841   9.410  20.244  0.00  0.00    +0.000 A 
ATOM      3  C   UNL     1       1.484   8.176  20.367  0.00  0.00    +0.000 A 
ATOM      4  C   UNL     1       2.176   7.634  19.278  0.00  0.00    +0.000 A 
ATOM      5  C   UNL     1       2.218   8.334  18.067  0.00  0.00    +0.000 A 
ATOM      6  C   UNL     1       1.580   9.574  17.950  0.00  0.00    +0.000 A 
ENDROOT
BRANCH   4   7
ATOM      7  C   UNL     1       2.850   6.320  19.402  0.00  0.00    +0.000 A 
ATOM      8  N   UNL     1       2.265   5.330  20.195  0.00  0.00    +0.000 NA
ATOM      9  C   UNL     1       3.084   4.333  20.074  0.00  0.00    +0.000 A 
ATOM     10  C   UNL     1       3.044   2.977  20.648  0.00  0.00    +0.000 A 
ATOM     11  C   UNL     1       4.072   2.179  20.313  0.00  0.00    +0.000 A 
ATOM     12  N   UNL     1       5.109   2.575  19.495  0.00  0.00    +0.000 N 
ATOM     13  C   UNL     1       5.152   3.840  18.946  0.00  0.00    +0.000 A 
ATOM     14  C   UNL     1       4.190   4.732  19.197  0.00  0.00    +0.000 A 
ATOM     15  N   UNL     1       3.974   6.018  18.803  0.00  0.00    +0.000 NA
ATOM     16  H   UNL     1       5.853   1.920  19.278  0.00  0.00    +0.000 HD
ENDBRANCH   4   7
BRANCH   1  17
ATOM     17  S   UNL     1       0.054  11.681  18.905  0.00  0.00    +0.000 S 
BRANCH  17  21
ATOM     18  C   UNL     1      -4.287  10.692  17.761  0.00  0.00    +0.000 A 
ATOM     19  C   UNL     1      -3.990  11.712  18.660  0.00  0.00    +0.000 A 
ATOM     20  C   UNL     1      -2.661  11.983  18.994  0.00  0.00    +0.000 A 
ATOM     21  C   UNL     1      -1.613  11.234  18.443  0.00  0.00    +0.000 A 
ATOM     22  C   UNL     1      -1.924  10.220  17.528  0.00  0.00    +0.000 A 
ATOM     23  C   UNL     1      -3.255   9.949  17.192  0.00  0.00    +0.000 A 
ENDBRANCH  17  21
ENDBRANCH   1  17
TORSDOF 3
ENDMDL
MODEL 2
REMARK VINA RESULT:      -8.0      0.095      1.457
REMARK  Name = 
REMARK  3 active torsions:
REMARK  status: ('A' for Active; 'I' for Inactive)
REMARK    1  A    between atoms: C_4  and  S_5
REMARK    2  A    between atoms: S_5  and  C_6
REMARK    3  A    between atoms: C_9  and  C_10
REMARK                            x       y       z     vdW  Elec       q    Type
REMARK                         _______ _______ _______ _____ _____    ______ ____
ROOT
ATOM      1  C   UNL     1       0.861  10.153  19.128  0.00  0.00    +0.000 A 
ATOM      2  C   UNL     1       1.587   9.644  18.046  0.00  0.00    +0.000 A 
ATOM      3  C   UNL     1       2.218   8.402  18.140  0.00  0.00    +0.000 A 
ATOM      4  C   UNL     1       2.144   7.665  19.327  0.00  0.00    +0.000 A 
ATOM      5  C   UNL     1       1.437   8.180  20.419  0.00  0.00    +0.000 A 
ATOM      6  C   UNL     1       0.799   9.422  20.319  0.00  0.00    +0.000 A 
ENDROOT
BRANCH   4   7
ATOM      7  C   UNL     1       2.821   6.351  19.432  0.00  0.00    +0.000 A 
ATOM      8  N   UNL     1       2.241   5.349  20.215  0.00  0.00    +0.000 NA
ATOM      9  C   UNL     1       3.062   4.356  20.079  0.00  0.00    +0.000 A 
ATOM     10  C   UNL     1       3.027   2.992  20.636  0.00  0.00    +0.000 A 
ATOM     11  C   UNL     1       4.057   2.202  20.288  0.00  0.00    +0.000 A 
ATOM     12  N   UNL     1       5.090   2.610  19.471  0.00  0.00    +0.000 N 
ATOM     13  C   UNL     1       5.128   3.882  18.939  0.00  0.00    +0.000 A 
ATOM     14  C   UNL     1       4.165   4.768  19.204  0.00  0.00    +0.000 A 
ATOM     15  N   UNL     1       3.945   6.059  18.826  0.00  0.00    +0.000 NA
ATOM     16  H   UNL     1       5.835   1.960  19.244  0.00  0.00    +0.000 HD
ENDBRANCH   4   7
BRANCH   1  17
ATOM     17  S   UNL     1       0.085  11.747  18.991  0.00  0.00    +0.000 S 
BRANCH  17  21
ATOM     18  C   UNL     1      -4.194  10.620  17.743  0.00  0.00    +0.000 A 
ATOM     19  C   UNL     1      -3.091   9.919  17.263  0.00  0.00    +0.000 A 
ATOM     20  C   UNL     1      -1.803  10.291  17.654  0.00  0.00    +0.000 A 
ATOM     21  C   UNL     1      -1.598  11.373  18.521  0.00  0.00    +0.000 A 
ATOM     22  C   UNL     1      -2.716  12.061  19.008  0.00  0.00    +0.000 A 
ATOM     23  C   UNL     1      -4.007  11.688  18.618  0.00  0.00    +0.000 A 
ENDBRANCH  17  21
ENDBRANCH   1  17
TORSDOF 3
ENDMDL
MODEL 3
REMARK VINA RESULT:      -8.0      0.311      1.060
REMARK  Name = 
REMARK  3 active torsions:
REMARK  status: ('A' for Active; 'I' for Inactive)
REMARK    1  A    between atoms: C_4  and  S_5
REMARK    2  A    between atoms: S_5  and  C_6
REMARK    3  A    between atoms: C_9  and  C_10
REMARK                            x       y       z     vdW  Elec       q    Type
REMARK                         _______ _______ _______ _____ _____    ______ ____
ROOT
ATOM      1  C   UNL     1       0.748  10.152  19.485  0.00  0.00    +0.000 A 
ATOM      2  C   UNL     1       0.703   9.350  20.630  0.00  0.00    +0.000 A 
ATOM      3  C   UNL     1       1.361   8.119  20.657  0.00  0.00    +0.000 A 
ATOM      4  C   UNL     1       2.056   7.669  19.529  0.00  0.00    +0.000 A 
ATOM      5  C   UNL     1       2.086   8.459  18.374  0.00  0.00    +0.000 A 
ATOM      6  C   UNL     1       1.432   9.697  18.353  0.00  0.00    +0.000 A 
ENDROOT
BRANCH   4   7
ATOM      7  C   UNL     1       2.746   6.358  19.551  0.00  0.00    +0.000 A 
ATOM      8  N   UNL     1       2.197   5.315  20.300  0.00  0.00    +0.000 NA
ATOM      9  C   UNL     1       3.021   4.337  20.092  0.00  0.00    +0.000 A 
ATOM     10  C   UNL     1       3.013   2.948  20.583  0.00  0.00    +0.000 A 
ATOM     11  C   UNL     1       4.038   2.184  20.168  0.00  0.00    +0.000 A 
ATOM     12  N   UNL     1       5.043   2.641  19.343  0.00  0.00    +0.000 N 
ATOM     13  C   UNL     1       5.056   3.937  18.872  0.00  0.00    +0.000 A 
ATOM     14  C   UNL     1       4.095   4.801  19.207  0.00  0.00    +0.000 A 
ATOM     15  N   UNL     1       3.853   6.106  18.899  0.00  0.00    +0.000 NA
ATOM     16  H   UNL     1       5.786   2.009  19.063  0.00  0.00    +0.000 HD
ENDBRANCH   4   7
BRANCH   1  17
ATOM     17  S   UNL     1      -0.116  11.707  19.469  0.00  0.00    +0.000 S 
BRANCH  17  21
ATOM     18  C   UNL     1      -4.196  10.505  17.723  0.00  0.00    +0.000 A 
ATOM     19  C   UNL     1      -3.054   9.748  17.480  0.00  0.00    +0.000 A 
ATOM     20  C   UNL     1      -1.826  10.144  18.017  0.00  0.00    +0.000 A 
ATOM     21  C   UNL     1      -1.722  11.305  18.796  0.00  0.00    +0.000 A 
ATOM     22  C   UNL     1      -2.882  12.049  19.045  0.00  0.00    +0.000 A 
ATOM     23  C   UNL     1      -4.112  11.653  18.508  0.00  0.00    +0.000 A 
ENDBRANCH  17  21
ENDBRANCH   1  17
TORSDOF 3
ENDMDL
MODEL 4
REMARK VINA RESULT:      -7.9      0.230      1.056
REMARK  Name = 
REMARK  3 active torsions:
REMARK  status: ('A' for Active; 'I' for Inactive)
REMARK    1  A    between atoms: C_4  and  S_5
REMARK    2  A    between atoms: S_5  and  C_6
REMARK    3  A    between atoms: C_9  and  C_10
REMARK                            x       y       z     vdW  Elec       q    Type
REMARK                         _______ _______ _______ _____ _____    ______ ____
ROOT
ATOM      1  C   UNL     1       0.715  10.103  19.352  0.00  0.00    +0.000 A 
ATOM      2  C   UNL     1       1.392   9.603  18.234  0.00  0.00    +0.000 A 
ATOM      3  C   UNL     1       2.051   8.374  18.298  0.00  0.00    +0.000 A 
ATOM      4  C   UNL     1       2.055   7.641  19.490  0.00  0.00    +0.000 A 
ATOM      5  C   UNL     1       1.397   8.146  20.616  0.00  0.00    +0.000 A 
ATOM      6  C   UNL     1       0.731   9.376  20.546  0.00  0.00    +0.000 A 
ENDROOT
BRANCH   4   7
ATOM      7  C   UNL     1       2.763   6.341  19.563  0.00  0.00    +0.000 A 
ATOM      8  N   UNL     1       2.208   5.308  20.324  0.00  0.00    +0.000 NA
ATOM      9  C   UNL     1       3.051   4.338  20.163  0.00  0.00    +0.000 A 
ATOM     10  C   UNL     1       3.049   2.961  20.688  0.00  0.00    +0.000 A 
ATOM     11  C   UNL     1       4.095   2.202  20.320  0.00  0.00    +0.000 A 
ATOM     12  N   UNL     1       5.116   2.653  19.510  0.00  0.00    +0.000 N 
ATOM     13  C   UNL     1       5.123   3.937  19.007  0.00  0.00    +0.000 A 
ATOM     14  C   UNL     1       4.142   4.795  19.295  0.00  0.00    +0.000 A 
ATOM     15  N   UNL     1       3.890   6.088  18.948  0.00  0.00    +0.000 NA
ATOM     16  H   UNL     1       5.875   2.025  19.266  0.00  0.00    +0.000 HD
ENDBRANCH   4   7
BRANCH   1  17
ATOM     17  S   UNL     1      -0.098  11.681  19.251  0.00  0.00    +0.000 S 
BRANCH  17  21
ATOM     18  C   UNL     1      -4.390  10.827  17.842  0.00  0.00    +0.000 A 
ATOM     19  C   UNL     1      -4.118  11.835  18.762  0.00  0.00    +0.000 A 
ATOM     20  C   UNL     1      -2.804  12.065  19.178  0.00  0.00    +0.000 A 
ATOM     21  C   UNL     1      -1.748  11.286  18.687  0.00  0.00    +0.000 A 
ATOM     22  C   UNL     1      -2.033  10.284  17.751  0.00  0.00    +0.000 A 
ATOM     23  C   UNL     1      -3.349  10.054  17.333  0.00  0.00    +0.000 A 
ENDBRANCH  17  21
ENDBRANCH   1  17
TORSDOF 3
ENDMDL
MODEL 5
REMARK VINA RESULT:      -7.9      1.152      1.856
REMARK  Name = 
REMARK  3 active torsions:
REMARK  status: ('A' for Active; 'I' for Inactive)
REMARK    1  A    between atoms: C_4  and  S_5
REMARK    2  A    between atoms: S_5  and  C_6
REMARK    3  A    between atoms: C_9  and  C_10
REMARK                            x       y       z     vdW  Elec       q    Type
REMARK                         _______ _______ _______ _____ _____    ______ ____
ROOT
ATOM      1  C   UNL     1       1.184   9.759  19.140  0.00  0.00    +0.000 A 
ATOM      2  C   UNL     1       1.728   9.237  17.962  0.00  0.00    +0.000 A 
ATOM      3  C   UNL     1       2.211   7.928  17.925  0.00  0.00    +0.000 A 
ATOM      4  C   UNL     1       2.173   7.133  19.076  0.00  0.00    +0.000 A 
ATOM      5  C   UNL     1       1.650   7.658  20.263  0.00  0.00    +0.000 A 
ATOM      6  C   UNL     1       1.158   8.968  20.294  0.00  0.00    +0.000 A 
ENDROOT
BRANCH   4   7
ATOM      7  C   UNL     1       2.696   5.747  19.042  0.00  0.00    +0.000 A 
ATOM      8  N   UNL     1       2.062   4.802  18.231  0.00  0.00    +0.000 NA
ATOM      9  C   UNL     1       2.764   3.730  18.424  0.00  0.00    +0.000 A 
ATOM     10  C   UNL     1       2.634   2.377  17.855  0.00  0.00    +0.000 A 
ATOM     11  C   UNL     1       3.546   1.484  18.277  0.00  0.00    +0.000 A 
ATOM     12  N   UNL     1       4.542   1.783  19.181  0.00  0.00    +0.000 N 
ATOM     13  C   UNL     1       4.678   3.048  19.714  0.00  0.00    +0.000 A 
ATOM     14  C   UNL     1       3.838   4.030  19.376  0.00  0.00    +0.000 A 
ATOM     15  N   UNL     1       3.734   5.342  19.730  0.00  0.00    +0.000 NA
ATOM     16  H   UNL     1       5.202   1.062  19.455  0.00  0.00    +0.000 HD
ENDBRANCH   4   7
BRANCH   1  17
ATOM     17  S   UNL     1       0.594  11.436  19.167  0.00  0.00    +0.000 S 
BRANCH  17  21
ATOM     18  C   UNL     1      -3.815  10.912  17.976  0.00  0.00    +0.000 A 
ATOM     19  C   UNL     1      -2.827  10.068  17.481  0.00  0.00    +0.000 A 
ATOM     20  C   UNL     1      -1.494  10.258  17.854  0.00  0.00    +0.000 A 
ATOM     21  C   UNL     1      -1.131  11.298  18.719  0.00  0.00    +0.000 A 
ATOM     22  C   UNL     1      -2.136  12.132  19.223  0.00  0.00    +0.000 A 
ATOM     23  C   UNL     1      -3.472  11.942  18.850  0.00  0.00    +0.000 A 
ENDBRANCH  17  21
ENDBRANCH   1  17
TORSDOF 3
ENDMDL
MODEL 6
REMARK VINA RESULT:      -7.8      1.164      1.171
REMARK  Name = 
REMARK  3 active torsions:
REMARK  status: ('A' for Active; 'I' for Inactive)
REMARK    1  A    between atoms: C_4  and  S_5
REMARK    2  A    between atoms: S_5  and  C_6
REMARK    3  A    between atoms: C_9  and  C_10
REMARK                            x       y       z     vdW  Elec       q    Type
REMARK                         _______ _______ _______ _____ _____    ______ ____
ROOT
ATOM      1  C   UNL     1       1.239   9.929  19.062  0.00  0.00    +0.000 A 
ATOM      2  C   UNL     1       1.148   9.111  20.194  0.00  0.00    +0.000 A 
ATOM      3  C   UNL     1       1.636   7.803  20.162  0.00  0.00    +0.000 A 
ATOM      4  C   UNL     1       2.202   7.294  18.989  0.00  0.00    +0.000 A 
ATOM      5  C   UNL     1       2.276   8.101  17.848  0.00  0.00    +0.000 A 
ATOM      6  C   UNL     1       1.794   9.415  17.886  0.00  0.00    +0.000 A 
ENDROOT
BRANCH   4   7
ATOM      7  C   UNL     1       2.711   5.902  18.949  0.00  0.00    +0.000 A 
ATOM      8  N   UNL     1       2.075   4.971  18.124  0.00  0.00    +0.000 NA
ATOM      9  C   UNL     1       2.764   3.890  18.314  0.00  0.00    +0.000 A 
ATOM     10  C   UNL     1       2.626   2.543  17.733  0.00  0.00    +0.000 A 
ATOM     11  C   UNL     1       3.524   1.638  18.157  0.00  0.00    +0.000 A 
ATOM     12  N   UNL     1       4.515   1.919  19.073  0.00  0.00    +0.000 N 
ATOM     13  C   UNL     1       4.658   3.178  19.617  0.00  0.00    +0.000 A 
ATOM     14  C   UNL     1       3.832   4.171  19.280  0.00  0.00    +0.000 A 
ATOM     15  N   UNL     1       3.738   5.481  19.643  0.00  0.00    +0.000 NA
ATOM     16  H   UNL     1       5.164   1.188  19.346  0.00  0.00    +0.000 HD
ENDBRANCH   4   7
BRANCH   1  17
ATOM     17  S   UNL     1       0.591  11.584  19.122  0.00  0.00    +0.000 S 
BRANCH  17  21
ATOM     18  C   UNL     1      -3.900  11.241  18.202  0.00  0.00    +0.000 A 
ATOM     19  C   UNL     1      -3.420  12.159  19.132  0.00  0.00    +0.000 A 
ATOM     20  C   UNL     1      -2.050  12.233  19.396  0.00  0.00    +0.000 A 
ATOM     21  C   UNL     1      -1.144  11.387  18.743  0.00  0.00    +0.000 A 
ATOM     22  C   UNL     1      -1.638  10.477  17.800  0.00  0.00    +0.000 A 
ATOM     23  C   UNL     1      -3.010  10.403  17.534  0.00  0.00    +0.000 A 
ENDBRANCH  17  21
ENDBRANCH   1  17
TORSDOF 3
ENDMDL
MODEL 7
REMARK VINA RESULT:      -7.5      3.899      8.306
REMARK  Name = 
REMARK  3 active torsions:
REMARK  status: ('A' for Active; 'I' for Inactive)
REMARK    1  A    between atoms: C_4  and  S_5
REMARK    2  A    between atoms: S_5  and  C_6
REMARK    3  A    between atoms: C_9  and  C_10
REMARK                            x       y       z     vdW  Elec       q    Type
REMARK                         _______ _______ _______ _____ _____    ______ ____
ROOT
ATOM      1  C   UNL     1       3.008   4.983  19.059  0.00  0.00    +0.000 A 
ATOM      2  C   UNL     1       3.035   6.162  18.307  0.00  0.00    +0.000 A 
ATOM      3  C   UNL     1       2.444   7.328  18.798  0.00  0.00    +0.000 A 
ATOM      4  C   UNL     1       1.803   7.320  20.041  0.00  0.00    +0.000 A 
ATOM      5  C   UNL     1       1.755   6.138  20.788  0.00  0.00    +0.000 A 
ATOM      6  C   UNL     1       2.356   4.973  20.296  0.00  0.00    +0.000 A 
ENDROOT
BRANCH   4   7
ATOM      7  C   UNL     1       1.166   8.553  20.560  0.00  0.00    +0.000 A 
ATOM      8  N   UNL     1       0.426   8.489  21.744  0.00  0.00    +0.000 NA
ATOM      9  C   UNL     1       0.032   9.712  21.912  0.00  0.00    +0.000 A 
ATOM     10  C   UNL     1      -0.777  10.326  22.979  0.00  0.00    +0.000 A 
ATOM     11  C   UNL     1      -1.004  11.643  22.844  0.00  0.00    +0.000 A 
ATOM     12  N   UNL     1      -0.530  12.394  21.790  0.00  0.00    +0.000 N 
ATOM     13  C   UNL     1       0.235  11.831  20.790  0.00  0.00    +0.000 A 
ATOM     14  C   UNL     1       0.537  10.530  20.804  0.00  0.00    +0.000 A 
ATOM     15  N   UNL     1       1.255   9.722  19.976  0.00  0.00    +0.000 NA
ATOM     16  H   UNL     1      -0.735  13.387  21.751  0.00  0.00    +0.000 HD
ENDBRANCH   4   7
BRANCH   1  17
ATOM     17  S   UNL     1       3.750   3.506  18.403  0.00  0.00    +0.000 S 
BRANCH  17  21
ATOM     18  C   UNL     1       7.225   5.017  15.799  0.00  0.00    +0.000 A 
ATOM     19  C   UNL     1       7.333   4.955  17.185  0.00  0.00    +0.000 A 
ATOM     20  C   UNL     1       6.256   4.499  17.950  0.00  0.00    +0.000 A 
ATOM     21  C   UNL     1       5.055   4.109  17.341  0.00  0.00    +0.000 A 
ATOM     22  C   UNL     1       4.964   4.163  15.945  0.00  0.00    +0.000 A 
ATOM     23  C   UNL     1       6.043   4.618  15.178  0.00  0.00    +0.000 A 
ENDBRANCH  17  21
ENDBRANCH   1  17
TORSDOF 3
ENDMDL
MODEL 8
REMARK VINA RESULT:      -7.5      3.788      8.438
REMARK  Name = 
REMARK  3 active torsions:
REMARK  status: ('A' for Active; 'I' for Inactive)
REMARK    1  A    between atoms: C_4  and  S_5
REMARK    2  A    between atoms: S_5  and  C_6
REMARK    3  A    between atoms: C_9  and  C_10
REMARK                            x       y       z     vdW  Elec       q    Type
REMARK                         _______ _______ _______ _____ _____    ______ ____
ROOT
ATOM      1  C   UNL     1       2.933   6.596  18.449  0.00  0.00    +0.000 A 
ATOM      2  C   UNL     1       2.505   6.309  19.750  0.00  0.00    +0.000 A 
ATOM      3  C   UNL     1       1.714   7.222  20.451  0.00  0.00    +0.000 A 
ATOM      4  C   UNL     1       1.361   8.441  19.863  0.00  0.00    +0.000 A 
ATOM      5  C   UNL     1       1.804   8.741  18.570  0.00  0.00    +0.000 A 
ATOM      6  C   UNL     1       2.590   7.820  17.867  0.00  0.00    +0.000 A 
ENDROOT
BRANCH   4   7
ATOM      7  C   UNL     1       0.531   9.417  20.609  0.00  0.00    +0.000 A 
ATOM      8  N   UNL     1       0.031  10.535  19.938  0.00  0.00    +0.000 NA
ATOM      9  C   UNL     1      -0.644  11.153  20.856  0.00  0.00    +0.000 A 
ATOM     10  C   UNL     1      -1.430  12.398  20.803  0.00  0.00    +0.000 A 
ATOM     11  C   UNL     1      -2.012  12.761  21.958  0.00  0.00    +0.000 A 
ATOM     12  N   UNL     1      -1.898  12.042  23.128  0.00  0.00    +0.000 N 
ATOM     13  C   UNL     1      -1.171  10.872  23.187  0.00  0.00    +0.000 A 
ATOM     14  C   UNL     1      -0.543  10.397  22.109  0.00  0.00    +0.000 A 
ATOM     15  N   UNL     1       0.225   9.295  21.876  0.00  0.00    +0.000 NA
ATOM     16  H   UNL     1      -2.368  12.371  23.965  0.00  0.00    +0.000 HD
ENDBRANCH   4   7
BRANCH   1  17
ATOM     17  S   UNL     1       3.957   5.426  17.586  0.00  0.00    +0.000 S 
BRANCH  17  21
ATOM     18  C   UNL     1       8.216   6.828  18.601  0.00  0.00    +0.000 A 
ATOM     19  C   UNL     1       7.494   7.403  17.559  0.00  0.00    +0.000 A 
ATOM     20  C   UNL     1       6.204   6.949  17.269  0.00  0.00    +0.000 A 
ATOM     21  C   UNL     1       5.624   5.910  18.009  0.00  0.00    +0.000 A 
ATOM     22  C   UNL     1       6.355   5.350  19.064  0.00  0.00    +0.000 A 
ATOM     23  C   UNL     1       7.647   5.805  19.356  0.00  0.00    +0.000 A 
ENDBRANCH  17  21
ENDBRANCH   1  17
TORSDOF 3
ENDMDL
MODEL 9
REMARK VINA RESULT:      -7.5      1.686      2.771
REMARK  Name = 
REMARK  3 active torsions:
REMARK  status: ('A' for Active; 'I' for Inactive)
REMARK    1  A    between atoms: C_4  and  S_5
REMARK    2  A    between atoms: S_5  and  C_6
REMARK    3  A    between atoms: C_9  and  C_10
REMARK                            x       y       z     vdW  Elec       q    Type
REMARK                         _______ _______ _______ _____ _____    ______ ____
ROOT
ATOM      1  C   UNL     1       0.858   9.934  19.450  0.00  0.00    +0.000 A 
ATOM      2  C   UNL     1       1.421  10.034  18.173  0.00  0.00    +0.000 A 
ATOM      3  C   UNL     1       2.203   8.996  17.662  0.00  0.00    +0.000 A 
ATOM      4  C   UNL     1       2.446   7.854  18.433  0.00  0.00    +0.000 A 
ATOM      5  C   UNL     1       1.902   7.759  19.719  0.00  0.00    +0.000 A 
ATOM      6  C   UNL     1       1.112   8.798  20.225  0.00  0.00    +0.000 A 
ENDROOT
BRANCH   4   7
ATOM      7  C   UNL     1       3.284   6.756  17.897  0.00  0.00    +0.000 A 
ATOM      8  N   UNL     1       4.361   7.069  17.064  0.00  0.00    +0.000 NA
ATOM      9  C   UNL     1       4.873   5.910  16.795  0.00  0.00    +0.000 A 
ATOM     10  C   UNL     1       6.040   5.536  15.977  0.00  0.00    +0.000 A 
ATOM     11  C   UNL     1       6.298   4.219  15.908  0.00  0.00    +0.000 A 
ATOM     12  N   UNL     1       5.540   3.260  16.545  0.00  0.00    +0.000 N 
ATOM     13  C   UNL     1       4.450   3.599  17.320  0.00  0.00    +0.000 A 
ATOM     14  C   UNL     1       4.085   4.874  17.474  0.00  0.00    +0.000 A 
ATOM     15  N   UNL     1       3.083   5.490  18.162  0.00  0.00    +0.000 NA
ATOM     16  H   UNL     1       5.794   2.282  16.455  0.00  0.00    +0.000 HD
ENDBRANCH   4   7
BRANCH   1  17
ATOM     17  S   UNL     1      -0.116  11.278  20.086  0.00  0.00    +0.000 S 
BRANCH  17  21
ATOM     18  C   UNL     1      -4.059  10.791  17.772  0.00  0.00    +0.000 A 
ATOM     19  C   UNL     1      -2.996   9.913  17.584  0.00  0.00    +0.000 A 
ATOM     20  C   UNL     1      -1.807  10.092  18.296  0.00  0.00    +0.000 A 
ATOM     21  C   UNL     1      -1.661  11.155  19.197  0.00  0.00    +0.000 A 
ATOM     22  C   UNL     1      -2.743  12.024  19.388  0.00  0.00    +0.000 A 
ATOM     23  C   UNL     1      -3.935  11.844  18.676  0.00  0.00    +0.000 A 
ENDBRANCH  17  21
ENDBRANCH   1  17
TORSDOF 3
ENDMDL
