MODEL 1
REMARK VINA RESULT:      -8.1      0.000      0.000
REMARK  Name = 
REMARK  3 active torsions:
REMARK  status: ('A' for Active; 'I' for Inactive)
REMARK    1  A    between atoms: N_1  and  C_2
REMARK    2  A    between atoms: N_4  and  C_5
REMARK    3  A    between atoms: C_13  and  C_14
REMARK                            x       y       z     vdW  Elec       q    Type
REMARK                         _______ _______ _______ _____ _____    ______ ____
ROOT
ATOM      1  C   UNL     1       6.286   4.572  17.840  0.00  0.00    +0.000 C 
ATOM      2  C   UNL     1       5.784   5.071  19.216  0.00  0.00    +0.000 C 
ATOM      3  N   UNL     1       4.376   5.465  19.148  0.00  0.00    +0.000 N 
ATOM      4  C   UNL     1       4.066   6.518  18.179  0.00  0.00    +0.000 C 
ATOM      5  C   UNL     1       4.495   6.067  16.784  0.00  0.00    +0.000 C 
ATOM      6  C   UNL     1       5.976   5.632  16.743  0.00  0.00    +0.000 C 
ENDROOT
BRANCH   6   7
ATOM      7  C   UNL     1       6.344   5.155  15.343  0.00  0.00    +0.000 A 
ATOM      8  C   UNL     1       7.447   5.686  14.651  0.00  0.00    +0.000 A 
ATOM      9  C   UNL     1       7.759   5.227  13.374  0.00  0.00    +0.000 A 
ATOM     10  F   UNL     1       8.821   5.737  12.737  0.00  0.00    +0.000 F 
ATOM     11  C   UNL     1       6.985   4.244  12.770  0.00  0.00    +0.000 A 
ATOM     12  F   UNL     1       7.297   3.801  11.544  0.00  0.00    +0.000 F 
ATOM     13  C   UNL     1       5.887   3.709  13.428  0.00  0.00    +0.000 A 
ATOM     14  C   UNL     1       5.575   4.168  14.706  0.00  0.00    +0.000 A 
ATOM     15  F   UNL     1       4.515   3.637  15.332  0.00  0.00    +0.000 F 
ENDBRANCH   6   7
BRANCH   3  16
ATOM     16  C   UNL     1       3.365   4.724  19.736  0.00  0.00    +0.000 A 
ATOM     17  C   UNL     1       2.086   5.236  19.980  0.00  0.00    +0.000 A 
ATOM     18  C   UNL     1       1.087   4.447  20.562  0.00  0.00    +0.000 A 
ATOM     19  C   UNL     1       1.386   3.140  20.892  0.00  0.00    +0.000 A 
ATOM     20  N   UNL     1       2.591   2.585  20.680  0.00  0.00    +0.000 NA
ATOM     21  C   UNL     1       3.532   3.383  20.111  0.00  0.00    +0.000 A 
ENDBRANCH   3  16
BRANCH   1  22
ATOM     22  N   UNL     1       7.728   4.255  17.875  0.00  0.00    +0.000 NA
ATOM     23  H   UNL     1       8.045   3.975  16.948  0.00  0.00    +0.000 HD
ATOM     24  H   UNL     1       7.896   3.458  18.489  0.00  0.00    +0.000 HD
ENDBRANCH   1  22
TORSDOF 3
ENDMDL
MODEL 2
REMARK VINA RESULT:      -7.9      0.604      1.015
REMARK  Name = 
REMARK  3 active torsions:
REMARK  status: ('A' for Active; 'I' for Inactive)
REMARK    1  A    between atoms: N_1  and  C_2
REMARK    2  A    between atoms: N_4  and  C_5
REMARK    3  A    between atoms: C_13  and  C_14
REMARK                            x       y       z     vdW  Elec       q    Type
REMARK                         _______ _______ _______ _____ _____    ______ ____
ROOT
ATOM      1  C   UNL     1       6.302   4.523  17.816  0.00  0.00    +0.000 C 
ATOM      2  C   UNL     1       5.810   5.017  19.198  0.00  0.00    +0.000 C 
ATOM      3  N   UNL     1       4.410   5.442  19.135  0.00  0.00    +0.000 N 
ATOM      4  C   UNL     1       4.124   6.513  18.179  0.00  0.00    +0.000 C 
ATOM      5  C   UNL     1       4.543   6.068  16.779  0.00  0.00    +0.000 C 
ATOM      6  C   UNL     1       6.014   5.602  16.732  0.00  0.00    +0.000 C 
ENDROOT
BRANCH   6   7
ATOM      7  C   UNL     1       6.371   5.134  15.326  0.00  0.00    +0.000 A 
ATOM      8  C   UNL     1       7.468   5.670  14.628  0.00  0.00    +0.000 A 
ATOM      9  C   UNL     1       7.771   5.219  13.346  0.00  0.00    +0.000 A 
ATOM     10  F   UNL     1       8.828   5.735  12.704  0.00  0.00    +0.000 F 
ATOM     11  C   UNL     1       6.994   4.238  12.743  0.00  0.00    +0.000 A 
ATOM     12  F   UNL     1       7.296   3.803  11.512  0.00  0.00    +0.000 F 
ATOM     13  C   UNL     1       5.901   3.699  13.407  0.00  0.00    +0.000 A 
ATOM     14  C   UNL     1       5.599   4.150  14.690  0.00  0.00    +0.000 A 
ATOM     15  F   UNL     1       4.544   3.614  15.321  0.00  0.00    +0.000 F 
ENDBRANCH   6   7
BRANCH   3  16
ATOM     16  C   UNL     1       3.384   4.716  19.714  0.00  0.00    +0.000 A 
ATOM     17  C   UNL     1       3.488   3.354  20.018  0.00  0.00    +0.000 A 
ATOM     18  C   UNL     1       2.431   2.662  20.619  0.00  0.00    +0.000 A 
ATOM     19  C   UNL     1       1.272   3.353  20.916  0.00  0.00    +0.000 A 
ATOM     20  N   UNL     1       1.108   4.660  20.656  0.00  0.00    +0.000 NA
ATOM     21  C   UNL     1       2.158   5.297  20.074  0.00  0.00    +0.000 A 
ENDBRANCH   3  16
BRANCH   1  22
ATOM     22  N   UNL     1       7.736   4.175  17.847  0.00  0.00    +0.000 NA
ATOM     23  H   UNL     1       8.111   4.162  16.900  0.00  0.00    +0.000 HD
ATOM     24  H   UNL     1       7.859   3.233  18.218  0.00  0.00    +0.000 HD
ENDBRANCH   1  22
TORSDOF 3
ENDMDL
MODEL 3
REMARK VINA RESULT:      -7.7      5.054      7.628
REMARK  Name = 
REMARK  3 active torsions:
REMARK  status: ('A' for Active; 'I' for Inactive)
REMARK    1  A    between atoms: N_1  and  C_2
REMARK    2  A    between atoms: N_4  and  C_5
REMARK    3  A    between atoms: C_13  and  C_14
REMARK                            x       y       z     vdW  Elec       q    Type
REMARK                         _______ _______ _______ _____ _____    ______ ____
ROOT
ATOM      1  C   UNL     1       1.262   8.431  20.510  0.00  0.00    +0.000 C 
ATOM      2  C   UNL     1       0.991   9.919  20.180  0.00  0.00    +0.000 C 
ATOM      3  N   UNL     1       0.575  10.078  18.785  0.00  0.00    +0.000 N 
ATOM      4  C   UNL     1       1.530   9.593  17.788  0.00  0.00    +0.000 C 
ATOM      5  C   UNL     1       1.806   8.110  18.028  0.00  0.00    +0.000 C 
ATOM      6  C   UNL     1       2.260   7.830  19.477  0.00  0.00    +0.000 C 
ENDROOT
BRANCH   6   7
ATOM      7  C   UNL     1       2.484   6.335  19.677  0.00  0.00    +0.000 A 
ATOM      8  C   UNL     1       1.570   5.544  20.395  0.00  0.00    +0.000 A 
ATOM      9  C   UNL     1       1.801   4.180  20.558  0.00  0.00    +0.000 A 
ATOM     10  F   UNL     1       0.911   3.443  21.235  0.00  0.00    +0.000 F 
ATOM     11  C   UNL     1       2.935   3.589  20.016  0.00  0.00    +0.000 A 
ATOM     12  F   UNL     1       3.147   2.274  20.169  0.00  0.00    +0.000 F 
ATOM     13  C   UNL     1       3.857   4.349  19.310  0.00  0.00    +0.000 A 
ATOM     14  C   UNL     1       3.625   5.713  19.146  0.00  0.00    +0.000 A 
ATOM     15  F   UNL     1       4.521   6.433  18.456  0.00  0.00    +0.000 F 
ENDBRANCH   6   7
BRANCH   3  16
ATOM     16  C   UNL     1      -0.723  10.399  18.426  0.00  0.00    +0.000 A 
ATOM     17  C   UNL     1      -1.415   9.746  17.399  0.00  0.00    +0.000 A 
ATOM     18  C   UNL     1      -2.733  10.091  17.079  0.00  0.00    +0.000 A 
ATOM     19  C   UNL     1      -3.348  11.092  17.802  0.00  0.00    +0.000 A 
ATOM     20  N   UNL     1      -2.744  11.755  18.803  0.00  0.00    +0.000 NA
ATOM     21  C   UNL     1      -1.466  11.390  19.084  0.00  0.00    +0.000 A 
ENDBRANCH   3  16
BRANCH   1  22
ATOM     22  N   UNL     1       1.767   8.268  21.888  0.00  0.00    +0.000 NA
ATOM     23  H   UNL     1       2.729   8.597  21.947  0.00  0.00    +0.000 HD
ATOM     24  H   UNL     1       1.785   7.279  22.138  0.00  0.00    +0.000 HD
ENDBRANCH   1  22
TORSDOF 3
ENDMDL
MODEL 4
REMARK VINA RESULT:      -7.6      4.636      6.735
REMARK  Name = 
REMARK  3 active torsions:
REMARK  status: ('A' for Active; 'I' for Inactive)
REMARK    1  A    between atoms: N_1  and  C_2
REMARK    2  A    between atoms: N_4  and  C_5
REMARK    3  A    between atoms: C_13  and  C_14
REMARK                            x       y       z     vdW  Elec       q    Type
REMARK                         _______ _______ _______ _____ _____    ______ ____
ROOT
ATOM      1  C   UNL     1       1.466   7.604  19.933  0.00  0.00    +0.000 C 
ATOM      2  C   UNL     1       1.204   9.107  20.197  0.00  0.00    +0.000 C 
ATOM      3  N   UNL     1       0.905   9.813  18.950  0.00  0.00    +0.000 N 
ATOM      4  C   UNL     1       1.948   9.741  17.925  0.00  0.00    +0.000 C 
ATOM      5  C   UNL     1       2.223   8.278  17.581  0.00  0.00    +0.000 C 
ATOM      6  C   UNL     1       2.556   7.439  18.834  0.00  0.00    +0.000 C 
ENDROOT
BRANCH   6   7
ATOM      7  C   UNL     1       2.783   5.983  18.444  0.00  0.00    +0.000 A 
ATOM      8  C   UNL     1       1.731   5.049  18.443  0.00  0.00    +0.000 A 
ATOM      9  C   UNL     1       1.969   3.726  18.079  0.00  0.00    +0.000 A 
ATOM     10  F   UNL     1       0.951   2.856  18.072  0.00  0.00    +0.000 F 
ATOM     11  C   UNL     1       3.246   3.315  17.716  0.00  0.00    +0.000 A 
ATOM     12  F   UNL     1       3.466   2.042  17.359  0.00  0.00    +0.000 F 
ATOM     13  C   UNL     1       4.302   4.215  17.717  0.00  0.00    +0.000 A 
ATOM     14  C   UNL     1       4.063   5.538  18.080  0.00  0.00    +0.000 A 
ATOM     15  F   UNL     1       5.093   6.397  18.070  0.00  0.00    +0.000 F 
ENDBRANCH   6   7
BRANCH   3  16
ATOM     16  C   UNL     1      -0.362  10.276  18.640  0.00  0.00    +0.000 A 
ATOM     17  C   UNL     1      -1.117   9.778  17.573  0.00  0.00    +0.000 A 
ATOM     18  C   UNL     1      -2.402  10.264  17.304  0.00  0.00    +0.000 A 
ATOM     19  C   UNL     1      -2.920  11.250  18.120  0.00  0.00    +0.000 A 
ATOM     20  N   UNL     1      -2.250  11.769  19.163  0.00  0.00    +0.000 NA
ATOM     21  C   UNL     1      -1.008  11.268  19.392  0.00  0.00    +0.000 A 
ENDBRANCH   3  16
BRANCH   1  22
ATOM     22  N   UNL     1       1.855   6.899  21.171  0.00  0.00    +0.000 NA
ATOM     23  H   UNL     1       1.740   5.894  21.050  0.00  0.00    +0.000 HD
ATOM     24  H   UNL     1       1.235   7.169  21.936  0.00  0.00    +0.000 HD
ENDBRANCH   1  22
TORSDOF 3
ENDMDL
MODEL 5
REMARK VINA RESULT:      -7.5      2.794      7.159
REMARK  Name = 
REMARK  3 active torsions:
REMARK  status: ('A' for Active; 'I' for Inactive)
REMARK    1  A    between atoms: N_1  and  C_2
REMARK    2  A    between atoms: N_4  and  C_5
REMARK    3  A    between atoms: C_13  and  C_14
REMARK                            x       y       z     vdW  Elec       q    Type
REMARK                         _______ _______ _______ _____ _____    ______ ____
ROOT
ATOM      1  C   UNL     1       4.437   5.938  16.924  0.00  0.00    +0.000 C 
ATOM      2  C   UNL     1       5.703   6.423  16.178  0.00  0.00    +0.000 C 
ATOM      3  N   UNL     1       6.559   5.294  15.811  0.00  0.00    +0.000 N 
ATOM      4  C   UNL     1       7.020   4.467  16.928  0.00  0.00    +0.000 C 
ATOM      5  C   UNL     1       5.812   3.914  17.681  0.00  0.00    +0.000 C 
ATOM      6  C   UNL     1       4.840   5.030  18.123  0.00  0.00    +0.000 C 
ENDROOT
BRANCH   6   7
ATOM      7  C   UNL     1       3.635   4.425  18.835  0.00  0.00    +0.000 A 
ATOM      8  C   UNL     1       3.467   4.543  20.226  0.00  0.00    +0.000 A 
ATOM      9  C   UNL     1       2.354   3.983  20.846  0.00  0.00    +0.000 A 
ATOM     10  F   UNL     1       2.206   4.117  22.171  0.00  0.00    +0.000 F 
ATOM     11  C   UNL     1       1.400   3.300  20.101  0.00  0.00    +0.000 A 
ATOM     12  F   UNL     1       0.327   2.771  20.704  0.00  0.00    +0.000 F 
ATOM     13  C   UNL     1       1.547   3.163  18.727  0.00  0.00    +0.000 A 
ATOM     14  C   UNL     1       2.661   3.725  18.106  0.00  0.00    +0.000 A 
ATOM     15  F   UNL     1       2.785   3.589  16.778  0.00  0.00    +0.000 F 
ENDBRANCH   6   7
BRANCH   3  16
ATOM     16  C   UNL     1       6.703   4.861  14.504  0.00  0.00    +0.000 A 
ATOM     17  C   UNL     1       5.908   3.858  13.939  0.00  0.00    +0.000 A 
ATOM     18  C   UNL     1       6.076   3.462  12.607  0.00  0.00    +0.000 A 
ATOM     19  C   UNL     1       7.046   4.087  11.849  0.00  0.00    +0.000 A 
ATOM     20  N   UNL     1       7.840   5.060  12.327  0.00  0.00    +0.000 NA
ATOM     21  C   UNL     1       7.644   5.417  13.624  0.00  0.00    +0.000 A 
ENDBRANCH   3  16
BRANCH   1  22
ATOM     22  N   UNL     1       3.610   7.074  17.378  0.00  0.00    +0.000 NA
ATOM     23  H   UNL     1       2.661   6.757  17.574  0.00  0.00    +0.000 HD
ATOM     24  H   UNL     1       3.533   7.768  16.634  0.00  0.00    +0.000 HD
ENDBRANCH   1  22
TORSDOF 3
ENDMDL
MODEL 6
REMARK VINA RESULT:      -7.4      0.989      1.832
REMARK  Name = 
REMARK  3 active torsions:
REMARK  status: ('A' for Active; 'I' for Inactive)
REMARK    1  A    between atoms: N_1  and  C_2
REMARK    2  A    between atoms: N_4  and  C_5
REMARK    3  A    between atoms: C_13  and  C_14
REMARK                            x       y       z     vdW  Elec       q    Type
REMARK                         _______ _______ _______ _____ _____    ______ ____
ROOT
ATOM      1  C   UNL     1       6.410   4.396  17.474  0.00  0.00    +0.000 C 
ATOM      2  C   UNL     1       5.932   4.882  18.863  0.00  0.00    +0.000 C 
ATOM      3  N   UNL     1       4.505   5.212  18.840  0.00  0.00    +0.000 N 
ATOM      4  C   UNL     1       4.116   6.243  17.876  0.00  0.00    +0.000 C 
ATOM      5  C   UNL     1       4.518   5.800  16.470  0.00  0.00    +0.000 C 
ATOM      6  C   UNL     1       6.015   5.433  16.381  0.00  0.00    +0.000 C 
ENDROOT
BRANCH   6   7
ATOM      7  C   UNL     1       6.357   4.962  14.972  0.00  0.00    +0.000 A 
ATOM      8  C   UNL     1       5.533   4.057  14.279  0.00  0.00    +0.000 A 
ATOM      9  C   UNL     1       5.870   3.649  12.991  0.00  0.00    +0.000 A 
ATOM     10  F   UNL     1       5.066   2.796  12.344  0.00  0.00    +0.000 F 
ATOM     11  C   UNL     1       7.023   4.127  12.380  0.00  0.00    +0.000 A 
ATOM     12  F   UNL     1       7.337   3.736  11.137  0.00  0.00    +0.000 F 
ATOM     13  C   UNL     1       7.856   5.015  13.046  0.00  0.00    +0.000 A 
ATOM     14  C   UNL     1       7.518   5.424  14.334  0.00  0.00    +0.000 A 
ATOM     15  F   UNL     1       8.330   6.287  14.961  0.00  0.00    +0.000 F 
ENDBRANCH   6   7
BRANCH   3  16
ATOM     16  C   UNL     1       3.549   4.431  19.466  0.00  0.00    +0.000 A 
ATOM     17  C   UNL     1       2.637   4.940  20.397  0.00  0.00    +0.000 A 
ATOM     18  C   UNL     1       1.675   4.118  20.995  0.00  0.00    +0.000 A 
ATOM     19  C   UNL     1       1.637   2.782  20.645  0.00  0.00    +0.000 A 
ATOM     20  N   UNL     1       2.479   2.231  19.756  0.00  0.00    +0.000 NA
ATOM     21  C   UNL     1       3.397   3.063  19.196  0.00  0.00    +0.000 A 
ENDBRANCH   3  16
BRANCH   1  22
ATOM     22  N   UNL     1       7.865   4.145  17.461  0.00  0.00    +0.000 NA
ATOM     23  H   UNL     1       8.287   4.503  18.317  0.00  0.00    +0.000 HD
ATOM     24  H   UNL     1       8.300   4.654  16.691  0.00  0.00    +0.000 HD
ENDBRANCH   1  22
TORSDOF 3
ENDMDL
MODEL 7
REMARK VINA RESULT:      -7.4      3.502      7.216
REMARK  Name = 
REMARK  3 active torsions:
REMARK  status: ('A' for Active; 'I' for Inactive)
REMARK    1  A    between atoms: N_1  and  C_2
REMARK    2  A    between atoms: N_4  and  C_5
REMARK    3  A    between atoms: C_13  and  C_14
REMARK                            x       y       z     vdW  Elec       q    Type
REMARK                         _______ _______ _______ _____ _____    ______ ____
ROOT
ATOM      1  C   UNL     1       4.280   5.983  17.023  0.00  0.00    +0.000 C 
ATOM      2  C   UNL     1       5.492   6.513  16.219  0.00  0.00    +0.000 C 
ATOM      3  N   UNL     1       6.428   5.431  15.908  0.00  0.00    +0.000 N 
ATOM      4  C   UNL     1       6.970   4.719  17.067  0.00  0.00    +0.000 C 
ATOM      5  C   UNL     1       5.822   4.127  17.882  0.00  0.00    +0.000 C 
ATOM      6  C   UNL     1       4.773   5.192  18.270  0.00  0.00    +0.000 C 
ENDROOT
BRANCH   6   7
ATOM      7  C   UNL     1       3.632   4.546  19.046  0.00  0.00    +0.000 A 
ATOM      8  C   UNL     1       3.239   3.217  18.806  0.00  0.00    +0.000 A 
ATOM      9  C   UNL     1       2.195   2.653  19.535  0.00  0.00    +0.000 A 
ATOM     10  F   UNL     1       1.845   1.382  19.300  0.00  0.00    +0.000 F 
ATOM     11  C   UNL     1       1.528   3.396  20.501  0.00  0.00    +0.000 A 
ATOM     12  F   UNL     1       0.529   2.845  21.204  0.00  0.00    +0.000 F 
ATOM     13  C   UNL     1       1.891   4.713  20.751  0.00  0.00    +0.000 A 
ATOM     14  C   UNL     1       2.937   5.276  20.023  0.00  0.00    +0.000 A 
ATOM     15  F   UNL     1       3.280   6.546  20.280  0.00  0.00    +0.000 F 
ENDBRANCH   6   7
BRANCH   3  16
ATOM     16  C   UNL     1       6.583   4.923  14.629  0.00  0.00    +0.000 A 
ATOM     17  C   UNL     1       5.736   3.951  14.085  0.00  0.00    +0.000 A 
ATOM     18  C   UNL     1       5.919   3.476  12.781  0.00  0.00    +0.000 A 
ATOM     19  C   UNL     1       6.957   3.993  12.030  0.00  0.00    +0.000 A 
ATOM     20  N   UNL     1       7.802   4.931  12.489  0.00  0.00    +0.000 NA
ATOM     21  C   UNL     1       7.589   5.366  13.758  0.00  0.00    +0.000 A 
ENDBRANCH   3  16
BRANCH   1  22
ATOM     22  N   UNL     1       3.374   7.080  17.418  0.00  0.00    +0.000 NA
ATOM     23  H   UNL     1       3.010   7.546  16.589  0.00  0.00    +0.000 HD
ATOM     24  H   UNL     1       3.891   7.787  17.942  0.00  0.00    +0.000 HD
ENDBRANCH   1  22
TORSDOF 3
ENDMDL
MODEL 8
REMARK VINA RESULT:      -7.4      5.030      7.594
REMARK  Name = 
REMARK  3 active torsions:
REMARK  status: ('A' for Active; 'I' for Inactive)
REMARK    1  A    between atoms: N_1  and  C_2
REMARK    2  A    between atoms: N_4  and  C_5
REMARK    3  A    between atoms: C_13  and  C_14
REMARK                            x       y       z     vdW  Elec       q    Type
REMARK                         _______ _______ _______ _____ _____    ______ ____
ROOT
ATOM      1  C   UNL     1       1.254   8.406  20.518  0.00  0.00    +0.000 C 
ATOM      2  C   UNL     1       0.987   9.894  20.185  0.00  0.00    +0.000 C 
ATOM      3  N   UNL     1       0.566  10.050  18.791  0.00  0.00    +0.000 N 
ATOM      4  C   UNL     1       1.516   9.559  17.791  0.00  0.00    +0.000 C 
ATOM      5  C   UNL     1       1.787   8.075  18.035  0.00  0.00    +0.000 C 
ATOM      6  C   UNL     1       2.245   7.798  19.483  0.00  0.00    +0.000 C 
ENDROOT
BRANCH   6   7
ATOM      7  C   UNL     1       2.465   6.303  19.686  0.00  0.00    +0.000 A 
ATOM      8  C   UNL     1       1.531   5.510  20.375  0.00  0.00    +0.000 A 
ATOM      9  C   UNL     1       1.758   4.146  20.541  0.00  0.00    +0.000 A 
ATOM     10  F   UNL     1       0.850   3.405  21.190  0.00  0.00    +0.000 F 
ATOM     11  C   UNL     1       2.909   3.556  20.032  0.00  0.00    +0.000 A 
ATOM     12  F   UNL     1       3.117   2.242  20.188  0.00  0.00    +0.000 F 
ATOM     13  C   UNL     1       3.850   4.319  19.355  0.00  0.00    +0.000 A 
ATOM     14  C   UNL     1       3.622   5.683  19.188  0.00  0.00    +0.000 A 
ATOM     15  F   UNL     1       4.537   6.405  18.525  0.00  0.00    +0.000 F 
ENDBRANCH   6   7
BRANCH   3  16
ATOM     16  C   UNL     1      -0.732  10.374  18.436  0.00  0.00    +0.000 A 
ATOM     17  C   UNL     1      -1.487  11.344  19.105  0.00  0.00    +0.000 A 
ATOM     18  C   UNL     1      -2.792  11.652  18.703  0.00  0.00    +0.000 A 
ATOM     19  C   UNL     1      -3.326  10.981  17.621  0.00  0.00    +0.000 A 
ATOM     20  N   UNL     1      -2.654  10.044  16.931  0.00  0.00    +0.000 NA
ATOM     21  C   UNL     1      -1.390   9.775  17.352  0.00  0.00    +0.000 A 
ENDBRANCH   3  16
BRANCH   1  22
ATOM     22  N   UNL     1       1.764   8.244  21.894  0.00  0.00    +0.000 NA
ATOM     23  H   UNL     1       2.238   7.347  21.987  0.00  0.00    +0.000 HD
ATOM     24  H   UNL     1       0.987   8.229  22.555  0.00  0.00    +0.000 HD
ENDBRANCH   1  22
TORSDOF 3
ENDMDL
MODEL 9
REMARK VINA RESULT:      -7.4      1.179      1.900
REMARK  Name = 
REMARK  3 active torsions:
REMARK  status: ('A' for Active; 'I' for Inactive)
REMARK    1  A    between atoms: N_1  and  C_2
REMARK    2  A    between atoms: N_4  and  C_5
REMARK    3  A    between atoms: C_13  and  C_14
REMARK                            x       y       z     vdW  Elec       q    Type
REMARK                         _______ _______ _______ _____ _____    ______ ____
ROOT
ATOM      1  C   UNL     1       5.832   4.511  18.107  0.00  0.00    +0.000 C 
ATOM      2  C   UNL     1       5.266   4.959  19.476  0.00  0.00    +0.000 C 
ATOM      3  N   UNL     1       3.834   5.249  19.380  0.00  0.00    +0.000 N 
ATOM      4  C   UNL     1       3.469   6.286  18.414  0.00  0.00    +0.000 C 
ATOM      5  C   UNL     1       3.958   5.881  17.025  0.00  0.00    +0.000 C 
ATOM      6  C   UNL     1       5.468   5.556  17.012  0.00  0.00    +0.000 C 
ENDROOT
BRANCH   6   7
ATOM      7  C   UNL     1       5.899   5.121  15.616  0.00  0.00    +0.000 A 
ATOM      8  C   UNL     1       5.069   4.328  14.804  0.00  0.00    +0.000 A 
ATOM      9  C   UNL     1       5.490   3.949  13.532  0.00  0.00    +0.000 A 
ATOM     10  F   UNL     1       4.679   3.204  12.769  0.00  0.00    +0.000 F 
ATOM     11  C   UNL     1       6.732   4.347  13.053  0.00  0.00    +0.000 A 
ATOM     12  F   UNL     1       7.127   3.986  11.824  0.00  0.00    +0.000 F 
ATOM     13  C   UNL     1       7.573   5.123  13.838  0.00  0.00    +0.000 A 
ATOM     14  C   UNL     1       7.152   5.503  15.111  0.00  0.00    +0.000 A 
ATOM     15  F   UNL     1       7.973   6.258  15.854  0.00  0.00    +0.000 F 
ENDBRANCH   6   7
BRANCH   3  16
ATOM     16  C   UNL     1       2.868   4.431  19.940  0.00  0.00    +0.000 A 
ATOM     17  C   UNL     1       1.780   3.928  19.217  0.00  0.00    +0.000 A 
ATOM     18  C   UNL     1       0.834   3.090  19.819  0.00  0.00    +0.000 A 
ATOM     19  C   UNL     1       0.996   2.759  21.150  0.00  0.00    +0.000 A 
ATOM     20  N   UNL     1       2.019   3.202  21.899  0.00  0.00    +0.000 NA
ATOM     21  C   UNL     1       2.916   4.011  21.278  0.00  0.00    +0.000 A 
ENDBRANCH   3  16
BRANCH   1  22
ATOM     22  N   UNL     1       7.292   4.301  18.170  0.00  0.00    +0.000 NA
ATOM     23  H   UNL     1       7.534   3.791  19.019  0.00  0.00    +0.000 HD
ATOM     24  H   UNL     1       7.772   5.199  18.228  0.00  0.00    +0.000 HD
ENDBRANCH   1  22
TORSDOF 3
ENDMDL
