MODEL 1
REMARK VINA RESULT:      -7.8      0.000      0.000
REMARK  Name = 
REMARK  4 active torsions:
REMARK  status: ('A' for Active; 'I' for Inactive)
REMARK    1  A    between atoms: C_1  and  N_2
REMARK    2  A    between atoms: N_11  and  C_12
REMARK    3  A    between atoms: C_18  and  C_19
REMARK    4  A    between atoms: C_22  and  C_23
REMARK                            x       y       z     vdW  Elec       q    Type
REMARK                         _______ _______ _______ _____ _____    ______ ____
ROOT
ATOM      1  C   UNL     1       3.493   8.225  17.237  0.00  0.00    +0.000 C 
ATOM      2  N   UNL     1       3.108   7.362  18.350  0.00  0.00    +0.000 N 
ATOM      3  C   UNL     1       2.209   7.814  19.327  0.00  0.00    +0.000 A 
ATOM      4  C   UNL     1       1.508   9.029  19.246  0.00  0.00    +0.000 A 
ATOM      5  C   UNL     1       0.527   9.389  20.183  0.00  0.00    +0.000 A 
ATOM      6  C   UNL     1       0.224   8.547  21.244  0.00  0.00    +0.000 A 
ATOM      7  C   UNL     1       0.913   7.350  21.372  0.00  0.00    +0.000 A 
ATOM      8  C   UNL     1       1.886   6.992  20.423  0.00  0.00    +0.000 A 
ATOM      9  C   UNL     1       2.454   5.632  20.491  0.00  0.00    +0.000 C 
ATOM     10  O   UNL     1       2.014   4.839  21.324  0.00  0.00    +0.000 OA
ATOM     11  N   UNL     1       3.416   5.313  19.537  0.00  0.00    +0.000 N 
ATOM     12  C   UNL     1       4.122   6.391  18.847  0.00  0.00    +0.000 C 
ENDROOT
BRANCH  11  13
ATOM     13  C   UNL     1       3.444   3.965  19.101  0.00  0.00    +0.000 A 
ATOM     14  C   UNL     1       2.518   3.558  18.129  0.00  0.00    +0.000 A 
ATOM     15  C   UNL     1       2.475   2.230  17.711  0.00  0.00    +0.000 A 
ATOM     16  C   UNL     1       3.343   1.301  18.279  0.00  0.00    +0.000 A 
ATOM     17  C   UNL     1       4.263   1.703  19.252  0.00  0.00    +0.000 A 
ATOM     18  C   UNL     1       4.322   3.038  19.659  0.00  0.00    +0.000 A 
ENDBRANCH  11  13
BRANCH  12  19
ATOM     19  C   UNL     1       5.115   5.904  17.789  0.00  0.00    +0.000 A 
ATOM     20  C   UNL     1       6.394   5.405  17.973  0.00  0.00    +0.000 A 
ATOM     21  C   UNL     1       6.997   4.961  16.764  0.00  0.00    +0.000 A 
ATOM     22  C   UNL     1       6.160   5.104  15.680  0.00  0.00    +0.000 A 
ATOM     23  S   UNL     1       4.677   5.833  16.124  0.00  0.00    +0.000 S 
BRANCH  22  24
ATOM     24  C   UNL     1       6.510   4.662  14.296  0.00  0.00    +0.000 A 
ATOM     25  C   UNL     1       5.899   3.661  13.499  0.00  0.00    +0.000 A 
ATOM     26  C   UNL     1       6.604   3.620  12.318  0.00  0.00    +0.000 A 
ATOM     27  O   UNL     1       7.607   4.537  12.335  0.00  0.00    +0.000 OA
ATOM     28  C   UNL     1       7.543   5.166  13.537  0.00  0.00    +0.000 A 
ENDBRANCH  22  24
ENDBRANCH  12  19
TORSDOF 3
ENDMDL
MODEL 2
REMARK VINA RESULT:      -7.3      2.527      7.047
REMARK  Name = 
REMARK  4 active torsions:
REMARK  status: ('A' for Active; 'I' for Inactive)
REMARK    1  A    between atoms: C_1  and  N_2
REMARK    2  A    between atoms: N_11  and  C_12
REMARK    3  A    between atoms: C_18  and  C_19
REMARK    4  A    between atoms: C_22  and  C_23
REMARK                            x       y       z     vdW  Elec       q    Type
REMARK                         _______ _______ _______ _____ _____    ______ ____
ROOT
ATOM      1  C   UNL     1       5.083   7.654  17.840  0.00  0.00    +0.000 C 
ATOM      2  N   UNL     1       4.614   6.300  17.557  0.00  0.00    +0.000 N 
ATOM      3  C   UNL     1       5.252   5.510  16.588  0.00  0.00    +0.000 A 
ATOM      4  C   UNL     1       6.443   5.876  15.938  0.00  0.00    +0.000 A 
ATOM      5  C   UNL     1       7.114   5.007  15.065  0.00  0.00    +0.000 A 
ATOM      6  C   UNL     1       6.606   3.742  14.802  0.00  0.00    +0.000 A 
ATOM      7  C   UNL     1       5.419   3.353  15.407  0.00  0.00    +0.000 A 
ATOM      8  C   UNL     1       4.760   4.227  16.288  0.00  0.00    +0.000 A 
ATOM      9  C   UNL     1       3.610   3.704  17.051  0.00  0.00    +0.000 C 
ATOM     10  O   UNL     1       3.309   2.515  16.945  0.00  0.00    +0.000 OA
ATOM     11  N   UNL     1       2.979   4.597  17.913  0.00  0.00    +0.000 N 
ATOM     12  C   UNL     1       3.157   6.034  17.708  0.00  0.00    +0.000 C 
ENDROOT
BRANCH  11  13
ATOM     13  C   UNL     1       2.434   4.044  19.099  0.00  0.00    +0.000 A 
ATOM     14  C   UNL     1       3.313   3.672  20.127  0.00  0.00    +0.000 A 
ATOM     15  C   UNL     1       2.824   3.077  21.287  0.00  0.00    +0.000 A 
ATOM     16  C   UNL     1       1.459   2.833  21.415  0.00  0.00    +0.000 A 
ATOM     17  C   UNL     1       0.582   3.198  20.389  0.00  0.00    +0.000 A 
ATOM     18  C   UNL     1       1.067   3.814  19.232  0.00  0.00    +0.000 A 
ENDBRANCH  11  13
BRANCH  12  19
ATOM     19  C   UNL     1       2.453   6.901  18.754  0.00  0.00    +0.000 A 
ATOM     20  C   UNL     1       2.370   6.704  20.122  0.00  0.00    +0.000 A 
ATOM     21  C   UNL     1       1.710   7.766  20.799  0.00  0.00    +0.000 A 
ATOM     22  C   UNL     1       1.321   8.770  19.940  0.00  0.00    +0.000 A 
ATOM     23  S   UNL     1       1.702   8.388  18.316  0.00  0.00    +0.000 S 
BRANCH  22  24
ATOM     24  C   UNL     1       0.662  10.035  20.385  0.00  0.00    +0.000 A 
ATOM     25  C   UNL     1      -0.091  10.281  21.561  0.00  0.00    +0.000 A 
ATOM     26  C   UNL     1      -0.501  11.593  21.492  0.00  0.00    +0.000 A 
ATOM     27  O   UNL     1      -0.042  12.172  20.352  0.00  0.00    +0.000 OA
ATOM     28  C   UNL     1       0.662  11.221  19.685  0.00  0.00    +0.000 A 
ENDBRANCH  22  24
ENDBRANCH  12  19
TORSDOF 3
ENDMDL
MODEL 3
REMARK VINA RESULT:      -6.9      4.615      7.852
REMARK  Name = 
REMARK  4 active torsions:
REMARK  status: ('A' for Active; 'I' for Inactive)
REMARK    1  A    between atoms: C_1  and  N_2
REMARK    2  A    between atoms: N_11  and  C_12
REMARK    3  A    between atoms: C_18  and  C_19
REMARK    4  A    between atoms: C_22  and  C_23
REMARK                            x       y       z     vdW  Elec       q    Type
REMARK                         _______ _______ _______ _____ _____    ______ ____
ROOT
ATOM      1  C   UNL     1       1.972  12.668  20.436  0.00  0.00    +0.000 C 
ATOM      2  N   UNL     1       0.512  12.658  20.469  0.00  0.00    +0.000 N 
ATOM      3  C   UNL     1      -0.192  13.611  21.220  0.00  0.00    +0.000 A 
ATOM      4  C   UNL     1       0.411  14.708  21.859  0.00  0.00    +0.000 A 
ATOM      5  C   UNL     1      -0.342  15.705  22.498  0.00  0.00    +0.000 A 
ATOM      6  C   UNL     1      -1.727  15.630  22.531  0.00  0.00    +0.000 A 
ATOM      7  C   UNL     1      -2.358  14.548  21.933  0.00  0.00    +0.000 A 
ATOM      8  C   UNL     1      -1.596  13.560  21.285  0.00  0.00    +0.000 A 
ATOM      9  C   UNL     1      -2.313  12.535  20.503  0.00  0.00    +0.000 C 
ATOM     10  O   UNL     1      -3.536  12.615  20.386  0.00  0.00    +0.000 OA
ATOM     11  N   UNL     1      -1.529  11.571  19.876  0.00  0.00    +0.000 N 
ATOM     12  C   UNL     1      -0.166  11.338  20.354  0.00  0.00    +0.000 C 
ENDROOT
BRANCH  11  13
ATOM     13  C   UNL     1      -2.011  11.078  18.638  0.00  0.00    +0.000 A 
ATOM     14  C   UNL     1      -1.918  11.904  17.508  0.00  0.00    +0.000 A 
ATOM     15  C   UNL     1      -2.427  11.480  16.284  0.00  0.00    +0.000 A 
ATOM     16  C   UNL     1      -3.049  10.238  16.189  0.00  0.00    +0.000 A 
ATOM     17  C   UNL     1      -3.148   9.415  17.315  0.00  0.00    +0.000 A 
ATOM     18  C   UNL     1      -2.620   9.829  18.540  0.00  0.00    +0.000 A 
ENDBRANCH  11  13
BRANCH  12  19
ATOM     19  C   UNL     1       0.603  10.290  19.547  0.00  0.00    +0.000 A 
ATOM     20  C   UNL     1       1.080  10.381  18.250  0.00  0.00    +0.000 A 
ATOM     21  C   UNL     1       1.834   9.243  17.854  0.00  0.00    +0.000 A 
ATOM     22  C   UNL     1       1.942   8.311  18.862  0.00  0.00    +0.000 A 
ATOM     23  S   UNL     1       1.078   8.794  20.257  0.00  0.00    +0.000 S 
BRANCH  22  24
ATOM     24  C   UNL     1       2.729   7.046  18.744  0.00  0.00    +0.000 A 
ATOM     25  C   UNL     1       3.601   6.633  17.704  0.00  0.00    +0.000 A 
ATOM     26  C   UNL     1       4.059   5.384  18.055  0.00  0.00    +0.000 A 
ATOM     27  O   UNL     1       3.530   5.004  19.247  0.00  0.00    +0.000 OA
ATOM     28  C   UNL     1       2.725   6.018  19.659  0.00  0.00    +0.000 A 
ENDBRANCH  22  24
ENDBRANCH  12  19
TORSDOF 3
ENDMDL
MODEL 4
REMARK VINA RESULT:      -6.7      2.541      5.433
REMARK  Name = 
REMARK  4 active torsions:
REMARK  status: ('A' for Active; 'I' for Inactive)
REMARK    1  A    between atoms: C_1  and  N_2
REMARK    2  A    between atoms: N_11  and  C_12
REMARK    3  A    between atoms: C_18  and  C_19
REMARK    4  A    between atoms: C_22  and  C_23
REMARK                            x       y       z     vdW  Elec       q    Type
REMARK                         _______ _______ _______ _____ _____    ______ ____
ROOT
ATOM      1  C   UNL     1       2.153   4.722  21.232  0.00  0.00    +0.000 C 
ATOM      2  N   UNL     1       2.581   5.464  20.049  0.00  0.00    +0.000 N 
ATOM      3  C   UNL     1       2.089   6.754  19.799  0.00  0.00    +0.000 A 
ATOM      4  C   UNL     1       1.293   7.479  20.701  0.00  0.00    +0.000 A 
ATOM      5  C   UNL     1       0.923   8.812  20.466  0.00  0.00    +0.000 A 
ATOM      6  C   UNL     1       1.327   9.461  19.308  0.00  0.00    +0.000 A 
ATOM      7  C   UNL     1       2.094   8.770  18.381  0.00  0.00    +0.000 A 
ATOM      8  C   UNL     1       2.469   7.439  18.630  0.00  0.00    +0.000 A 
ATOM      9  C   UNL     1       3.437   6.808  17.712  0.00  0.00    +0.000 C 
ATOM     10  O   UNL     1       3.933   7.481  16.808  0.00  0.00    +0.000 OA
ATOM     11  N   UNL     1       3.785   5.489  17.988  0.00  0.00    +0.000 N 
ATOM     12  C   UNL     1       2.903   4.678  18.827  0.00  0.00    +0.000 C 
ENDROOT
BRANCH  11  13
ATOM     13  C   UNL     1       5.112   5.110  17.666  0.00  0.00    +0.000 A 
ATOM     14  C   UNL     1       6.132   5.399  18.585  0.00  0.00    +0.000 A 
ATOM     15  C   UNL     1       7.456   5.092  18.286  0.00  0.00    +0.000 A 
ATOM     16  C   UNL     1       7.769   4.515  17.057  0.00  0.00    +0.000 A 
ATOM     17  C   UNL     1       6.755   4.231  16.137  0.00  0.00    +0.000 A 
ATOM     18  C   UNL     1       5.423   4.520  16.443  0.00  0.00    +0.000 A 
ENDBRANCH  11  13
BRANCH  12  19
ATOM     19  C   UNL     1       3.427   3.265  19.093  0.00  0.00    +0.000 A 
ATOM     20  C   UNL     1       3.347   2.149  18.277  0.00  0.00    +0.000 A 
ATOM     21  C   UNL     1       4.028   1.021  18.810  0.00  0.00    +0.000 A 
ATOM     22  C   UNL     1       4.639   1.299  20.012  0.00  0.00    +0.000 A 
ATOM     23  S   UNL     1       4.330   2.905  20.515  0.00  0.00    +0.000 S 
BRANCH  22  24
ATOM     24  C   UNL     1       5.475   0.317  20.766  0.00  0.00    +0.000 A 
ATOM     25  C   UNL     1       5.993  -0.930  20.334  0.00  0.00    +0.000 A 
ATOM     26  C   UNL     1       6.674  -1.461  21.405  0.00  0.00    +0.000 A 
ATOM     27  O   UNL     1       6.613  -0.618  22.468  0.00  0.00    +0.000 OA
ATOM     28  C   UNL     1       5.885   0.459  22.074  0.00  0.00    +0.000 A 
ENDBRANCH  22  24
ENDBRANCH  12  19
TORSDOF 3
ENDMDL
MODEL 5
REMARK VINA RESULT:      -6.7      4.718      7.930
REMARK  Name = 
REMARK  4 active torsions:
REMARK  status: ('A' for Active; 'I' for Inactive)
REMARK    1  A    between atoms: C_1  and  N_2
REMARK    2  A    between atoms: N_11  and  C_12
REMARK    3  A    between atoms: C_18  and  C_19
REMARK    4  A    between atoms: C_22  and  C_23
REMARK                            x       y       z     vdW  Elec       q    Type
REMARK                         _______ _______ _______ _____ _____    ______ ____
ROOT
ATOM      1  C   UNL     1       1.925  12.750  20.489  0.00  0.00    +0.000 C 
ATOM      2  N   UNL     1       0.465  12.763  20.518  0.00  0.00    +0.000 N 
ATOM      3  C   UNL     1      -0.227  13.728  21.265  0.00  0.00    +0.000 A 
ATOM      4  C   UNL     1       0.390  14.817  21.903  0.00  0.00    +0.000 A 
ATOM      5  C   UNL     1      -0.349  15.827  22.537  0.00  0.00    +0.000 A 
ATOM      6  C   UNL     1      -1.735  15.773  22.567  0.00  0.00    +0.000 A 
ATOM      7  C   UNL     1      -2.381  14.700  21.969  0.00  0.00    +0.000 A 
ATOM      8  C   UNL     1      -1.632  13.699  21.326  0.00  0.00    +0.000 A 
ATOM      9  C   UNL     1      -2.363  12.683  20.544  0.00  0.00    +0.000 C 
ATOM     10  O   UNL     1      -3.584  12.782  20.423  0.00  0.00    +0.000 OA
ATOM     11  N   UNL     1      -1.591  11.706  19.922  0.00  0.00    +0.000 N 
ATOM     12  C   UNL     1      -0.234  11.453  20.404  0.00  0.00    +0.000 C 
ENDROOT
BRANCH  11  13
ATOM     13  C   UNL     1      -2.077  11.217  18.683  0.00  0.00    +0.000 A 
ATOM     14  C   UNL     1      -2.678   9.949  18.655  0.00  0.00    +0.000 A 
ATOM     15  C   UNL     1      -3.121   9.408  17.451  0.00  0.00    +0.000 A 
ATOM     16  C   UNL     1      -2.947  10.123  16.269  0.00  0.00    +0.000 A 
ATOM     17  C   UNL     1      -2.344  11.385  16.294  0.00  0.00    +0.000 A 
ATOM     18  C   UNL     1      -1.916  11.938  17.503  0.00  0.00    +0.000 A 
ENDBRANCH  11  13
BRANCH  12  19
ATOM     19  C   UNL     1       0.522  10.391  19.602  0.00  0.00    +0.000 A 
ATOM     20  C   UNL     1       0.965  10.455  18.291  0.00  0.00    +0.000 A 
ATOM     21  C   UNL     1       1.716   9.313  17.902  0.00  0.00    +0.000 A 
ATOM     22  C   UNL     1       1.856   8.405  18.928  0.00  0.00    +0.000 A 
ATOM     23  S   UNL     1       1.025   8.915  20.333  0.00  0.00    +0.000 S 
BRANCH  22  24
ATOM     24  C   UNL     1       2.648   7.143  18.818  0.00  0.00    +0.000 A 
ATOM     25  C   UNL     1       2.640   6.009  19.669  0.00  0.00    +0.000 A 
ATOM     26  C   UNL     1       3.562   5.128  19.152  0.00  0.00    +0.000 A 
ATOM     27  O   UNL     1       4.134   5.645  18.033  0.00  0.00    +0.000 OA
ATOM     28  C   UNL     1       3.574   6.868  17.836  0.00  0.00    +0.000 A 
ENDBRANCH  22  24
ENDBRANCH  12  19
TORSDOF 3
ENDMDL
MODEL 6
REMARK VINA RESULT:      -6.4      9.102     13.108
REMARK  Name = 
REMARK  4 active torsions:
REMARK  status: ('A' for Active; 'I' for Inactive)
REMARK    1  A    between atoms: C_1  and  N_2
REMARK    2  A    between atoms: N_11  and  C_12
REMARK    3  A    between atoms: C_18  and  C_19
REMARK    4  A    between atoms: C_22  and  C_23
REMARK                            x       y       z     vdW  Elec       q    Type
REMARK                         _______ _______ _______ _____ _____    ______ ____
ROOT
ATOM      1  C   UNL     1      -1.465  11.175  20.210  0.00  0.00    +0.000 C 
ATOM      2  N   UNL     1      -2.670  11.535  19.468  0.00  0.00    +0.000 N 
ATOM      3  C   UNL     1      -2.832  11.139  18.132  0.00  0.00    +0.000 A 
ATOM      4  C   UNL     1      -1.957  10.268  17.460  0.00  0.00    +0.000 A 
ATOM      5  C   UNL     1      -2.220   9.801  16.164  0.00  0.00    +0.000 A 
ATOM      6  C   UNL     1      -3.365  10.201  15.488  0.00  0.00    +0.000 A 
ATOM      7  C   UNL     1      -4.241  11.080  16.110  0.00  0.00    +0.000 A 
ATOM      8  C   UNL     1      -3.975  11.534  17.413  0.00  0.00    +0.000 A 
ATOM      9  C   UNL     1      -5.023  12.312  18.103  0.00  0.00    +0.000 C 
ATOM     10  O   UNL     1      -6.110  12.478  17.549  0.00  0.00    +0.000 OA
ATOM     11  N   UNL     1      -4.725  12.747  19.391  0.00  0.00    +0.000 N 
ATOM     12  C   UNL     1      -3.328  12.825  19.814  0.00  0.00    +0.000 C 
ENDROOT
BRANCH  11  13
ATOM     13  C   UNL     1      -5.814  12.819  20.295  0.00  0.00    +0.000 A 
ATOM     14  C   UNL     1      -6.223  14.081  20.750  0.00  0.00    +0.000 A 
ATOM     15  C   UNL     1      -7.254  14.194  21.679  0.00  0.00    +0.000 A 
ATOM     16  C   UNL     1      -7.864  13.044  22.173  0.00  0.00    +0.000 A 
ATOM     17  C   UNL     1      -7.455  11.784  21.726  0.00  0.00    +0.000 A 
ATOM     18  C   UNL     1      -6.435  11.669  20.779  0.00  0.00    +0.000 A 
ENDBRANCH  11  13
BRANCH  12  19
ATOM     19  C   UNL     1      -3.144  13.269  21.267  0.00  0.00    +0.000 A 
ATOM     20  C   UNL     1      -3.497  12.597  22.425  0.00  0.00    +0.000 A 
ATOM     21  C   UNL     1      -3.089  13.273  23.607  0.00  0.00    +0.000 A 
ATOM     22  C   UNL     1      -2.408  14.439  23.334  0.00  0.00    +0.000 A 
ATOM     23  S   UNL     1      -2.324  14.735  21.651  0.00  0.00    +0.000 S 
BRANCH  22  24
ATOM     24  C   UNL     1      -1.811  15.318  24.384  0.00  0.00    +0.000 A 
ATOM     25  C   UNL     1      -0.826  16.328  24.246  0.00  0.00    +0.000 A 
ATOM     26  C   UNL     1      -0.601  16.826  25.509  0.00  0.00    +0.000 A 
ATOM     27  O   UNL     1      -1.390  16.192  26.415  0.00  0.00    +0.000 OA
ATOM     28  C   UNL     1      -2.122  15.278  25.726  0.00  0.00    +0.000 A 
ENDBRANCH  22  24
ENDBRANCH  12  19
TORSDOF 3
ENDMDL
MODEL 7
REMARK VINA RESULT:      -6.4      4.740      7.962
REMARK  Name = 
REMARK  4 active torsions:
REMARK  status: ('A' for Active; 'I' for Inactive)
REMARK    1  A    between atoms: C_1  and  N_2
REMARK    2  A    between atoms: N_11  and  C_12
REMARK    3  A    between atoms: C_18  and  C_19
REMARK    4  A    between atoms: C_22  and  C_23
REMARK                            x       y       z     vdW  Elec       q    Type
REMARK                         _______ _______ _______ _____ _____    ______ ____
ROOT
ATOM      1  C   UNL     1       2.774  12.908  18.670  0.00  0.00    +0.000 C 
ATOM      2  N   UNL     1       1.364  13.095  18.999  0.00  0.00    +0.000 N 
ATOM      3  C   UNL     1       0.901  14.327  19.486  0.00  0.00    +0.000 A 
ATOM      4  C   UNL     1       1.688  15.489  19.555  0.00  0.00    +0.000 A 
ATOM      5  C   UNL     1       1.154  16.730  19.933  0.00  0.00    +0.000 A 
ATOM      6  C   UNL     1      -0.187  16.847  20.271  0.00  0.00    +0.000 A 
ATOM      7  C   UNL     1      -0.991  15.717  20.240  0.00  0.00    +0.000 A 
ATOM      8  C   UNL     1      -0.450  14.479  19.848  0.00  0.00    +0.000 A 
ATOM      9  C   UNL     1      -1.378  13.350  19.647  0.00  0.00    +0.000 C 
ATOM     10  O   UNL     1      -2.589  13.541  19.759  0.00  0.00    +0.000 OA
ATOM     11  N   UNL     1      -0.808  12.140  19.261  0.00  0.00    +0.000 N 
ATOM     12  C   UNL     1       0.615  11.911  19.504  0.00  0.00    +0.000 C 
ENDROOT
BRANCH  11  13
ATOM     13  C   UNL     1      -1.590  11.324  18.406  0.00  0.00    +0.000 A 
ATOM     14  C   UNL     1      -1.741  11.712  17.066  0.00  0.00    +0.000 A 
ATOM     15  C   UNL     1      -2.543  10.968  16.205  0.00  0.00    +0.000 A 
ATOM     16  C   UNL     1      -3.214   9.846  16.685  0.00  0.00    +0.000 A 
ATOM     17  C   UNL     1      -3.069   9.459  18.021  0.00  0.00    +0.000 A 
ATOM     18  C   UNL     1      -2.249  10.193  18.882  0.00  0.00    +0.000 A 
ENDBRANCH  11  13
BRANCH  12  19
ATOM     19  C   UNL     1       1.123  10.564  18.987  0.00  0.00    +0.000 A 
ATOM     20  C   UNL     1       1.561  10.239  17.714  0.00  0.00    +0.000 A 
ATOM     21  C   UNL     1       2.051   8.908  17.617  0.00  0.00    +0.000 A 
ATOM     22  C   UNL     1       2.003   8.244  18.823  0.00  0.00    +0.000 A 
ATOM     23  S   UNL     1       1.308   9.218  20.046  0.00  0.00    +0.000 S 
BRANCH  22  24
ATOM     24  C   UNL     1       2.510   6.854  19.026  0.00  0.00    +0.000 A 
ATOM     25  C   UNL     1       3.390   6.098  18.212  0.00  0.00    +0.000 A 
ATOM     26  C   UNL     1       3.526   4.871  18.820  0.00  0.00    +0.000 A 
ATOM     27  O   UNL     1       2.789   4.825  19.961  0.00  0.00    +0.000 OA
ATOM     28  C   UNL     1       2.176   6.031  20.080  0.00  0.00    +0.000 A 
ENDBRANCH  22  24
ENDBRANCH  12  19
TORSDOF 3
ENDMDL
MODEL 8
REMARK VINA RESULT:      -6.4      8.244     10.364
REMARK  Name = 
REMARK  4 active torsions:
REMARK  status: ('A' for Active; 'I' for Inactive)
REMARK    1  A    between atoms: C_1  and  N_2
REMARK    2  A    between atoms: N_11  and  C_12
REMARK    3  A    between atoms: C_18  and  C_19
REMARK    4  A    between atoms: C_22  and  C_23
REMARK                            x       y       z     vdW  Elec       q    Type
REMARK                         _______ _______ _______ _____ _____    ______ ____
ROOT
ATOM      1  C   UNL     1      -6.367  10.451  19.082  0.00  0.00    +0.000 C 
ATOM      2  N   UNL     1      -5.493  11.415  19.746  0.00  0.00    +0.000 N 
ATOM      3  C   UNL     1      -5.957  12.168  20.835  0.00  0.00    +0.000 A 
ATOM      4  C   UNL     1      -7.200  11.964  21.458  0.00  0.00    +0.000 A 
ATOM      5  C   UNL     1      -7.574  12.655  22.620  0.00  0.00    +0.000 A 
ATOM      6  C   UNL     1      -6.720  13.589  23.191  0.00  0.00    +0.000 A 
ATOM      7  C   UNL     1      -5.494  13.836  22.591  0.00  0.00    +0.000 A 
ATOM      8  C   UNL     1      -5.122  13.130  21.433  0.00  0.00    +0.000 A 
ATOM      9  C   UNL     1      -3.740  13.286  20.941  0.00  0.00    +0.000 C 
ATOM     10  O   UNL     1      -2.945  13.966  21.589  0.00  0.00    +0.000 OA
ATOM     11  N   UNL     1      -3.407  12.574  19.792  0.00  0.00    +0.000 N 
ATOM     12  C   UNL     1      -4.473  12.104  18.909  0.00  0.00    +0.000 C 
ENDROOT
BRANCH  11  13
ATOM     13  C   UNL     1      -2.069  12.114  19.706  0.00  0.00    +0.000 A 
ATOM     14  C   UNL     1      -1.208  12.733  18.787  0.00  0.00    +0.000 A 
ATOM     15  C   UNL     1       0.099  12.277  18.632  0.00  0.00    +0.000 A 
ATOM     16  C   UNL     1       0.542  11.189  19.379  0.00  0.00    +0.000 A 
ATOM     17  C   UNL     1      -0.315  10.568  20.292  0.00  0.00    +0.000 A 
ATOM     18  C   UNL     1      -1.620  11.035  20.464  0.00  0.00    +0.000 A 
ENDBRANCH  11  13
BRANCH  12  19
ATOM     19  C   UNL     1      -3.973  11.293  17.711  0.00  0.00    +0.000 A 
ATOM     20  C   UNL     1      -3.247  10.114  17.712  0.00  0.00    +0.000 A 
ATOM     21  C   UNL     1      -3.035   9.591  16.407  0.00  0.00    +0.000 A 
ATOM     22  C   UNL     1      -3.623  10.365  15.431  0.00  0.00    +0.000 A 
ATOM     23  S   UNL     1      -4.372  11.751  16.099  0.00  0.00    +0.000 S 
BRANCH  22  24
ATOM     24  C   UNL     1      -3.612  10.020  13.978  0.00  0.00    +0.000 A 
ATOM     25  C   UNL     1      -4.674  10.077  13.040  0.00  0.00    +0.000 A 
ATOM     26  C   UNL     1      -4.160   9.635  11.843  0.00  0.00    +0.000 A 
ATOM     27  O   UNL     1      -2.846   9.316  11.982  0.00  0.00    +0.000 OA
ATOM     28  C   UNL     1      -2.520   9.552  13.279  0.00  0.00    +0.000 A 
ENDBRANCH  22  24
ENDBRANCH  12  19
TORSDOF 3
ENDMDL
MODEL 9
REMARK VINA RESULT:      -6.2      5.980      9.839
REMARK  Name = 
REMARK  4 active torsions:
REMARK  status: ('A' for Active; 'I' for Inactive)
REMARK    1  A    between atoms: C_1  and  N_2
REMARK    2  A    between atoms: N_11  and  C_12
REMARK    3  A    between atoms: C_18  and  C_19
REMARK    4  A    between atoms: C_22  and  C_23
REMARK                            x       y       z     vdW  Elec       q    Type
REMARK                         _______ _______ _______ _____ _____    ______ ____
ROOT
ATOM      1  C   UNL     1      -1.868  11.703  22.972  0.00  0.00    +0.000 C 
ATOM      2  N   UNL     1      -1.464  13.046  22.562  0.00  0.00    +0.000 N 
ATOM      3  C   UNL     1      -1.879  14.171  23.290  0.00  0.00    +0.000 A 
ATOM      4  C   UNL     1      -2.564  14.104  24.515  0.00  0.00    +0.000 A 
ATOM      5  C   UNL     1      -2.854  15.249  25.271  0.00  0.00    +0.000 A 
ATOM      6  C   UNL     1      -2.479  16.506  24.818  0.00  0.00    +0.000 A 
ATOM      7  C   UNL     1      -1.822  16.615  23.601  0.00  0.00    +0.000 A 
ATOM      8  C   UNL     1      -1.526  15.461  22.855  0.00  0.00    +0.000 A 
ATOM      9  C   UNL     1      -0.664  15.607  21.667  0.00  0.00    +0.000 C 
ATOM     10  O   UNL     1      -0.180  16.709  21.407  0.00  0.00    +0.000 OA
ATOM     11  N   UNL     1      -0.392  14.444  20.951  0.00  0.00    +0.000 N 
ATOM     12  C   UNL     1      -1.274  13.288  21.105  0.00  0.00    +0.000 C 
ENDROOT
BRANCH  11  13
ATOM     13  C   UNL     1       0.882  14.370  20.335  0.00  0.00    +0.000 A 
ATOM     14  C   UNL     1       2.010  14.201  21.152  0.00  0.00    +0.000 A 
ATOM     15  C   UNL     1       3.285  14.176  20.593  0.00  0.00    +0.000 A 
ATOM     16  C   UNL     1       3.439  14.342  19.220  0.00  0.00    +0.000 A 
ATOM     17  C   UNL     1       2.317  14.516  18.404  0.00  0.00    +0.000 A 
ATOM     18  C   UNL     1       1.035  14.522  18.959  0.00  0.00    +0.000 A 
ENDBRANCH  11  13
BRANCH  12  19
ATOM     19  C   UNL     1      -0.835  12.061  20.303  0.00  0.00    +0.000 A 
ATOM     20  C   UNL     1      -1.299  11.625  19.073  0.00  0.00    +0.000 A 
ATOM     21  C   UNL     1      -0.593  10.492  18.583  0.00  0.00    +0.000 A 
ATOM     22  C   UNL     1       0.415  10.096  19.433  0.00  0.00    +0.000 A 
ATOM     23  S   UNL     1       0.458  11.060  20.846  0.00  0.00    +0.000 S 
BRANCH  22  24
ATOM     24  C   UNL     1       1.355   8.973  19.140  0.00  0.00    +0.000 A 
ATOM     25  C   UNL     1       2.003   8.648  17.921  0.00  0.00    +0.000 A 
ATOM     26  C   UNL     1       2.743   7.513  18.165  0.00  0.00    +0.000 A 
ATOM     27  O   UNL     1       2.596   7.122  19.458  0.00  0.00    +0.000 OA
ATOM     28  C   UNL     1       1.754   8.012  20.043  0.00  0.00    +0.000 A 
ENDBRANCH  22  24
ENDBRANCH  12  19
TORSDOF 3
ENDMDL
