MODEL 1
REMARK VINA RESULT:      -3.9      0.000      0.000
REMARK  Name = 
REMARK  4 active torsions:
REMARK  status: ('A' for Active; 'I' for Inactive)
REMARK    1  A    between atoms: C_2  and  C_3
REMARK    2  A    between atoms: C_3  and  N_4
REMARK    3  A    between atoms: C_5  and  N_6
REMARK    4  A    between atoms: C_5  and  C_7
REMARK                            x       y       z     vdW  Elec       q    Type
REMARK                         _______ _______ _______ _____ _____    ______ ____
ROOT
ATOM      1  C   UNL     1       3.666   2.792  18.536  0.00  0.00    +0.000 C 
ATOM      2  C   UNL     1       3.939   2.464  19.828  0.00  0.00    +0.000 C 
ENDROOT
BRANCH   1   3
ATOM      3  N   UNL     1       4.516   2.640  17.465  0.00  0.00    +0.000 N 
ATOM      4  H   UNL     1       4.174   2.790  16.520  0.00  0.00    +0.000 HD
ATOM      5  H   UNL     1       5.481   2.380  17.610  0.00  0.00    +0.000 HD
ENDBRANCH   1   3
BRANCH   2   6
ATOM      6  N   UNL     1       5.115   1.923  20.294  0.00  0.00    +0.000 N 
ATOM      7  H   UNL     1       5.192   1.617  21.254  0.00  0.00    +0.000 HD
ATOM      8  H   UNL     1       5.913   1.830  19.673  0.00  0.00    +0.000 HD
ENDBRANCH   2   6
BRANCH   1  10
ATOM      9  N   UNL     1       1.193   3.876  17.869  0.00  0.00    +0.000 NA
ATOM     10  C   UNL     1       2.314   3.384  18.171  0.00  0.00    +0.000 C 
ENDBRANCH   1  10
BRANCH   2  11
ATOM     11  C   UNL     1       2.893   2.690  20.907  0.00  0.00    +0.000 C 
ATOM     12  N   UNL     1       2.026   2.877  21.803  0.00  0.00    +0.000 NA
ENDBRANCH   2  11
TORSDOF 4
ENDMDL
MODEL 2
REMARK VINA RESULT:      -3.9      1.015      3.007
REMARK  Name = 
REMARK  4 active torsions:
REMARK  status: ('A' for Active; 'I' for Inactive)
REMARK    1  A    between atoms: C_2  and  C_3
REMARK    2  A    between atoms: C_3  and  N_4
REMARK    3  A    between atoms: C_5  and  N_6
REMARK    4  A    between atoms: C_5  and  C_7
REMARK                            x       y       z     vdW  Elec       q    Type
REMARK                         _______ _______ _______ _____ _____    ______ ____
ROOT
ATOM      1  C   UNL     1       3.744   2.272  20.013  0.00  0.00    +0.000 C 
ATOM      2  C   UNL     1       3.166   2.032  18.806  0.00  0.00    +0.000 C 
ENDROOT
BRANCH   1   3
ATOM      3  N   UNL     1       5.083   2.159  20.307  0.00  0.00    +0.000 N 
ATOM      4  H   UNL     1       5.393   2.156  21.274  0.00  0.00    +0.000 HD
ATOM      5  H   UNL     1       5.764   2.077  19.565  0.00  0.00    +0.000 HD
ENDBRANCH   1   3
BRANCH   2   6
ATOM      6  N   UNL     1       3.816   1.632  17.662  0.00  0.00    +0.000 N 
ATOM      7  H   UNL     1       3.695   2.143  16.799  0.00  0.00    +0.000 HD
ATOM      8  H   UNL     1       4.424   0.818  17.681  0.00  0.00    +0.000 HD
ENDBRANCH   2   6
BRANCH   1  10
ATOM      9  N   UNL     1       2.181   3.074  22.169  0.00  0.00    +0.000 NA
ATOM     10  C   UNL     1       2.890   2.711  21.192  0.00  0.00    +0.000 C 
ENDBRANCH   1  10
BRANCH   2  11
ATOM     11  C   UNL     1       1.665   2.202  18.634  0.00  0.00    +0.000 C 
ATOM     12  N   UNL     1       0.420   2.345  18.492  0.00  0.00    +0.000 NA
ENDBRANCH   2  11
TORSDOF 4
ENDMDL
MODEL 3
REMARK VINA RESULT:      -3.9      1.099      1.099
REMARK  Name = 
REMARK  4 active torsions:
REMARK  status: ('A' for Active; 'I' for Inactive)
REMARK    1  A    between atoms: C_2  and  C_3
REMARK    2  A    between atoms: C_3  and  N_4
REMARK    3  A    between atoms: C_5  and  N_6
REMARK    4  A    between atoms: C_5  and  C_7
REMARK                            x       y       z     vdW  Elec       q    Type
REMARK                         _______ _______ _______ _____ _____    ______ ____
ROOT
ATOM      1  C   UNL     1       3.094   1.918  18.826  0.00  0.00    +0.000 C 
ATOM      2  C   UNL     1       3.700   2.207  20.010  0.00  0.00    +0.000 C 
ENDROOT
BRANCH   1   3
ATOM      3  N   UNL     1       3.710   1.419  17.703  0.00  0.00    +0.000 N 
ATOM      4  H   UNL     1       3.382   1.691  16.780  0.00  0.00    +0.000 HD
ATOM      5  H   UNL     1       4.489   0.781  17.786  0.00  0.00    +0.000 HD
ENDBRANCH   1   3
BRANCH   2   6
ATOM      6  N   UNL     1       5.037   2.052  20.294  0.00  0.00    +0.000 N 
ATOM      7  H   UNL     1       5.565   1.298  19.878  0.00  0.00    +0.000 HD
ATOM      8  H   UNL     1       5.500   2.697  20.927  0.00  0.00    +0.000 HD
ENDBRANCH   2   6
BRANCH   1  10
ATOM      9  N   UNL     1       0.361   2.331  18.526  0.00  0.00    +0.000 NA
ATOM     10  C   UNL     1       1.600   2.144  18.662  0.00  0.00    +0.000 C 
ENDBRANCH   1  10
BRANCH   2  11
ATOM     11  C   UNL     1       2.882   2.755  21.168  0.00  0.00    +0.000 C 
ATOM     12  N   UNL     1       2.204   3.209  22.129  0.00  0.00    +0.000 NA
ENDBRANCH   2  11
TORSDOF 4
ENDMDL
MODEL 4
REMARK VINA RESULT:      -3.9      0.385      3.023
REMARK  Name = 
REMARK  4 active torsions:
REMARK  status: ('A' for Active; 'I' for Inactive)
REMARK    1  A    between atoms: C_2  and  C_3
REMARK    2  A    between atoms: C_3  and  N_4
REMARK    3  A    between atoms: C_5  and  N_6
REMARK    4  A    between atoms: C_5  and  C_7
REMARK                            x       y       z     vdW  Elec       q    Type
REMARK                         _______ _______ _______ _____ _____    ______ ____
ROOT
ATOM      1  C   UNL     1       3.885   2.598  19.580  0.00  0.00    +0.000 C 
ATOM      2  C   UNL     1       3.721   3.033  18.302  0.00  0.00    +0.000 C 
ENDROOT
BRANCH   1   3
ATOM      3  N   UNL     1       5.034   2.062  20.112  0.00  0.00    +0.000 N 
ATOM      4  H   UNL     1       5.841   1.896  19.516  0.00  0.00    +0.000 HD
ATOM      5  H   UNL     1       5.085   1.831  21.094  0.00  0.00    +0.000 HD
ENDBRANCH   1   3
BRANCH   2   6
ATOM      6  N   UNL     1       4.676   3.013  17.311  0.00  0.00    +0.000 N 
ATOM      7  H   UNL     1       4.658   3.699  16.570  0.00  0.00    +0.000 HD
ATOM      8  H   UNL     1       5.405   2.306  17.323  0.00  0.00    +0.000 HD
ENDBRANCH   2   6
BRANCH   1  10
ATOM      9  N   UNL     1       1.774   2.757  21.384  0.00  0.00    +0.000 NA
ATOM     10  C   UNL     1       2.731   2.685  20.566  0.00  0.00    +0.000 C 
ENDBRANCH   1  10
BRANCH   2  11
ATOM     11  C   UNL     1       2.385   3.606  17.859  0.00  0.00    +0.000 C 
ATOM     12  N   UNL     1       1.276   4.080  17.491  0.00  0.00    +0.000 NA
ENDBRANCH   2  11
TORSDOF 4
ENDMDL
MODEL 5
REMARK VINA RESULT:      -3.9      1.913      1.930
REMARK  Name = 
REMARK  4 active torsions:
REMARK  status: ('A' for Active; 'I' for Inactive)
REMARK    1  A    between atoms: C_2  and  C_3
REMARK    2  A    between atoms: C_3  and  N_4
REMARK    3  A    between atoms: C_5  and  N_6
REMARK    4  A    between atoms: C_5  and  C_7
REMARK                            x       y       z     vdW  Elec       q    Type
REMARK                         _______ _______ _______ _____ _____    ______ ____
ROOT
ATOM      1  C   UNL     1       3.306   2.121  18.733  0.00  0.00    +0.000 C 
ATOM      2  C   UNL     1       4.008   3.193  19.188  0.00  0.00    +0.000 C 
ENDROOT
BRANCH   1   3
ATOM      3  N   UNL     1       3.836   0.919  18.327  0.00  0.00    +0.000 N 
ATOM      4  H   UNL     1       4.818   0.716  18.489  0.00  0.00    +0.000 HD
ATOM      5  H   UNL     1       3.255   0.232  17.867  0.00  0.00    +0.000 HD
ENDBRANCH   1   3
BRANCH   2   6
ATOM      6  N   UNL     1       5.375   3.267  19.324  0.00  0.00    +0.000 N 
ATOM      7  H   UNL     1       5.973   3.226  18.511  0.00  0.00    +0.000 HD
ATOM      8  H   UNL     1       5.790   3.363  20.246  0.00  0.00    +0.000 HD
ENDBRANCH   2   6
BRANCH   1  10
ATOM      9  N   UNL     1       0.533   2.246  18.562  0.00  0.00    +0.000 NA
ATOM     10  C   UNL     1       1.790   2.189  18.640  0.00  0.00    +0.000 C 
ENDBRANCH   1  10
BRANCH   2  11
ATOM     11  C   UNL     1       3.278   4.460  19.605  0.00  0.00    +0.000 C 
ATOM     12  N   UNL     1       2.674   5.510  19.950  0.00  0.00    +0.000 NA
ENDBRANCH   2  11
TORSDOF 4
ENDMDL
MODEL 6
REMARK VINA RESULT:      -3.8      1.997      2.383
REMARK  Name = 
REMARK  4 active torsions:
REMARK  status: ('A' for Active; 'I' for Inactive)
REMARK    1  A    between atoms: C_2  and  C_3
REMARK    2  A    between atoms: C_3  and  N_4
REMARK    3  A    between atoms: C_5  and  N_6
REMARK    4  A    between atoms: C_5  and  C_7
REMARK                            x       y       z     vdW  Elec       q    Type
REMARK                         _______ _______ _______ _____ _____    ______ ____
ROOT
ATOM      1  C   UNL     1       4.150   3.284  19.083  0.00  0.00    +0.000 C 
ATOM      2  C   UNL     1       3.448   2.184  18.700  0.00  0.00    +0.000 C 
ENDROOT
BRANCH   1   3
ATOM      3  N   UNL     1       5.517   3.369  19.208  0.00  0.00    +0.000 N 
ATOM      4  H   UNL     1       6.117   2.797  18.620  0.00  0.00    +0.000 HD
ATOM      5  H   UNL     1       5.932   3.997  19.882  0.00  0.00    +0.000 HD
ENDBRANCH   1   3
BRANCH   2   6
ATOM      6  N   UNL     1       3.978   0.959  18.370  0.00  0.00    +0.000 N 
ATOM      7  H   UNL     1       3.896   0.178  19.005  0.00  0.00    +0.000 HD
ATOM      8  H   UNL     1       4.457   0.835  17.482  0.00  0.00    +0.000 HD
ENDBRANCH   2   6
BRANCH   1  10
ATOM      9  N   UNL     1       2.813   5.645  19.695  0.00  0.00    +0.000 NA
ATOM     10  C   UNL     1       3.420   4.575  19.418  0.00  0.00    +0.000 C 
ENDBRANCH   1  10
BRANCH   2  11
ATOM     11  C   UNL     1       1.931   2.245  18.606  0.00  0.00    +0.000 C 
ATOM     12  N   UNL     1       0.674   2.297  18.528  0.00  0.00    +0.000 NA
ENDBRANCH   2  11
TORSDOF 4
ENDMDL
MODEL 7
REMARK VINA RESULT:      -3.8      3.906      4.631
REMARK  Name = 
REMARK  4 active torsions:
REMARK  status: ('A' for Active; 'I' for Inactive)
REMARK    1  A    between atoms: C_2  and  C_3
REMARK    2  A    between atoms: C_3  and  N_4
REMARK    3  A    between atoms: C_5  and  N_6
REMARK    4  A    between atoms: C_5  and  C_7
REMARK                            x       y       z     vdW  Elec       q    Type
REMARK                         _______ _______ _______ _____ _____    ______ ____
ROOT
ATOM      1  C   UNL     1       6.914   5.026  17.962  0.00  0.00    +0.000 C 
ATOM      2  C   UNL     1       5.710   4.626  18.452  0.00  0.00    +0.000 C 
ENDROOT
BRANCH   1   3
ATOM      3  N   UNL     1       8.049   4.254  17.874  0.00  0.00    +0.000 N 
ATOM      4  H   UNL     1       8.195   3.656  17.065  0.00  0.00    +0.000 HD
ATOM      5  H   UNL     1       8.742   4.275  18.609  0.00  0.00    +0.000 HD
ENDBRANCH   1   3
BRANCH   2   6
ATOM      6  N   UNL     1       5.411   3.378  18.947  0.00  0.00    +0.000 N 
ATOM      7  H   UNL     1       4.902   2.712  18.384  0.00  0.00    +0.000 HD
ATOM      8  H   UNL     1       5.703   3.121  19.886  0.00  0.00    +0.000 HD
ENDBRANCH   2   6
BRANCH   1  10
ATOM      9  N   UNL     1       7.240   7.622  17.020  0.00  0.00    +0.000 NA
ATOM     10  C   UNL     1       7.092   6.445  17.447  0.00  0.00    +0.000 C 
ENDBRANCH   1  10
BRANCH   2  11
ATOM     11  C   UNL     1       4.541   5.598  18.484  0.00  0.00    +0.000 C 
ATOM     12  N   UNL     1       3.572   6.404  18.511  0.00  0.00    +0.000 NA
ENDBRANCH   2  11
TORSDOF 4
ENDMDL
MODEL 8
REMARK VINA RESULT:      -3.8      3.925      4.873
REMARK  Name = 
REMARK  4 active torsions:
REMARK  status: ('A' for Active; 'I' for Inactive)
REMARK    1  A    between atoms: C_2  and  C_3
REMARK    2  A    between atoms: C_3  and  N_4
REMARK    3  A    between atoms: C_5  and  N_6
REMARK    4  A    between atoms: C_5  and  C_7
REMARK                            x       y       z     vdW  Elec       q    Type
REMARK                         _______ _______ _______ _____ _____    ______ ____
ROOT
ATOM      1  C   UNL     1       5.714   4.641  18.417  0.00  0.00    +0.000 C 
ATOM      2  C   UNL     1       6.928   5.038  17.946  0.00  0.00    +0.000 C 
ENDROOT
BRANCH   1   3
ATOM      3  N   UNL     1       5.402   3.392  18.900  0.00  0.00    +0.000 N 
ATOM      4  H   UNL     1       6.032   2.925  19.545  0.00  0.00    +0.000 HD
ATOM      5  H   UNL     1       4.547   2.933  18.618  0.00  0.00    +0.000 HD
ENDBRANCH   1   3
BRANCH   2   6
ATOM      6  N   UNL     1       8.060   4.260  17.870  0.00  0.00    +0.000 N 
ATOM      7  H   UNL     1       8.873   4.587  17.368  0.00  0.00    +0.000 HD
ATOM      8  H   UNL     1       8.081   3.349  18.319  0.00  0.00    +0.000 HD
ENDBRANCH   2   6
BRANCH   1  10
ATOM      9  N   UNL     1       3.587   6.432  18.458  0.00  0.00    +0.000 NA
ATOM     10  C   UNL     1       4.552   5.620  18.439  0.00  0.00    +0.000 C 
ENDBRANCH   1  10
BRANCH   2  11
ATOM     11  C   UNL     1       7.121   6.460  17.444  0.00  0.00    +0.000 C 
ATOM     12  N   UNL     1       7.281   7.638  17.027  0.00  0.00    +0.000 NA
ENDBRANCH   2  11
TORSDOF 4
ENDMDL
MODEL 9
REMARK VINA RESULT:      -3.8      1.634      2.945
REMARK  Name = 
REMARK  4 active torsions:
REMARK  status: ('A' for Active; 'I' for Inactive)
REMARK    1  A    between atoms: C_2  and  C_3
REMARK    2  A    between atoms: C_3  and  N_4
REMARK    3  A    between atoms: C_5  and  N_6
REMARK    4  A    between atoms: C_5  and  C_7
REMARK                            x       y       z     vdW  Elec       q    Type
REMARK                         _______ _______ _______ _____ _____    ______ ____
ROOT
ATOM      1  C   UNL     1       4.334   2.731  19.704  0.00  0.00    +0.000 C 
ATOM      2  C   UNL     1       4.766   3.759  18.925  0.00  0.00    +0.000 C 
ENDROOT
BRANCH   1   3
ATOM      3  N   UNL     1       5.119   1.741  20.246  0.00  0.00    +0.000 N 
ATOM      4  H   UNL     1       5.985   1.981  20.718  0.00  0.00    +0.000 HD
ATOM      5  H   UNL     1       4.840   0.772  20.178  0.00  0.00    +0.000 HD
ENDBRANCH   1   3
BRANCH   2   6
ATOM      6  N   UNL     1       6.066   3.992  18.539  0.00  0.00    +0.000 N 
ATOM      7  H   UNL     1       6.366   3.783  17.598  0.00  0.00    +0.000 HD
ATOM      8  H   UNL     1       6.732   4.376  19.203  0.00  0.00    +0.000 HD
ENDBRANCH   2   6
BRANCH   1  10
ATOM      9  N   UNL     1       1.634   2.503  20.332  0.00  0.00    +0.000 NA
ATOM     10  C   UNL     1       2.858   2.606  20.048  0.00  0.00    +0.000 C 
ENDBRANCH   1  10
BRANCH   2  11
ATOM     11  C   UNL     1       3.774   4.784  18.399  0.00  0.00    +0.000 C 
ATOM     12  N   UNL     1       2.952   5.634  17.962  0.00  0.00    +0.000 NA
ENDBRANCH   2  11
TORSDOF 4
ENDMDL
