MODEL 1
REMARK VINA RESULT:      -7.6      0.000      0.000
REMARK  Name = 
REMARK  10 active torsions:
REMARK  status: ('A' for Active; 'I' for Inactive)
REMARK    1  A    between atoms: C_1  and  O_2
REMARK    2  A    between atoms: O_2  and  C_3
REMARK    3  A    between atoms: C_3  and  C_5
REMARK    4  A    between atoms: C_5  and  C_7
REMARK    5  A    between atoms: C_7  and  C_8
REMARK    6  A    between atoms: C_11  and  O_12
REMARK    7  A    between atoms: O_12  and  C_13
REMARK    8  A    between atoms: C_13  and  C_14
REMARK    9  A    between atoms: C_14  and  N_15
REMARK   10  A    between atoms: N_15  and  C_16
REMARK                            x       y       z     vdW  Elec       q    Type
REMARK                         _______ _______ _______ _____ _____    ______ ____
ROOT
ATOM      1  O   UNL     1       3.353   5.469  18.524  0.00  0.00    +0.000 OA
ENDROOT
BRANCH   1   5
ATOM      2  C   UNL     1       1.580   9.172  19.363  0.00  0.00    +0.000 A 
ATOM      3  C   UNL     1       2.091   8.932  18.084  0.00  0.00    +0.000 A 
ATOM      4  C   UNL     1       2.650   7.693  17.762  0.00  0.00    +0.000 A 
ATOM      5  C   UNL     1       2.747   6.685  18.723  0.00  0.00    +0.000 A 
ATOM      6  C   UNL     1       2.204   6.904  19.991  0.00  0.00    +0.000 A 
ATOM      7  C   UNL     1       1.629   8.141  20.310  0.00  0.00    +0.000 A 
BRANCH   2   8
ATOM      8  C   UNL     1       1.017  10.529  19.725  0.00  0.00    +0.000 C 
BRANCH   8   9
ATOM      9  C   UNL     1      -0.259  10.458  20.556  0.00  0.00    +0.000 C 
ATOM     10 BR   UNL     1      -1.634  11.596  19.746  0.00  0.00    +0.000 Br
BRANCH   9  11
ATOM     11  C   UNL     1      -0.057  10.967  21.962  0.00  0.00    +0.000 C 
ATOM     12  O   UNL     1       0.094  10.270  22.960  0.00  0.00    +0.000 OA
BRANCH  11  14
ATOM     13  C   UNL     1      -0.999  12.902  22.904  0.00  0.00    +0.000 C 
ATOM     14  O   UNL     1      -0.081  12.336  21.967  0.00  0.00    +0.000 OA
ENDBRANCH  11  14
ENDBRANCH   9  11
ENDBRANCH   8   9
ENDBRANCH   2   8
ENDBRANCH   1   5
BRANCH   1  15
ATOM     15  C   UNL     1       4.506   5.247  19.351  0.00  0.00    +0.000 C 
BRANCH  15  16
ATOM     16  C   UNL     1       5.611   4.482  18.604  0.00  0.00    +0.000 C 
BRANCH  16  17
ATOM     17  N   UNL     1       6.431   5.312  17.709  0.00  0.00    +0.000 N 
ATOM     18  C   UNL     1       7.729   5.724  18.233  0.00  0.00    +0.000 C 
ATOM     19  C   UNL     1       6.400   5.011  16.384  0.00  0.00    +0.000 A 
ATOM     20  N   UNL     1       5.646   4.131  15.757  0.00  0.00    +0.000 NA
ATOM     21  C   UNL     1       6.101   4.158  14.468  0.00  0.00    +0.000 A 
ATOM     22  C   UNL     1       5.729   3.413  13.343  0.00  0.00    +0.000 A 
ATOM     23  C   UNL     1       6.431   3.628  12.147  0.00  0.00    +0.000 A 
ATOM     24  C   UNL     1       7.459   4.578  12.071  0.00  0.00    +0.000 A 
ATOM     25  C   UNL     1       7.826   5.348  13.182  0.00  0.00    +0.000 A 
ATOM     26  C   UNL     1       7.120   5.087  14.349  0.00  0.00    +0.000 A 
ATOM     27  O   UNL     1       7.307   5.652  15.575  0.00  0.00    +0.000 OA
ENDBRANCH  16  17
ENDBRANCH  15  16
ENDBRANCH   1  15
TORSDOF 8
ENDMDL
MODEL 2
REMARK VINA RESULT:      -7.5      1.307      1.632
REMARK  Name = 
REMARK  10 active torsions:
REMARK  status: ('A' for Active; 'I' for Inactive)
REMARK    1  A    between atoms: C_1  and  O_2
REMARK    2  A    between atoms: O_2  and  C_3
REMARK    3  A    between atoms: C_3  and  C_5
REMARK    4  A    between atoms: C_5  and  C_7
REMARK    5  A    between atoms: C_7  and  C_8
REMARK    6  A    between atoms: C_11  and  O_12
REMARK    7  A    between atoms: O_12  and  C_13
REMARK    8  A    between atoms: C_13  and  C_14
REMARK    9  A    between atoms: C_14  and  N_15
REMARK   10  A    between atoms: N_15  and  C_16
REMARK                            x       y       z     vdW  Elec       q    Type
REMARK                         _______ _______ _______ _____ _____    ______ ____
ROOT
ATOM      1  O   UNL     1       3.288   4.901  19.526  0.00  0.00    +0.000 OA
ENDROOT
BRANCH   1   5
ATOM      2  C   UNL     1       1.785   8.733  18.742  0.00  0.00    +0.000 A 
ATOM      3  C   UNL     1       1.537   8.141  19.984  0.00  0.00    +0.000 A 
ATOM      4  C   UNL     1       2.060   6.883  20.290  0.00  0.00    +0.000 A 
ATOM      5  C   UNL     1       2.805   6.174  19.346  0.00  0.00    +0.000 A 
ATOM      6  C   UNL     1       3.090   6.775  18.119  0.00  0.00    +0.000 A 
ATOM      7  C   UNL     1       2.578   8.043  17.816  0.00  0.00    +0.000 A 
BRANCH   2   8
ATOM      8  C   UNL     1       1.179  10.075  18.394  0.00  0.00    +0.000 C 
BRANCH   8   9
ATOM      9  C   UNL     1      -0.128  10.362  19.122  0.00  0.00    +0.000 C 
ATOM     10 BR   UNL     1      -1.612  10.342  17.840  0.00  0.00    +0.000 Br
BRANCH   9  11
ATOM     11  C   UNL     1      -0.139  11.726  19.766  0.00  0.00    +0.000 C 
ATOM     12  O   UNL     1      -1.109  12.258  20.297  0.00  0.00    +0.000 OA
BRANCH  11  14
ATOM     13  C   UNL     1       1.443  13.159  20.747  0.00  0.00    +0.000 C 
ATOM     14  O   UNL     1       1.100  12.299  19.660  0.00  0.00    +0.000 OA
ENDBRANCH  11  14
ENDBRANCH   9  11
ENDBRANCH   8   9
ENDBRANCH   2   8
ENDBRANCH   1   5
BRANCH   1  15
ATOM     15  C   UNL     1       4.720   4.824  19.608  0.00  0.00    +0.000 C 
BRANCH  15  16
ATOM     16  C   UNL     1       5.331   4.152  18.367  0.00  0.00    +0.000 C 
BRANCH  16  17
ATOM     17  N   UNL     1       6.207   5.024  17.569  0.00  0.00    +0.000 N 
ATOM     18  C   UNL     1       7.474   5.394  18.190  0.00  0.00    +0.000 C 
ATOM     19  C   UNL     1       6.251   4.799  16.229  0.00  0.00    +0.000 A 
ATOM     20  N   UNL     1       5.529   3.962  15.510  0.00  0.00    +0.000 NA
ATOM     21  C   UNL     1       6.059   4.059  14.254  0.00  0.00    +0.000 A 
ATOM     22  C   UNL     1       5.749   3.382  13.068  0.00  0.00    +0.000 A 
ATOM     23  C   UNL     1       6.520   3.657  11.929  0.00  0.00    +0.000 A 
ATOM     24  C   UNL     1       7.556   4.600  11.967  0.00  0.00    +0.000 A 
ATOM     25  C   UNL     1       7.862   5.303  13.140  0.00  0.00    +0.000 A 
ATOM     26  C   UNL     1       7.089   4.983  14.247  0.00  0.00    +0.000 A 
ATOM     27  O   UNL     1       7.207   5.476  15.512  0.00  0.00    +0.000 OA
ENDBRANCH  16  17
ENDBRANCH  15  16
ENDBRANCH   1  15
TORSDOF 8
ENDMDL
MODEL 3
REMARK VINA RESULT:      -7.5      1.448      1.858
REMARK  Name = 
REMARK  10 active torsions:
REMARK  status: ('A' for Active; 'I' for Inactive)
REMARK    1  A    between atoms: C_1  and  O_2
REMARK    2  A    between atoms: O_2  and  C_3
REMARK    3  A    between atoms: C_3  and  C_5
REMARK    4  A    between atoms: C_5  and  C_7
REMARK    5  A    between atoms: C_7  and  C_8
REMARK    6  A    between atoms: C_11  and  O_12
REMARK    7  A    between atoms: O_12  and  C_13
REMARK    8  A    between atoms: C_13  and  C_14
REMARK    9  A    between atoms: C_14  and  N_15
REMARK   10  A    between atoms: N_15  and  C_16
REMARK                            x       y       z     vdW  Elec       q    Type
REMARK                         _______ _______ _______ _____ _____    ______ ____
ROOT
ATOM      1  O   UNL     1       3.207   6.065  19.462  0.00  0.00    +0.000 OA
ENDROOT
BRANCH   1   5
ATOM      2  C   UNL     1       1.027   9.594  18.870  0.00  0.00    +0.000 A 
ATOM      3  C   UNL     1       0.964   8.951  20.109  0.00  0.00    +0.000 A 
ATOM      4  C   UNL     1       1.712   7.796  20.350  0.00  0.00    +0.000 A 
ATOM      5  C   UNL     1       2.504   7.239  19.345  0.00  0.00    +0.000 A 
ATOM      6  C   UNL     1       2.603   7.897  18.118  0.00  0.00    +0.000 A 
ATOM      7  C   UNL     1       1.864   9.064  17.879  0.00  0.00    +0.000 A 
BRANCH   2   8
ATOM      8  C   UNL     1       0.181  10.818  18.593  0.00  0.00    +0.000 C 
BRANCH   8   9
ATOM      9  C   UNL     1      -1.265  10.677  19.054  0.00  0.00    +0.000 C 
ATOM     10 BR   UNL     1      -2.393  10.179  17.530  0.00  0.00    +0.000 Br
BRANCH   9  11
ATOM     11  C   UNL     1      -1.824  11.969  19.595  0.00  0.00    +0.000 C 
ATOM     12  O   UNL     1      -2.996  12.326  19.527  0.00  0.00    +0.000 OA
BRANCH  11  14
ATOM     13  C   UNL     1      -0.924  14.111  19.946  0.00  0.00    +0.000 C 
ATOM     14  O   UNL     1      -0.820  12.704  20.168  0.00  0.00    +0.000 OA
ENDBRANCH  11  14
ENDBRANCH   9  11
ENDBRANCH   8   9
ENDBRANCH   2   8
ENDBRANCH   1   5
BRANCH   1  15
ATOM     15  C   UNL     1       3.775   5.597  18.230  0.00  0.00    +0.000 C 
BRANCH  15  16
ATOM     16  C   UNL     1       5.218   5.098  18.413  0.00  0.00    +0.000 C 
BRANCH  16  17
ATOM     17  N   UNL     1       6.196   5.707  17.499  0.00  0.00    +0.000 N 
ATOM     18  C   UNL     1       7.513   5.980  18.065  0.00  0.00    +0.000 C 
ATOM     19  C   UNL     1       6.187   5.281  16.208  0.00  0.00    +0.000 A 
ATOM     20  N   UNL     1       5.343   4.458  15.619  0.00  0.00    +0.000 NA
ATOM     21  C   UNL     1       5.861   4.288  14.365  0.00  0.00    +0.000 A 
ATOM     22  C   UNL     1       5.440   3.493  13.293  0.00  0.00    +0.000 A 
ATOM     23  C   UNL     1       6.224   3.483  12.130  0.00  0.00    +0.000 A 
ATOM     24  C   UNL     1       7.384   4.263  12.032  0.00  0.00    +0.000 A 
ATOM     25  C   UNL     1       7.806   5.082  13.088  0.00  0.00    +0.000 A 
ATOM     26  C   UNL     1       7.012   5.045  14.227  0.00  0.00    +0.000 A 
ATOM     27  O   UNL     1       7.219   5.699  15.404  0.00  0.00    +0.000 OA
ENDBRANCH  16  17
ENDBRANCH  15  16
ENDBRANCH   1  15
TORSDOF 8
ENDMDL
MODEL 4
REMARK VINA RESULT:      -7.5      1.049      1.154
REMARK  Name = 
REMARK  10 active torsions:
REMARK  status: ('A' for Active; 'I' for Inactive)
REMARK    1  A    between atoms: C_1  and  O_2
REMARK    2  A    between atoms: O_2  and  C_3
REMARK    3  A    between atoms: C_3  and  C_5
REMARK    4  A    between atoms: C_5  and  C_7
REMARK    5  A    between atoms: C_7  and  C_8
REMARK    6  A    between atoms: C_11  and  O_12
REMARK    7  A    between atoms: O_12  and  C_13
REMARK    8  A    between atoms: C_13  and  C_14
REMARK    9  A    between atoms: C_14  and  N_15
REMARK   10  A    between atoms: N_15  and  C_16
REMARK                            x       y       z     vdW  Elec       q    Type
REMARK                         _______ _______ _______ _____ _____    ______ ____
ROOT
ATOM      1  O   UNL     1       3.461   4.967  19.529  0.00  0.00    +0.000 OA
ENDROOT
BRANCH   1   5
ATOM      2  C   UNL     1       1.845   8.763  18.793  0.00  0.00    +0.000 A 
ATOM      3  C   UNL     1       2.615   8.143  17.804  0.00  0.00    +0.000 A 
ATOM      4  C   UNL     1       3.132   6.861  18.004  0.00  0.00    +0.000 A 
ATOM      5  C   UNL     1       2.925   6.191  19.211  0.00  0.00    +0.000 A 
ATOM      6  C   UNL     1       2.125   6.787  20.188  0.00  0.00    +0.000 A 
ATOM      7  C   UNL     1       1.593   8.067  19.983  0.00  0.00    +0.000 A 
BRANCH   2   8
ATOM      8  C   UNL     1       1.325  10.170  18.595  0.00  0.00    +0.000 C 
BRANCH   8   9
ATOM      9  C   UNL     1       0.202  10.545  19.555  0.00  0.00    +0.000 C 
ATOM     10 BR   UNL     1      -1.393  11.051  18.533  0.00  0.00    +0.000 Br
BRANCH   9  11
ATOM     11  C   UNL     1       0.554  11.735  20.413  0.00  0.00    +0.000 C 
ATOM     12  O   UNL     1       0.476  11.781  21.637  0.00  0.00    +0.000 OA
BRANCH  11  14
ATOM     13  C   UNL     1       0.557  14.062  20.086  0.00  0.00    +0.000 C 
ATOM     14  O   UNL     1       0.963  12.773  19.620  0.00  0.00    +0.000 OA
ENDBRANCH  11  14
ENDBRANCH   9  11
ENDBRANCH   8   9
ENDBRANCH   2   8
ENDBRANCH   1   5
BRANCH   1  15
ATOM     15  C   UNL     1       4.894   4.960  19.614  0.00  0.00    +0.000 C 
BRANCH  15  16
ATOM     16  C   UNL     1       5.538   4.237  18.419  0.00  0.00    +0.000 C 
BRANCH  16  17
ATOM     17  N   UNL     1       6.381   5.092  17.569  0.00  0.00    +0.000 N 
ATOM     18  C   UNL     1       7.676   5.467  18.128  0.00  0.00    +0.000 C 
ATOM     19  C   UNL     1       6.366   4.845  16.233  0.00  0.00    +0.000 A 
ATOM     20  N   UNL     1       5.611   4.000  15.560  0.00  0.00    +0.000 NA
ATOM     21  C   UNL     1       6.085   4.073  14.280  0.00  0.00    +0.000 A 
ATOM     22  C   UNL     1       5.722   3.378  13.121  0.00  0.00    +0.000 A 
ATOM     23  C   UNL     1       6.443   3.632  11.944  0.00  0.00    +0.000 A 
ATOM     24  C   UNL     1       7.483   4.571  11.922  0.00  0.00    +0.000 A 
ATOM     25  C   UNL     1       7.843   5.292  13.068  0.00  0.00    +0.000 A 
ATOM     26  C   UNL     1       7.117   4.993  14.213  0.00  0.00    +0.000 A 
ATOM     27  O   UNL     1       7.292   5.506  15.464  0.00  0.00    +0.000 OA
ENDBRANCH  16  17
ENDBRANCH  15  16
ENDBRANCH   1  15
TORSDOF 8
ENDMDL
MODEL 5
REMARK VINA RESULT:      -7.5      1.796      2.394
REMARK  Name = 
REMARK  10 active torsions:
REMARK  status: ('A' for Active; 'I' for Inactive)
REMARK    1  A    between atoms: C_1  and  O_2
REMARK    2  A    between atoms: O_2  and  C_3
REMARK    3  A    between atoms: C_3  and  C_5
REMARK    4  A    between atoms: C_5  and  C_7
REMARK    5  A    between atoms: C_7  and  C_8
REMARK    6  A    between atoms: C_11  and  O_12
REMARK    7  A    between atoms: O_12  and  C_13
REMARK    8  A    between atoms: C_13  and  C_14
REMARK    9  A    between atoms: C_14  and  N_15
REMARK   10  A    between atoms: N_15  and  C_16
REMARK                            x       y       z     vdW  Elec       q    Type
REMARK                         _______ _______ _______ _____ _____    ______ ____
ROOT
ATOM      1  O   UNL     1       2.946   5.873  18.934  0.00  0.00    +0.000 OA
ENDROOT
BRANCH   1   5
ATOM      2  C   UNL     1       1.064   9.551  19.633  0.00  0.00    +0.000 A 
ATOM      3  C   UNL     1       1.217   8.649  20.690  0.00  0.00    +0.000 A 
ATOM      4  C   UNL     1       1.877   7.433  20.497  0.00  0.00    +0.000 A 
ATOM      5  C   UNL     1       2.360   7.077  19.237  0.00  0.00    +0.000 A 
ATOM      6  C   UNL     1       2.245   7.989  18.186  0.00  0.00    +0.000 A 
ATOM      7  C   UNL     1       1.596   9.216  18.381  0.00  0.00    +0.000 A 
BRANCH   2   8
ATOM      8  C   UNL     1       0.308  10.847  19.830  0.00  0.00    +0.000 C 
BRANCH   8   9
ATOM      9  C   UNL     1      -0.395  11.340  18.571  0.00  0.00    +0.000 C 
ATOM     10 BR   UNL     1      -0.251  13.292  18.461  0.00  0.00    +0.000 Br
BRANCH   9  11
ATOM     11  C   UNL     1      -1.870  11.020  18.575  0.00  0.00    +0.000 C 
ATOM     12  O   UNL     1      -2.745  11.689  19.114  0.00  0.00    +0.000 OA
BRANCH  11  14
ATOM     13  C   UNL     1      -3.295   9.845  17.123  0.00  0.00    +0.000 C 
ATOM     14  O   UNL     1      -2.092   9.853  17.893  0.00  0.00    +0.000 OA
ENDBRANCH  11  14
ENDBRANCH   9  11
ENDBRANCH   8   9
ENDBRANCH   2   8
ENDBRANCH   1   5
BRANCH   1  15
ATOM     15  C   UNL     1       4.334   5.790  19.291  0.00  0.00    +0.000 C 
BRANCH  15  16
ATOM     16  C   UNL     1       5.112   4.840  18.365  0.00  0.00    +0.000 C 
BRANCH  16  17
ATOM     17  N   UNL     1       6.108   5.501  17.509  0.00  0.00    +0.000 N 
ATOM     18  C   UNL     1       7.408   5.755  18.123  0.00  0.00    +0.000 C 
ATOM     19  C   UNL     1       6.137   5.142  16.199  0.00  0.00    +0.000 A 
ATOM     20  N   UNL     1       5.315   4.344  15.546  0.00  0.00    +0.000 NA
ATOM     21  C   UNL     1       5.867   4.243  14.300  0.00  0.00    +0.000 A 
ATOM     22  C   UNL     1       5.481   3.500  13.178  0.00  0.00    +0.000 A 
ATOM     23  C   UNL     1       6.296   3.554  12.037  0.00  0.00    +0.000 A 
ATOM     24  C   UNL     1       7.452   4.347  12.010  0.00  0.00    +0.000 A 
ATOM     25  C   UNL     1       7.838   5.114  13.117  0.00  0.00    +0.000 A 
ATOM     26  C   UNL     1       7.015   5.013  14.230  0.00  0.00    +0.000 A 
ATOM     27  O   UNL     1       7.186   5.608  15.445  0.00  0.00    +0.000 OA
ENDBRANCH  16  17
ENDBRANCH  15  16
ENDBRANCH   1  15
TORSDOF 8
ENDMDL
MODEL 6
REMARK VINA RESULT:      -7.4      2.562      3.661
REMARK  Name = 
REMARK  10 active torsions:
REMARK  status: ('A' for Active; 'I' for Inactive)
REMARK    1  A    between atoms: C_1  and  O_2
REMARK    2  A    between atoms: O_2  and  C_3
REMARK    3  A    between atoms: C_3  and  C_5
REMARK    4  A    between atoms: C_5  and  C_7
REMARK    5  A    between atoms: C_7  and  C_8
REMARK    6  A    between atoms: C_11  and  O_12
REMARK    7  A    between atoms: O_12  and  C_13
REMARK    8  A    between atoms: C_13  and  C_14
REMARK    9  A    between atoms: C_14  and  N_15
REMARK   10  A    between atoms: N_15  and  C_16
REMARK                            x       y       z     vdW  Elec       q    Type
REMARK                         _______ _______ _______ _____ _____    ______ ____
ROOT
ATOM      1  O   UNL     1       2.521   5.575  20.957  0.00  0.00    +0.000 OA
ENDROOT
BRANCH   1   5
ATOM      2  C   UNL     1       1.577   9.061  18.832  0.00  0.00    +0.000 A 
ATOM      3  C   UNL     1       2.239   8.019  18.177  0.00  0.00    +0.000 A 
ATOM      4  C   UNL     1       2.530   6.828  18.847  0.00  0.00    +0.000 A 
ATOM      5  C   UNL     1       2.202   6.673  20.195  0.00  0.00    +0.000 A 
ATOM      6  C   UNL     1       1.506   7.693  20.845  0.00  0.00    +0.000 A 
ATOM      7  C   UNL     1       1.201   8.883  20.170  0.00  0.00    +0.000 A 
BRANCH   2   8
ATOM      8  C   UNL     1       1.304  10.368  18.120  0.00  0.00    +0.000 C 
BRANCH   8   9
ATOM      9  C   UNL     1       0.313  11.265  18.851  0.00  0.00    +0.000 C 
ATOM     10 BR   UNL     1      -1.501  10.908  18.200  0.00  0.00    +0.000 Br
BRANCH   9  11
ATOM     11  C   UNL     1       0.574  12.731  18.604  0.00  0.00    +0.000 C 
ATOM     12  O   UNL     1      -0.253  13.631  18.703  0.00  0.00    +0.000 OA
BRANCH  11  14
ATOM     13  C   UNL     1       2.634  13.733  19.130  0.00  0.00    +0.000 C 
ATOM     14  O   UNL     1       1.880  12.912  18.235  0.00  0.00    +0.000 OA
ENDBRANCH  11  14
ENDBRANCH   9  11
ENDBRANCH   8   9
ENDBRANCH   2   8
ENDBRANCH   1   5
BRANCH   1  15
ATOM     15  C   UNL     1       1.622   4.467  20.793  0.00  0.00    +0.000 C 
BRANCH  15  16
ATOM     16  C   UNL     1       2.373   3.153  20.517  0.00  0.00    +0.000 C 
BRANCH  16  17
ATOM     17  N   UNL     1       2.591   2.862  19.092  0.00  0.00    +0.000 N 
ATOM     18  C   UNL     1       1.403   2.900  18.245  0.00  0.00    +0.000 C 
ATOM     19  C   UNL     1       3.731   3.340  18.529  0.00  0.00    +0.000 A 
ATOM     20  N   UNL     1       4.743   3.953  19.111  0.00  0.00    +0.000 NA
ATOM     21  C   UNL     1       5.556   4.314  18.073  0.00  0.00    +0.000 A 
ATOM     22  C   UNL     1       6.757   5.033  18.050  0.00  0.00    +0.000 A 
ATOM     23  C   UNL     1       7.342   5.303  16.804  0.00  0.00    +0.000 A 
ATOM     24  C   UNL     1       6.755   4.848  15.615  0.00  0.00    +0.000 A 
ATOM     25  C   UNL     1       5.566   4.107  15.624  0.00  0.00    +0.000 A 
ATOM     26  C   UNL     1       5.012   3.881  16.877  0.00  0.00    +0.000 A 
ATOM     27  O   UNL     1       3.845   3.239  17.164  0.00  0.00    +0.000 OA
ENDBRANCH  16  17
ENDBRANCH  15  16
ENDBRANCH   1  15
TORSDOF 8
ENDMDL
MODEL 7
REMARK VINA RESULT:      -7.4      1.658      2.191
REMARK  Name = 
REMARK  10 active torsions:
REMARK  status: ('A' for Active; 'I' for Inactive)
REMARK    1  A    between atoms: C_1  and  O_2
REMARK    2  A    between atoms: O_2  and  C_3
REMARK    3  A    between atoms: C_3  and  C_5
REMARK    4  A    between atoms: C_5  and  C_7
REMARK    5  A    between atoms: C_7  and  C_8
REMARK    6  A    between atoms: C_11  and  O_12
REMARK    7  A    between atoms: O_12  and  C_13
REMARK    8  A    between atoms: C_13  and  C_14
REMARK    9  A    between atoms: C_14  and  N_15
REMARK   10  A    between atoms: N_15  and  C_16
REMARK                            x       y       z     vdW  Elec       q    Type
REMARK                         _______ _______ _______ _____ _____    ______ ____
ROOT
ATOM      1  O   UNL     1       3.190   5.498  18.936  0.00  0.00    +0.000 OA
ENDROOT
BRANCH   1   5
ATOM      2  C   UNL     1       1.320   9.243  19.129  0.00  0.00    +0.000 A 
ATOM      3  C   UNL     1       1.368   8.442  20.274  0.00  0.00    +0.000 A 
ATOM      4  C   UNL     1       2.021   7.207  20.252  0.00  0.00    +0.000 A 
ATOM      5  C   UNL     1       2.601   6.731  19.075  0.00  0.00    +0.000 A 
ATOM      6  C   UNL     1       2.591   7.541  17.938  0.00  0.00    +0.000 A 
ATOM      7  C   UNL     1       1.950   8.787  17.963  0.00  0.00    +0.000 A 
BRANCH   2   8
ATOM      8  C   UNL     1       0.573  10.559  19.140  0.00  0.00    +0.000 C 
BRANCH   8   9
ATOM      9  C   UNL     1       1.306  11.670  19.882  0.00  0.00    +0.000 C 
ATOM     10 BR   UNL     1       0.027  12.697  20.955  0.00  0.00    +0.000 Br
BRANCH   9  11
ATOM     11  C   UNL     1       1.961  12.652  18.942  0.00  0.00    +0.000 C 
ATOM     12  O   UNL     1       2.697  12.362  18.005  0.00  0.00    +0.000 OA
BRANCH  11  14
ATOM     13  C   UNL     1       2.702  14.864  19.221  0.00  0.00    +0.000 C 
ATOM     14  O   UNL     1       1.624  13.930  19.299  0.00  0.00    +0.000 OA
ENDBRANCH  11  14
ENDBRANCH   9  11
ENDBRANCH   8   9
ENDBRANCH   2   8
ENDBRANCH   1   5
BRANCH   1  15
ATOM     15  C   UNL     1       4.541   5.436  19.419  0.00  0.00    +0.000 C 
BRANCH  15  16
ATOM     16  C   UNL     1       5.434   4.566  18.519  0.00  0.00    +0.000 C 
BRANCH  16  17
ATOM     17  N   UNL     1       6.340   5.323  17.642  0.00  0.00    +0.000 N 
ATOM     18  C   UNL     1       7.656   5.628  18.196  0.00  0.00    +0.000 C 
ATOM     19  C   UNL     1       6.315   5.023  16.317  0.00  0.00    +0.000 A 
ATOM     20  N   UNL     1       5.505   4.206  15.672  0.00  0.00    +0.000 NA
ATOM     21  C   UNL     1       5.991   4.193  14.394  0.00  0.00    +0.000 A 
ATOM     22  C   UNL     1       5.585   3.479  13.261  0.00  0.00    +0.000 A 
ATOM     23  C   UNL     1       6.330   3.632  12.082  0.00  0.00    +0.000 A 
ATOM     24  C   UNL     1       7.434   4.493  12.030  0.00  0.00    +0.000 A 
ATOM     25  C   UNL     1       7.838   5.233  13.149  0.00  0.00    +0.000 A 
ATOM     26  C   UNL     1       7.086   5.034  14.299  0.00  0.00    +0.000 A 
ATOM     27  O   UNL     1       7.291   5.585  15.529  0.00  0.00    +0.000 OA
ENDBRANCH  16  17
ENDBRANCH  15  16
ENDBRANCH   1  15
TORSDOF 8
ENDMDL
MODEL 8
REMARK VINA RESULT:      -7.4      1.316      1.428
REMARK  Name = 
REMARK  10 active torsions:
REMARK  status: ('A' for Active; 'I' for Inactive)
REMARK    1  A    between atoms: C_1  and  O_2
REMARK    2  A    between atoms: O_2  and  C_3
REMARK    3  A    between atoms: C_3  and  C_5
REMARK    4  A    between atoms: C_5  and  C_7
REMARK    5  A    between atoms: C_7  and  C_8
REMARK    6  A    between atoms: C_11  and  O_12
REMARK    7  A    between atoms: O_12  and  C_13
REMARK    8  A    between atoms: C_13  and  C_14
REMARK    9  A    between atoms: C_14  and  N_15
REMARK   10  A    between atoms: N_15  and  C_16
REMARK                            x       y       z     vdW  Elec       q    Type
REMARK                         _______ _______ _______ _____ _____    ______ ____
ROOT
ATOM      1  O   UNL     1       3.386   5.649  18.490  0.00  0.00    +0.000 OA
ENDROOT
BRANCH   1   5
ATOM      2  C   UNL     1       1.359   9.268  19.086  0.00  0.00    +0.000 A 
ATOM      3  C   UNL     1       1.878   8.975  17.822  0.00  0.00    +0.000 A 
ATOM      4  C   UNL     1       2.522   7.759  17.582  0.00  0.00    +0.000 A 
ATOM      5  C   UNL     1       2.696   6.831  18.610  0.00  0.00    +0.000 A 
ATOM      6  C   UNL     1       2.147   7.099  19.865  0.00  0.00    +0.000 A 
ATOM      7  C   UNL     1       1.487   8.312  20.104  0.00  0.00    +0.000 A 
BRANCH   2   8
ATOM      8  C   UNL     1       0.703  10.604  19.359  0.00  0.00    +0.000 C 
BRANCH   8   9
ATOM      9  C   UNL     1       1.099  11.216  20.697  0.00  0.00    +0.000 C 
ATOM     10 BR   UNL     1      -0.420  11.130  21.933  0.00  0.00    +0.000 Br
BRANCH   9  11
ATOM     11  C   UNL     1       1.467  12.674  20.575  0.00  0.00    +0.000 C 
ATOM     12  O   UNL     1       2.127  13.315  21.386  0.00  0.00    +0.000 OA
BRANCH  11  14
ATOM     13  C   UNL     1       0.000  14.245  19.626  0.00  0.00    +0.000 C 
ATOM     14  O   UNL     1       0.941  13.189  19.420  0.00  0.00    +0.000 OA
ENDBRANCH  11  14
ENDBRANCH   9  11
ENDBRANCH   8   9
ENDBRANCH   2   8
ENDBRANCH   1   5
BRANCH   1  15
ATOM     15  C   UNL     1       4.503   5.530  19.385  0.00  0.00    +0.000 C 
BRANCH  15  16
ATOM     16  C   UNL     1       5.661   4.736  18.757  0.00  0.00    +0.000 C 
BRANCH  16  17
ATOM     17  N   UNL     1       6.487   5.503  17.812  0.00  0.00    +0.000 N 
ATOM     18  C   UNL     1       7.807   5.896  18.294  0.00  0.00    +0.000 C 
ATOM     19  C   UNL     1       6.420   5.151  16.502  0.00  0.00    +0.000 A 
ATOM     20  N   UNL     1       5.626   4.270  15.926  0.00  0.00    +0.000 NA
ATOM     21  C   UNL     1       6.055   4.231  14.628  0.00  0.00    +0.000 A 
ATOM     22  C   UNL     1       5.638   3.453  13.542  0.00  0.00    +0.000 A 
ATOM     23  C   UNL     1       6.321   3.598  12.325  0.00  0.00    +0.000 A 
ATOM     24  C   UNL     1       7.375   4.511  12.190  0.00  0.00    +0.000 A 
ATOM     25  C   UNL     1       7.788   5.314  13.262  0.00  0.00    +0.000 A 
ATOM     26  C   UNL     1       7.099   5.122  14.452  0.00  0.00    +0.000 A 
ATOM     27  O   UNL     1       7.329   5.730  15.650  0.00  0.00    +0.000 OA
ENDBRANCH  16  17
ENDBRANCH  15  16
ENDBRANCH   1  15
TORSDOF 8
ENDMDL
MODEL 9
REMARK VINA RESULT:      -7.4      2.300      3.620
REMARK  Name = 
REMARK  10 active torsions:
REMARK  status: ('A' for Active; 'I' for Inactive)
REMARK    1  A    between atoms: C_1  and  O_2
REMARK    2  A    between atoms: O_2  and  C_3
REMARK    3  A    between atoms: C_3  and  C_5
REMARK    4  A    between atoms: C_5  and  C_7
REMARK    5  A    between atoms: C_7  and  C_8
REMARK    6  A    between atoms: C_11  and  O_12
REMARK    7  A    between atoms: O_12  and  C_13
REMARK    8  A    between atoms: C_13  and  C_14
REMARK    9  A    between atoms: C_14  and  N_15
REMARK   10  A    between atoms: N_15  and  C_16
REMARK                            x       y       z     vdW  Elec       q    Type
REMARK                         _______ _______ _______ _____ _____    ______ ____
ROOT
ATOM      1  O   UNL     1       2.162   5.651  21.138  0.00  0.00    +0.000 OA
ENDROOT
BRANCH   1   5
ATOM      2  C   UNL     1       1.182   9.279  19.284  0.00  0.00    +0.000 A 
ATOM      3  C   UNL     1       0.750   9.041  20.592  0.00  0.00    +0.000 A 
ATOM      4  C   UNL     1       1.096   7.859  21.251  0.00  0.00    +0.000 A 
ATOM      5  C   UNL     1       1.845   6.875  20.602  0.00  0.00    +0.000 A 
ATOM      6  C   UNL     1       2.313   7.123  19.310  0.00  0.00    +0.000 A 
ATOM      7  C   UNL     1       1.979   8.315  18.653  0.00  0.00    +0.000 A 
BRANCH   2   8
ATOM      8  C   UNL     1       0.768  10.538  18.554  0.00  0.00    +0.000 C 
BRANCH   8   9
ATOM      9  C   UNL     1      -0.657  10.981  18.861  0.00  0.00    +0.000 C 
ATOM     10 BR   UNL     1      -1.876  10.255  17.509  0.00  0.00    +0.000 Br
BRANCH   9  11
ATOM     11  C   UNL     1      -0.814  12.481  18.817  0.00  0.00    +0.000 C 
ATOM     12  O   UNL     1      -0.501  13.205  17.878  0.00  0.00    +0.000 OA
BRANCH  11  14
ATOM     13  C   UNL     1      -1.551  11.902  20.971  0.00  0.00    +0.000 C 
ATOM     14  O   UNL     1      -1.351  12.926  19.995  0.00  0.00    +0.000 OA
ENDBRANCH  11  14
ENDBRANCH   9  11
ENDBRANCH   8   9
ENDBRANCH   2   8
ENDBRANCH   1   5
BRANCH   1  15
ATOM     15  C   UNL     1       1.494   4.546  20.510  0.00  0.00    +0.000 C 
BRANCH  15  16
ATOM     16  C   UNL     1       2.375   3.286  20.476  0.00  0.00    +0.000 C 
BRANCH  16  17
ATOM     17  N   UNL     1       2.765   2.849  19.127  0.00  0.00    +0.000 N 
ATOM     18  C   UNL     1       1.668   2.537  18.216  0.00  0.00    +0.000 C 
ATOM     19  C   UNL     1       3.841   3.459  18.564  0.00  0.00    +0.000 A 
ATOM     20  N   UNL     1       4.667   4.333  19.104  0.00  0.00    +0.000 NA
ATOM     21  C   UNL     1       5.486   4.701  18.073  0.00  0.00    +0.000 A 
ATOM     22  C   UNL     1       6.530   5.631  18.011  0.00  0.00    +0.000 A 
ATOM     23  C   UNL     1       7.159   5.837  16.774  0.00  0.00    +0.000 A 
ATOM     24  C   UNL     1       6.772   5.116  15.636  0.00  0.00    +0.000 A 
ATOM     25  C   UNL     1       5.745   4.165  15.688  0.00  0.00    +0.000 A 
ATOM     26  C   UNL     1       5.136   4.009  16.926  0.00  0.00    +0.000 A 
ATOM     27  O   UNL     1       4.088   3.196  17.239  0.00  0.00    +0.000 OA
ENDBRANCH  16  17
ENDBRANCH  15  16
ENDBRANCH   1  15
TORSDOF 8
ENDMDL
