MODEL 1
REMARK VINA RESULT:      -8.5      0.000      0.000
REMARK  Name = 
REMARK  4 active torsions:
REMARK  status: ('A' for Active; 'I' for Inactive)
REMARK    1  A    between atoms: C_1  and  C_2
REMARK    2  A    between atoms: N_6  and  C_7
REMARK    3  A    between atoms: C_11  and  C_12
REMARK    4  A    between atoms: N_19  and  C_20
REMARK                            x       y       z     vdW  Elec       q    Type
REMARK                         _______ _______ _______ _____ _____    ______ ____
ROOT
ATOM      1  C   UNL     1       1.718   9.844  18.788  0.00  0.00    +0.000 A 
ATOM      2  C   UNL     1       2.522   9.225  17.910  0.00  0.00    +0.000 A 
ATOM      3  C   UNL     1       2.894   7.795  17.978  0.00  0.00    +0.000 A 
ATOM      4  N   UNL     1       3.752   7.340  17.123  0.00  0.00    +0.000 NA
ATOM      5  C   UNL     1       4.110   6.016  17.235  0.00  0.00    +0.000 A 
ATOM      6  N   UNL     1       3.606   5.188  18.101  0.00  0.00    +0.000 NA
ATOM      7  N   UNL     1       2.640   5.626  18.972  0.00  0.00    +0.000 N 
ATOM      8  C   UNL     1       2.271   6.965  19.041  0.00  0.00    +0.000 A 
ATOM      9  C   UNL     1       1.512   7.587  19.949  0.00  0.00    +0.000 A 
ATOM     10  C   UNL     1       1.168   9.014  19.914  0.00  0.00    +0.000 A 
ATOM     11  O   UNL     1       0.461   9.461  20.814  0.00  0.00    +0.000 OA
ENDROOT
BRANCH   1  17
ATOM     12  C   UNL     1       0.078  12.401  21.137  0.00  0.00    +0.000 C 
ATOM     13  C   UNL     1      -0.140  12.849  19.688  0.00  0.00    +0.000 C 
ATOM     14  C   UNL     1       0.829  13.968  19.276  0.00  0.00    +0.000 C 
ATOM     15  C   UNL     1       2.262  13.465  19.111  0.00  0.00    +0.000 C 
ATOM     16  C   UNL     1       2.338  12.230  18.212  0.00  0.00    +0.000 C 
ATOM     17  N   UNL     1       1.394  11.208  18.702  0.00  0.00    +0.000 N 
ATOM     18  C   UNL     1      -0.002  11.669  18.721  0.00  0.00    +0.000 C 
ENDBRANCH   1  17
BRANCH   5  19
ATOM     19  C   UNL     1       5.156   5.534  16.275  0.00  0.00    +0.000 A 
ATOM     20  C   UNL     1       4.822   4.710  15.191  0.00  0.00    +0.000 A 
ATOM     21  C   UNL     1       5.816   4.249  14.322  0.00  0.00    +0.000 A 
ATOM     22  C   UNL     1       7.148   4.604  14.532  0.00  0.00    +0.000 A 
ATOM     23  C   UNL     1       7.488   5.431  15.600  0.00  0.00    +0.000 A 
ATOM     24  C   UNL     1       6.498   5.895  16.469  0.00  0.00    +0.000 A 
ENDBRANCH   5  19
BRANCH   7  25
ATOM     25  C   UNL     1       2.149   4.615  19.860  0.00  0.00    +0.000 A 
ATOM     26  C   UNL     1       1.134   3.737  19.448  0.00  0.00    +0.000 A 
ATOM     27  C   UNL     1       0.715   2.681  20.264  0.00  0.00    +0.000 A 
ATOM     28  C   UNL     1       1.302   2.486  21.512  0.00  0.00    +0.000 A 
ATOM     29  C   UNL     1       2.272   3.373  21.964  0.00  0.00    +0.000 A 
ATOM     30  C   UNL     1       2.666   4.443  21.158  0.00  0.00    +0.000 A 
ENDBRANCH   7  25
TORSDOF 3
ENDMDL
MODEL 2
REMARK VINA RESULT:      -8.3      0.202      1.260
REMARK  Name = 
REMARK  4 active torsions:
REMARK  status: ('A' for Active; 'I' for Inactive)
REMARK    1  A    between atoms: C_1  and  C_2
REMARK    2  A    between atoms: N_6  and  C_7
REMARK    3  A    between atoms: C_11  and  C_12
REMARK    4  A    between atoms: N_19  and  C_20
REMARK                            x       y       z     vdW  Elec       q    Type
REMARK                         _______ _______ _______ _____ _____    ______ ____
ROOT
ATOM      1  C   UNL     1       1.809   9.686  18.723  0.00  0.00    +0.000 A 
ATOM      2  C   UNL     1       2.613   9.082  17.836  0.00  0.00    +0.000 A 
ATOM      3  C   UNL     1       2.993   7.653  17.888  0.00  0.00    +0.000 A 
ATOM      4  N   UNL     1       3.851   7.212  17.024  0.00  0.00    +0.000 NA
ATOM      5  C   UNL     1       4.217   5.889  17.121  0.00  0.00    +0.000 A 
ATOM      6  N   UNL     1       3.721   5.049  17.980  0.00  0.00    +0.000 NA
ATOM      7  N   UNL     1       2.755   5.472  18.859  0.00  0.00    +0.000 N 
ATOM      8  C   UNL     1       2.379   6.808  18.943  0.00  0.00    +0.000 A 
ATOM      9  C   UNL     1       1.620   7.416  19.861  0.00  0.00    +0.000 A 
ATOM     10  C   UNL     1       1.267   8.841  19.842  0.00  0.00    +0.000 A 
ATOM     11  O   UNL     1       0.562   9.275  20.750  0.00  0.00    +0.000 OA
ENDROOT
BRANCH   1  17
ATOM     12  C   UNL     1       0.252  12.232  21.140  0.00  0.00    +0.000 C 
ATOM     13  C   UNL     1      -0.024  12.683  19.702  0.00  0.00    +0.000 C 
ATOM     14  C   UNL     1       0.924  13.806  19.256  0.00  0.00    +0.000 C 
ATOM     15  C   UNL     1       2.352  13.308  19.033  0.00  0.00    +0.000 C 
ATOM     16  C   UNL     1       2.397  12.076  18.129  0.00  0.00    +0.000 C 
ATOM     17  N   UNL     1       1.477  11.050  18.653  0.00  0.00    +0.000 N 
ATOM     18  C   UNL     1       0.081  11.505  18.728  0.00  0.00    +0.000 C 
ENDBRANCH   1  17
BRANCH   5  19
ATOM     19  C   UNL     1       5.262   5.423  16.152  0.00  0.00    +0.000 A 
ATOM     20  C   UNL     1       6.607   5.791  16.303  0.00  0.00    +0.000 A 
ATOM     21  C   UNL     1       7.563   5.368  15.374  0.00  0.00    +0.000 A 
ATOM     22  C   UNL     1       7.183   4.579  14.290  0.00  0.00    +0.000 A 
ATOM     23  C   UNL     1       5.851   4.199  14.137  0.00  0.00    +0.000 A 
ATOM     24  C   UNL     1       4.894   4.618  15.064  0.00  0.00    +0.000 A 
ENDBRANCH   5  19
BRANCH   7  25
ATOM     25  C   UNL     1       2.273   4.449  19.737  0.00  0.00    +0.000 A 
ATOM     26  C   UNL     1       2.840   4.277  21.010  0.00  0.00    +0.000 A 
ATOM     27  C   UNL     1       2.315   3.353  21.919  0.00  0.00    +0.000 A 
ATOM     28  C   UNL     1       1.211   2.578  21.568  0.00  0.00    +0.000 A 
ATOM     29  C   UNL     1       0.665   2.692  20.295  0.00  0.00    +0.000 A 
ATOM     30  C   UNL     1       1.212   3.595  19.381  0.00  0.00    +0.000 A 
ENDBRANCH   7  25
TORSDOF 3
ENDMDL
MODEL 3
REMARK VINA RESULT:      -8.3      0.745      1.336
REMARK  Name = 
REMARK  4 active torsions:
REMARK  status: ('A' for Active; 'I' for Inactive)
REMARK    1  A    between atoms: C_1  and  C_2
REMARK    2  A    between atoms: N_6  and  C_7
REMARK    3  A    between atoms: C_11  and  C_12
REMARK    4  A    between atoms: N_19  and  C_20
REMARK                            x       y       z     vdW  Elec       q    Type
REMARK                         _______ _______ _______ _____ _____    ______ ____
ROOT
ATOM      1  C   UNL     1       1.193   9.905  19.365  0.00  0.00    +0.000 A 
ATOM      2  C   UNL     1       2.071   9.408  18.481  0.00  0.00    +0.000 A 
ATOM      3  C   UNL     1       2.555   8.011  18.476  0.00  0.00    +0.000 A 
ATOM      4  N   UNL     1       3.473   7.680  17.626  0.00  0.00    +0.000 NA
ATOM      5  C   UNL     1       3.933   6.384  17.670  0.00  0.00    +0.000 A 
ATOM      6  N   UNL     1       3.472   5.465  18.466  0.00  0.00    +0.000 NA
ATOM      7  N   UNL     1       2.447   5.769  19.326  0.00  0.00    +0.000 N 
ATOM      8  C   UNL     1       1.969   7.068  19.462  0.00  0.00    +0.000 A 
ATOM      9  C   UNL     1       1.134   7.569  20.379  0.00  0.00    +0.000 A 
ATOM     10  C   UNL     1       0.677   8.964  20.418  0.00  0.00    +0.000 A 
ATOM     11  O   UNL     1      -0.091   9.297  21.318  0.00  0.00    +0.000 OA
ENDROOT
BRANCH   1  17
ATOM     12  C   UNL     1       2.662  13.219  18.097  0.00  0.00    +0.000 C 
ATOM     13  C   UNL     1       1.674  13.517  19.230  0.00  0.00    +0.000 C 
ATOM     14  C   UNL     1       0.318  14.007  18.702  0.00  0.00    +0.000 C 
ATOM     15  C   UNL     1      -0.484  12.892  18.033  0.00  0.00    +0.000 C 
ATOM     16  C   UNL     1      -0.587  11.648  18.917  0.00  0.00    +0.000 C 
ATOM     17  N   UNL     1       0.762  11.242  19.350  0.00  0.00    +0.000 N 
ATOM     18  C   UNL     1       1.465  12.283  20.114  0.00  0.00    +0.000 C 
ENDBRANCH   1  17
BRANCH   5  19
ATOM     19  C   UNL     1       5.044   6.047  16.721  0.00  0.00    +0.000 A 
ATOM     20  C   UNL     1       4.824   5.222  15.608  0.00  0.00    +0.000 A 
ATOM     21  C   UNL     1       5.879   4.898  14.750  0.00  0.00    +0.000 A 
ATOM     22  C   UNL     1       7.159   5.392  14.997  0.00  0.00    +0.000 A 
ATOM     23  C   UNL     1       7.385   6.222  16.093  0.00  0.00    +0.000 A 
ATOM     24  C   UNL     1       6.334   6.549  16.952  0.00  0.00    +0.000 A 
ENDBRANCH   5  19
BRANCH   7  25
ATOM     25  C   UNL     1       2.012   4.669  20.133  0.00  0.00    +0.000 A 
ATOM     26  C   UNL     1       1.008   3.801  19.673  0.00  0.00    +0.000 A 
ATOM     27  C   UNL     1       0.644   2.664  20.402  0.00  0.00    +0.000 A 
ATOM     28  C   UNL     1       1.276   2.376  21.609  0.00  0.00    +0.000 A 
ATOM     29  C   UNL     1       2.236   3.247  22.111  0.00  0.00    +0.000 A 
ATOM     30  C   UNL     1       2.574   4.397  21.394  0.00  0.00    +0.000 A 
ENDBRANCH   7  25
TORSDOF 3
ENDMDL
MODEL 4
REMARK VINA RESULT:      -8.1      0.616      1.099
REMARK  Name = 
REMARK  4 active torsions:
REMARK  status: ('A' for Active; 'I' for Inactive)
REMARK    1  A    between atoms: C_1  and  C_2
REMARK    2  A    between atoms: N_6  and  C_7
REMARK    3  A    between atoms: C_11  and  C_12
REMARK    4  A    between atoms: N_19  and  C_20
REMARK                            x       y       z     vdW  Elec       q    Type
REMARK                         _______ _______ _______ _____ _____    ______ ____
ROOT
ATOM      1  C   UNL     1       1.440   9.916  19.091  0.00  0.00    +0.000 A 
ATOM      2  C   UNL     1       2.286   9.350  18.217  0.00  0.00    +0.000 A 
ATOM      3  C   UNL     1       2.716   7.936  18.263  0.00  0.00    +0.000 A 
ATOM      4  N   UNL     1       3.608   7.535  17.415  0.00  0.00    +0.000 NA
ATOM      5  C   UNL     1       4.020   6.225  17.507  0.00  0.00    +0.000 A 
ATOM      6  N   UNL     1       3.536   5.358  18.346  0.00  0.00    +0.000 NA
ATOM      7  N   UNL     1       2.536   5.737  19.206  0.00  0.00    +0.000 N 
ATOM      8  C   UNL     1       2.110   7.057  19.295  0.00  0.00    +0.000 A 
ATOM      9  C   UNL     1       1.308   7.627  20.201  0.00  0.00    +0.000 A 
ATOM     10  C   UNL     1       0.904   9.039  20.189  0.00  0.00    +0.000 A 
ATOM     11  O   UNL     1       0.163   9.437  21.085  0.00  0.00    +0.000 OA
ENDROOT
BRANCH   1  17
ATOM     12  C   UNL     1      -1.608  11.940  20.257  0.00  0.00    +0.000 C 
ATOM     13  C   UNL     1      -0.955  12.665  19.075  0.00  0.00    +0.000 C 
ATOM     14  C   UNL     1      -0.093  13.852  19.529  0.00  0.00    +0.000 C 
ATOM     15  C   UNL     1       1.196  13.405  20.219  0.00  0.00    +0.000 C 
ATOM     16  C   UNL     1       1.963  12.374  19.391  0.00  0.00    +0.000 C 
ATOM     17  N   UNL     1       1.061  11.266  19.027  0.00  0.00    +0.000 N 
ATOM     18  C   UNL     1      -0.104  11.701  18.242  0.00  0.00    +0.000 C 
ENDBRANCH   1  17
BRANCH   5  19
ATOM     19  C   UNL     1       5.103   5.808  16.558  0.00  0.00    +0.000 A 
ATOM     20  C   UNL     1       6.396   6.343  16.651  0.00  0.00    +0.000 A 
ATOM     21  C   UNL     1       7.386   5.961  15.741  0.00  0.00    +0.000 A 
ATOM     22  C   UNL     1       7.091   5.046  14.731  0.00  0.00    +0.000 A 
ATOM     23  C   UNL     1       5.813   4.500  14.637  0.00  0.00    +0.000 A 
ATOM     24  C   UNL     1       4.822   4.878  15.545  0.00  0.00    +0.000 A 
ENDBRANCH   5  19
BRANCH   7  25
ATOM     25  C   UNL     1       2.071   4.687  20.063  0.00  0.00    +0.000 A 
ATOM     26  C   UNL     1       1.009   3.860  19.666  0.00  0.00    +0.000 A 
ATOM     27  C   UNL     1       0.611   2.768  20.443  0.00  0.00    +0.000 A 
ATOM     28  C   UNL     1       1.267   2.486  21.639  0.00  0.00    +0.000 A 
ATOM     29  C   UNL     1       2.286   3.321  22.081  0.00  0.00    +0.000 A 
ATOM     30  C   UNL     1       2.660   4.427  21.315  0.00  0.00    +0.000 A 
ENDBRANCH   7  25
TORSDOF 3
ENDMDL
MODEL 5
REMARK VINA RESULT:      -8.0      0.891      1.573
REMARK  Name = 
REMARK  4 active torsions:
REMARK  status: ('A' for Active; 'I' for Inactive)
REMARK    1  A    between atoms: C_1  and  C_2
REMARK    2  A    between atoms: N_6  and  C_7
REMARK    3  A    between atoms: C_11  and  C_12
REMARK    4  A    between atoms: N_19  and  C_20
REMARK                            x       y       z     vdW  Elec       q    Type
REMARK                         _______ _______ _______ _____ _____    ______ ____
ROOT
ATOM      1  C   UNL     1       1.341   9.254  19.390  0.00  0.00    +0.000 A 
ATOM      2  C   UNL     1       2.146   8.792  18.423  0.00  0.00    +0.000 A 
ATOM      3  C   UNL     1       2.710   7.425  18.383  0.00  0.00    +0.000 A 
ATOM      4  N   UNL     1       3.549   7.131  17.443  0.00  0.00    +0.000 NA
ATOM      5  C   UNL     1       4.088   5.865  17.454  0.00  0.00    +0.000 A 
ATOM      6  N   UNL     1       3.771   4.937  18.308  0.00  0.00    +0.000 NA
ATOM      7  N   UNL     1       2.829   5.198  19.270  0.00  0.00    +0.000 N 
ATOM      8  C   UNL     1       2.292   6.469  19.440  0.00  0.00    +0.000 A 
ATOM      9  C   UNL     1       1.532   6.939  20.435  0.00  0.00    +0.000 A 
ATOM     10  C   UNL     1       0.999   8.306  20.505  0.00  0.00    +0.000 A 
ATOM     11  O   UNL     1       0.314   8.611  21.479  0.00  0.00    +0.000 OA
ENDROOT
BRANCH   1  17
ATOM     12  C   UNL     1       2.557  12.657  18.091  0.00  0.00    +0.000 C 
ATOM     13  C   UNL     1       1.601  12.889  19.266  0.00  0.00    +0.000 C 
ATOM     14  C   UNL     1       0.198  13.301  18.797  0.00  0.00    +0.000 C 
ATOM     15  C   UNL     1      -0.564  12.144  18.153  0.00  0.00    +0.000 C 
ATOM     16  C   UNL     1      -0.556  10.891  19.030  0.00  0.00    +0.000 C 
ATOM     17  N   UNL     1       0.832  10.563  19.404  0.00  0.00    +0.000 N 
ATOM     18  C   UNL     1       1.502  11.640  20.147  0.00  0.00    +0.000 C 
ENDBRANCH   1  17
BRANCH   5  19
ATOM     19  C   UNL     1       5.108   5.575  16.394  0.00  0.00    +0.000 A 
ATOM     20  C   UNL     1       4.809   4.741  15.306  0.00  0.00    +0.000 A 
ATOM     21  C   UNL     1       5.782   4.462  14.343  0.00  0.00    +0.000 A 
ATOM     22  C   UNL     1       7.060   5.008  14.459  0.00  0.00    +0.000 A 
ATOM     23  C   UNL     1       7.364   5.846  15.530  0.00  0.00    +0.000 A 
ATOM     24  C   UNL     1       6.393   6.129  16.494  0.00  0.00    +0.000 A 
ENDBRANCH   5  19
BRANCH   7  25
ATOM     25  C   UNL     1       2.550   4.091  20.134  0.00  0.00    +0.000 A 
ATOM     26  C   UNL     1       3.556   3.164  20.453  0.00  0.00    +0.000 A 
ATOM     27  C   UNL     1       3.330   2.138  21.375  0.00  0.00    +0.000 A 
ATOM     28  C   UNL     1       2.088   2.015  21.993  0.00  0.00    +0.000 A 
ATOM     29  C   UNL     1       1.059   2.887  21.655  0.00  0.00    +0.000 A 
ATOM     30  C   UNL     1       1.282   3.892  20.712  0.00  0.00    +0.000 A 
ENDBRANCH   7  25
TORSDOF 3
ENDMDL
MODEL 6
REMARK VINA RESULT:      -7.9      3.520      6.872
REMARK  Name = 
REMARK  4 active torsions:
REMARK  status: ('A' for Active; 'I' for Inactive)
REMARK    1  A    between atoms: C_1  and  C_2
REMARK    2  A    between atoms: N_6  and  C_7
REMARK    3  A    between atoms: C_11  and  C_12
REMARK    4  A    between atoms: N_19  and  C_20
REMARK                            x       y       z     vdW  Elec       q    Type
REMARK                         _______ _______ _______ _____ _____    ______ ____
ROOT
ATOM      1  C   UNL     1       1.928  14.771  19.127  0.00  0.00    +0.000 A 
ATOM      2  C   UNL     1       2.314  13.487  19.121  0.00  0.00    +0.000 A 
ATOM      3  C   UNL     1       1.408  12.341  18.887  0.00  0.00    +0.000 A 
ATOM      4  N   UNL     1       1.887  11.144  18.998  0.00  0.00    +0.000 NA
ATOM      5  C   UNL     1       1.013  10.097  18.815  0.00  0.00    +0.000 A 
ATOM      6  N   UNL     1      -0.238  10.231  18.487  0.00  0.00    +0.000 NA
ATOM      7  N   UNL     1      -0.753  11.487  18.290  0.00  0.00    +0.000 N 
ATOM      8  C   UNL     1      -0.010  12.632  18.554  0.00  0.00    +0.000 A 
ATOM      9  C   UNL     1      -0.411  13.906  18.611  0.00  0.00    +0.000 A 
ATOM     10  C   UNL     1       0.471  15.049  18.881  0.00  0.00    +0.000 A 
ATOM     11  O   UNL     1      -0.028  16.172  18.908  0.00  0.00    +0.000 OA
ENDROOT
BRANCH   1  17
ATOM     12  C   UNL     1       4.869  15.380  21.520  0.00  0.00    +0.000 C 
ATOM     13  C   UNL     1       4.257  16.731  21.135  0.00  0.00    +0.000 C 
ATOM     14  C   UNL     1       5.084  17.455  20.062  0.00  0.00    +0.000 C 
ATOM     15  C   UNL     1       4.967  16.791  18.690  0.00  0.00    +0.000 C 
ATOM     16  C   UNL     1       3.511  16.558  18.286  0.00  0.00    +0.000 C 
ATOM     17  N   UNL     1       2.812  15.837  19.365  0.00  0.00    +0.000 N 
ATOM     18  C   UNL     1       2.816  16.560  20.645  0.00  0.00    +0.000 C 
ENDBRANCH   1  17
BRANCH   5  19
ATOM     19  C   UNL     1       1.580   8.724  19.018  0.00  0.00    +0.000 A 
ATOM     20  C   UNL     1       2.209   8.036  17.970  0.00  0.00    +0.000 A 
ATOM     21  C   UNL     1       2.708   6.746  18.172  0.00  0.00    +0.000 A 
ATOM     22  C   UNL     1       2.579   6.133  19.417  0.00  0.00    +0.000 A 
ATOM     23  C   UNL     1       1.965   6.812  20.467  0.00  0.00    +0.000 A 
ATOM     24  C   UNL     1       1.467   8.102  20.270  0.00  0.00    +0.000 A 
ENDBRANCH   5  19
BRANCH   7  25
ATOM     25  C   UNL     1      -2.134  11.501  17.911  0.00  0.00    +0.000 A 
ATOM     26  C   UNL     1      -2.516  11.184  16.597  0.00  0.00    +0.000 A 
ATOM     27  C   UNL     1      -3.864  11.093  16.236  0.00  0.00    +0.000 A 
ATOM     28  C   UNL     1      -4.858  11.323  17.184  0.00  0.00    +0.000 A 
ATOM     29  C   UNL     1      -4.506  11.690  18.478  0.00  0.00    +0.000 A 
ATOM     30  C   UNL     1      -3.159  11.808  18.825  0.00  0.00    +0.000 A 
ENDBRANCH   7  25
TORSDOF 3
ENDMDL
MODEL 7
REMARK VINA RESULT:      -7.8      0.770      1.079
REMARK  Name = 
REMARK  4 active torsions:
REMARK  status: ('A' for Active; 'I' for Inactive)
REMARK    1  A    between atoms: C_1  and  C_2
REMARK    2  A    between atoms: N_6  and  C_7
REMARK    3  A    between atoms: C_11  and  C_12
REMARK    4  A    between atoms: N_19  and  C_20
REMARK                            x       y       z     vdW  Elec       q    Type
REMARK                         _______ _______ _______ _____ _____    ______ ____
ROOT
ATOM      1  C   UNL     1       1.408   9.929  19.367  0.00  0.00    +0.000 A 
ATOM      2  C   UNL     1       2.259   9.409  18.469  0.00  0.00    +0.000 A 
ATOM      3  C   UNL     1       2.688   7.994  18.443  0.00  0.00    +0.000 A 
ATOM      4  N   UNL     1       3.585   7.638  17.581  0.00  0.00    +0.000 NA
ATOM      5  C   UNL     1       3.995   6.324  17.606  0.00  0.00    +0.000 A 
ATOM      6  N   UNL     1       3.505   5.415  18.395  0.00  0.00    +0.000 NA
ATOM      7  N   UNL     1       2.500   5.748  19.267  0.00  0.00    +0.000 N 
ATOM      8  C   UNL     1       2.074   7.063  19.423  0.00  0.00    +0.000 A 
ATOM      9  C   UNL     1       1.267   7.585  20.353  0.00  0.00    +0.000 A 
ATOM     10  C   UNL     1       0.865   8.996  20.413  0.00  0.00    +0.000 A 
ATOM     11  O   UNL     1       0.118   9.347  21.324  0.00  0.00    +0.000 OA
ENDROOT
BRANCH   1  17
ATOM     12  C   UNL     1      -1.837  11.846  18.633  0.00  0.00    +0.000 C 
ATOM     13  C   UNL     1      -0.645  12.776  18.383  0.00  0.00    +0.000 C 
ATOM     14  C   UNL     1      -0.423  13.756  19.544  0.00  0.00    +0.000 C 
ATOM     15  C   UNL     1       0.128  13.066  20.791  0.00  0.00    +0.000 C 
ATOM     16  C   UNL     1       1.351  12.202  20.477  0.00  0.00    +0.000 C 
ATOM     17  N   UNL     1       1.030  11.281  19.372  0.00  0.00    +0.000 N 
ATOM     18  C   UNL     1       0.635  11.973  18.136  0.00  0.00    +0.000 C 
ENDBRANCH   1  17
BRANCH   5  19
ATOM     19  C   UNL     1       5.084   5.956  16.643  0.00  0.00    +0.000 A 
ATOM     20  C   UNL     1       4.841   5.090  15.567  0.00  0.00    +0.000 A 
ATOM     21  C   UNL     1       5.875   4.738  14.696  0.00  0.00    +0.000 A 
ATOM     22  C   UNL     1       7.159   5.245  14.894  0.00  0.00    +0.000 A 
ATOM     23  C   UNL     1       7.409   6.115  15.953  0.00  0.00    +0.000 A 
ATOM     24  C   UNL     1       6.377   6.470  16.825  0.00  0.00    +0.000 A 
ENDBRANCH   5  19
BRANCH   7  25
ATOM     25  C   UNL     1       2.028   4.656  20.065  0.00  0.00    +0.000 A 
ATOM     26  C   UNL     1       1.059   3.773  19.563  0.00  0.00    +0.000 A 
ATOM     27  C   UNL     1       0.664   2.644  20.286  0.00  0.00    +0.000 A 
ATOM     28  C   UNL     1       1.229   2.378  21.531  0.00  0.00    +0.000 A 
ATOM     29  C   UNL     1       2.152   3.265  22.073  0.00  0.00    +0.000 A 
ATOM     30  C   UNL     1       2.521   4.407  21.359  0.00  0.00    +0.000 A 
ENDBRANCH   7  25
TORSDOF 3
ENDMDL
MODEL 8
REMARK VINA RESULT:      -7.7      1.006      1.484
REMARK  Name = 
REMARK  4 active torsions:
REMARK  status: ('A' for Active; 'I' for Inactive)
REMARK    1  A    between atoms: C_1  and  C_2
REMARK    2  A    between atoms: N_6  and  C_7
REMARK    3  A    between atoms: C_11  and  C_12
REMARK    4  A    between atoms: N_19  and  C_20
REMARK                            x       y       z     vdW  Elec       q    Type
REMARK                         _______ _______ _______ _____ _____    ______ ____
ROOT
ATOM      1  C   UNL     1       1.470   9.210  19.410  0.00  0.00    +0.000 A 
ATOM      2  C   UNL     1       2.254   8.736  18.430  0.00  0.00    +0.000 A 
ATOM      3  C   UNL     1       2.788   7.358  18.378  0.00  0.00    +0.000 A 
ATOM      4  N   UNL     1       3.609   7.051  17.426  0.00  0.00    +0.000 NA
ATOM      5  C   UNL     1       4.122   5.774  17.425  0.00  0.00    +0.000 A 
ATOM      6  N   UNL     1       3.796   4.849  18.278  0.00  0.00    +0.000 NA
ATOM      7  N   UNL     1       2.871   5.125  19.253  0.00  0.00    +0.000 N 
ATOM      8  C   UNL     1       2.362   6.406  19.436  0.00  0.00    +0.000 A 
ATOM      9  C   UNL     1       1.625   6.888  20.443  0.00  0.00    +0.000 A 
ATOM     10  C   UNL     1       1.121   8.265  20.525  0.00  0.00    +0.000 A 
ATOM     11  O   UNL     1       0.455   8.579  21.509  0.00  0.00    +0.000 OA
ENDROOT
BRANCH   1  17
ATOM     12  C   UNL     1      -1.915  10.883  18.707  0.00  0.00    +0.000 C 
ATOM     13  C   UNL     1      -0.799  11.907  18.471  0.00  0.00    +0.000 C 
ATOM     14  C   UNL     1      -0.651  12.882  19.648  0.00  0.00    +0.000 C 
ATOM     15  C   UNL     1      -0.047  12.217  20.884  0.00  0.00    +0.000 C 
ATOM     16  C   UNL     1       1.238  11.455  20.556  0.00  0.00    +0.000 C 
ATOM     17  N   UNL     1       0.988  10.530  19.436  0.00  0.00    +0.000 N 
ATOM     18  C   UNL     1       0.540  11.209  18.211  0.00  0.00    +0.000 C 
ENDBRANCH   1  17
BRANCH   5  19
ATOM     19  C   UNL     1       5.122   5.467  16.352  0.00  0.00    +0.000 A 
ATOM     20  C   UNL     1       4.799   4.628  15.276  0.00  0.00    +0.000 A 
ATOM     21  C   UNL     1       5.755   4.333  14.299  0.00  0.00    +0.000 A 
ATOM     22  C   UNL     1       7.038   4.871  14.390  0.00  0.00    +0.000 A 
ATOM     23  C   UNL     1       7.365   5.715  15.449  0.00  0.00    +0.000 A 
ATOM     24  C   UNL     1       6.413   6.013  16.426  0.00  0.00    +0.000 A 
ENDBRANCH   5  19
BRANCH   7  25
ATOM     25  C   UNL     1       2.580   4.020  20.116  0.00  0.00    +0.000 A 
ATOM     26  C   UNL     1       3.579   3.091  20.447  0.00  0.00    +0.000 A 
ATOM     27  C   UNL     1       3.340   2.066  21.368  0.00  0.00    +0.000 A 
ATOM     28  C   UNL     1       2.090   1.948  21.972  0.00  0.00    +0.000 A 
ATOM     29  C   UNL     1       1.068   2.822  21.622  0.00  0.00    +0.000 A 
ATOM     30  C   UNL     1       1.304   3.826  20.680  0.00  0.00    +0.000 A 
ENDBRANCH   7  25
TORSDOF 3
ENDMDL
MODEL 9
REMARK VINA RESULT:      -7.5      3.854      8.030
REMARK  Name = 
REMARK  4 active torsions:
REMARK  status: ('A' for Active; 'I' for Inactive)
REMARK    1  A    between atoms: C_1  and  C_2
REMARK    2  A    between atoms: N_6  and  C_7
REMARK    3  A    between atoms: C_11  and  C_12
REMARK    4  A    between atoms: N_19  and  C_20
REMARK                            x       y       z     vdW  Elec       q    Type
REMARK                         _______ _______ _______ _____ _____    ______ ____
ROOT
ATOM      1  C   UNL     1      -3.620  11.524  18.505  0.00  0.00    +0.000 A 
ATOM      2  C   UNL     1      -2.791  12.432  19.041  0.00  0.00    +0.000 A 
ATOM      3  C   UNL     1      -1.375  12.175  19.383  0.00  0.00    +0.000 A 
ATOM      4  N   UNL     1      -0.707  13.108  19.981  0.00  0.00    +0.000 NA
ATOM      5  C   UNL     1       0.596  12.828  20.324  0.00  0.00    +0.000 A 
ATOM      6  N   UNL     1       1.209  11.717  20.040  0.00  0.00    +0.000 NA
ATOM      7  N   UNL     1       0.547  10.739  19.341  0.00  0.00    +0.000 N 
ATOM      8  C   UNL     1      -0.805  10.849  19.035  0.00  0.00    +0.000 A 
ATOM      9  C   UNL     1      -1.639   9.923  18.550  0.00  0.00    +0.000 A 
ATOM     10  C   UNL     1      -3.056  10.155  18.242  0.00  0.00    +0.000 A 
ATOM     11  O   UNL     1      -3.715   9.215  17.802  0.00  0.00    +0.000 OA
ENDROOT
BRANCH   1  17
ATOM     12  C   UNL     1      -6.412  13.581  20.153  0.00  0.00    +0.000 C 
ATOM     13  C   UNL     1      -7.048  12.471  19.309  0.00  0.00    +0.000 C 
ATOM     14  C   UNL     1      -7.567  12.994  17.961  0.00  0.00    +0.000 C 
ATOM     15  C   UNL     1      -6.434  13.346  16.998  0.00  0.00    +0.000 C 
ATOM     16  C   UNL     1      -5.420  12.209  16.863  0.00  0.00    +0.000 C 
ATOM     17  N   UNL     1      -4.964  11.796  18.203  0.00  0.00    +0.000 N 
ATOM     18  C   UNL     1      -6.056  11.328  19.069  0.00  0.00    +0.000 C 
ENDBRANCH   1  17
BRANCH   5  19
ATOM     19  C   UNL     1       1.324  13.900  21.076  0.00  0.00    +0.000 A 
ATOM     20  C   UNL     1       0.629  14.892  21.783  0.00  0.00    +0.000 A 
ATOM     21  C   UNL     1       1.325  15.899  22.457  0.00  0.00    +0.000 A 
ATOM     22  C   UNL     1       2.719  15.926  22.427  0.00  0.00    +0.000 A 
ATOM     23  C   UNL     1       3.420  14.939  21.737  0.00  0.00    +0.000 A 
ATOM     24  C   UNL     1       2.727  13.930  21.065  0.00  0.00    +0.000 A 
ENDBRANCH   5  19
BRANCH   7  25
ATOM     25  C   UNL     1       1.336   9.575  19.070  0.00  0.00    +0.000 A 
ATOM     26  C   UNL     1       1.481   8.571  20.041  0.00  0.00    +0.000 A 
ATOM     27  C   UNL     1       2.162   7.383  19.757  0.00  0.00    +0.000 A 
ATOM     28  C   UNL     1       2.715   7.178  18.495  0.00  0.00    +0.000 A 
ATOM     29  C   UNL     1       2.630   8.179  17.534  0.00  0.00    +0.000 A 
ATOM     30  C   UNL     1       1.975   9.375  17.832  0.00  0.00    +0.000 A 
ENDBRANCH   7  25
TORSDOF 3
ENDMDL
