MODEL 1
REMARK VINA RESULT:      -8.3      0.000      0.000
REMARK  Name = 
REMARK  4 active torsions:
REMARK  status: ('A' for Active; 'I' for Inactive)
REMARK    1  A    between atoms: C_7  and  C_8
REMARK    2  A    between atoms: C_14  and  C_15
REMARK    3  A    between atoms: C_25  and  C_26
REMARK    4  A    between atoms: C_30  and  O_31
REMARK                            x       y       z     vdW  Elec       q    Type
REMARK                         _______ _______ _______ _____ _____    ______ ____
ROOT
ATOM      1  O   UNL     1       0.490  16.239  18.850  0.00  0.00    +0.000 OA
ATOM      2  C   UNL     1       0.679  15.026  18.975  0.00  0.00    +0.000 C 
ATOM      3  N   UNL     1       1.715  14.439  18.293  0.00  0.00    +0.000 N 
ATOM      4  C   UNL     1       1.866  13.084  18.311  0.00  0.00    +0.000 A 
ATOM      5  N   UNL     1       2.826  12.367  17.663  0.00  0.00    +0.000 N 
ATOM      6  N   UNL     1       2.698  11.039  17.849  0.00  0.00    +0.000 NA
ATOM      7  C   UNL     1       1.579  10.906  18.587  0.00  0.00    +0.000 A 
ATOM      8  C   UNL     1       1.036  12.183  18.922  0.00  0.00    +0.000 A 
ATOM      9  C   UNL     1      -0.185  12.603  19.680  0.00  0.00    +0.000 C 
ATOM     10  C   UNL     1      -0.221  14.143  19.896  0.00  0.00    +0.000 C 
ATOM     11  H   UNL     1       2.311  15.053  17.749  0.00  0.00    +0.000 HD
ATOM     12  H   UNL     1       3.572  12.702  17.061  0.00  0.00    +0.000 HD
ENDROOT
BRANCH   7  13
ATOM     13  C   UNL     1       0.941   9.544  18.796  0.00  0.00    +0.000 C 
ATOM     14  C   UNL     1       0.832   9.043  20.241  0.00  0.00    +0.000 C 
ATOM     15  C   UNL     1       1.890   8.043  20.707  0.00  0.00    +0.000 C 
ATOM     16  N   UNL     1       2.342   7.150  19.649  0.00  0.00    +0.000 N 
ATOM     17  C   UNL     1       2.074   5.793  19.692  0.00  0.00    +0.000 A 
ATOM     18  C   UNL     1       2.948   4.902  19.065  0.00  0.00    +0.000 A 
ATOM     19  C   UNL     1       2.727   3.520  19.095  0.00  0.00    +0.000 A 
ATOM     20  C   UNL     1       1.599   3.053  19.760  0.00  0.00    +0.000 A 
ATOM     21  C   UNL     1       0.777   3.988  20.370  0.00  0.00    +0.000 A 
ATOM     22  N   UNL     1       0.999   5.325  20.359  0.00  0.00    +0.000 NA
ATOM     23  C   UNL     1       2.712   7.779  18.388  0.00  0.00    +0.000 C 
ATOM     24  C   UNL     1       1.501   8.501  17.819  0.00  0.00    +0.000 C 
BRANCH  19  25
ATOM     25  C   UNL     1       3.698   2.576  18.442  0.00  0.00    +0.000 C 
ATOM     26  F   UNL     1       3.135   1.796  17.475  0.00  0.00    +0.000 F 
ATOM     27  F   UNL     1       4.730   3.227  17.839  0.00  0.00    +0.000 F 
ATOM     28  F   UNL     1       4.266   1.713  19.328  0.00  0.00    +0.000 F 
ENDBRANCH  19  25
ENDBRANCH   7  13
BRANCH   9  29
ATOM     29  C   UNL     1      -1.491  11.983  19.167  0.00  0.00    +0.000 C 
ATOM     30  F   UNL     1      -2.588  12.501  19.771  0.00  0.00    +0.000 F 
ATOM     31  F   UNL     1      -1.629  12.241  17.840  0.00  0.00    +0.000 F 
ATOM     32  F   UNL     1      -1.593  10.650  19.334  0.00  0.00    +0.000 F 
ENDBRANCH   9  29
BRANCH  10  33
ATOM     33  O   UNL     1      -1.542  14.684  19.970  0.00  0.00    +0.000 OA
ATOM     34  H   UNL     1      -1.959  14.580  19.084  0.00  0.00    +0.000 HD
ENDBRANCH  10  33
TORSDOF 4
ENDMDL
MODEL 2
REMARK VINA RESULT:      -7.8      0.822      1.074
REMARK  Name = 
REMARK  4 active torsions:
REMARK  status: ('A' for Active; 'I' for Inactive)
REMARK    1  A    between atoms: C_7  and  C_8
REMARK    2  A    between atoms: C_14  and  C_15
REMARK    3  A    between atoms: C_25  and  C_26
REMARK    4  A    between atoms: C_30  and  O_31
REMARK                            x       y       z     vdW  Elec       q    Type
REMARK                         _______ _______ _______ _____ _____    ______ ____
ROOT
ATOM      1  O   UNL     1      -0.836  16.347  19.196  0.00  0.00    +0.000 OA
ATOM      2  C   UNL     1      -0.488  15.168  19.298  0.00  0.00    +0.000 C 
ATOM      3  N   UNL     1       0.659  14.754  18.668  0.00  0.00    +0.000 N 
ATOM      4  C   UNL     1       0.996  13.433  18.655  0.00  0.00    +0.000 A 
ATOM      5  N   UNL     1       2.084  12.880  18.050  0.00  0.00    +0.000 N 
ATOM      6  N   UNL     1       2.131  11.541  18.189  0.00  0.00    +0.000 NA
ATOM      7  C   UNL     1       0.999  11.228  18.849  0.00  0.00    +0.000 A 
ATOM      8  C   UNL     1       0.264  12.404  19.185  0.00  0.00    +0.000 A 
ATOM      9  C   UNL     1      -1.047  12.624  19.873  0.00  0.00    +0.000 C 
ATOM     10  C   UNL     1      -1.310  14.135  20.131  0.00  0.00    +0.000 C 
ATOM     11  H   UNL     1       1.196  15.464  18.181  0.00  0.00    +0.000 HD
ATOM     12  H   UNL     1       2.811  13.337  17.509  0.00  0.00    +0.000 HD
ENDROOT
BRANCH   7  13
ATOM     13  C   UNL     1       0.546   9.784  18.976  0.00  0.00    +0.000 C 
ATOM     14  C   UNL     1       0.413   9.220  20.396  0.00  0.00    +0.000 C 
ATOM     15  C   UNL     1       1.567   8.360  20.907  0.00  0.00    +0.000 C 
ATOM     16  N   UNL     1       2.208   7.576  19.859  0.00  0.00    +0.000 N 
ATOM     17  C   UNL     1       2.131   6.195  19.847  0.00  0.00    +0.000 A 
ATOM     18  C   UNL     1       3.161   5.456  19.259  0.00  0.00    +0.000 A 
ATOM     19  C   UNL     1       3.133   4.056  19.236  0.00  0.00    +0.000 A 
ATOM     20  C   UNL     1       2.040   3.415  19.808  0.00  0.00    +0.000 A 
ATOM     21  C   UNL     1       1.057   4.204  20.383  0.00  0.00    +0.000 A 
ATOM     22  N   UNL     1       1.091   5.559  20.424  0.00  0.00    +0.000 NA
ATOM     23  C   UNL     1       2.569   8.296  18.645  0.00  0.00    +0.000 C 
ATOM     24  C   UNL     1       1.309   8.865  18.013  0.00  0.00    +0.000 C 
BRANCH  19  25
ATOM     25  C   UNL     1       4.267   3.280  18.627  0.00  0.00    +0.000 C 
ATOM     26  F   UNL     1       3.929   2.631  17.477  0.00  0.00    +0.000 F 
ATOM     27  F   UNL     1       5.327   4.071  18.309  0.00  0.00    +0.000 F 
ATOM     28  F   UNL     1       4.753   2.321  19.462  0.00  0.00    +0.000 F 
ENDBRANCH  19  25
ENDBRANCH   7  13
BRANCH   9  29
ATOM     29  C   UNL     1      -2.220  11.851  19.259  0.00  0.00    +0.000 C 
ATOM     30  F   UNL     1      -2.263  11.950  17.908  0.00  0.00    +0.000 F 
ATOM     31  F   UNL     1      -2.092  10.527  19.540  0.00  0.00    +0.000 F 
ATOM     32  F   UNL     1      -3.441  12.238  19.679  0.00  0.00    +0.000 F 
ENDBRANCH   9  29
BRANCH  10  33
ATOM     33  O   UNL     1      -2.696  14.486  20.135  0.00  0.00    +0.000 OA
ATOM     34  H   UNL     1      -2.844  15.128  19.403  0.00  0.00    +0.000 HD
ENDBRANCH  10  33
TORSDOF 4
ENDMDL
MODEL 3
REMARK VINA RESULT:      -7.7      1.182      1.542
REMARK  Name = 
REMARK  4 active torsions:
REMARK  status: ('A' for Active; 'I' for Inactive)
REMARK    1  A    between atoms: C_7  and  C_8
REMARK    2  A    between atoms: C_14  and  C_15
REMARK    3  A    between atoms: C_25  and  C_26
REMARK    4  A    between atoms: C_30  and  O_31
REMARK                            x       y       z     vdW  Elec       q    Type
REMARK                         _______ _______ _______ _____ _____    ______ ____
ROOT
ATOM      1  O   UNL     1      -1.195  16.229  19.620  0.00  0.00    +0.000 OA
ATOM      2  C   UNL     1      -0.786  15.065  19.629  0.00  0.00    +0.000 C 
ATOM      3  N   UNL     1       0.446  14.786  19.092  0.00  0.00    +0.000 N 
ATOM      4  C   UNL     1       0.864  13.494  18.971  0.00  0.00    +0.000 A 
ATOM      5  N   UNL     1       2.044  13.071  18.437  0.00  0.00    +0.000 N 
ATOM      6  N   UNL     1       2.159  11.729  18.430  0.00  0.00    +0.000 NA
ATOM      7  C   UNL     1       0.985  11.284  18.917  0.00  0.00    +0.000 A 
ATOM      8  C   UNL     1       0.145  12.375  19.295  0.00  0.00    +0.000 A 
ATOM      9  C   UNL     1      -1.244  12.446  19.849  0.00  0.00    +0.000 C 
ATOM     10  C   UNL     1      -1.628  13.902  20.242  0.00  0.00    +0.000 C 
ATOM     11  H   UNL     1       0.987  15.575  18.753  0.00  0.00    +0.000 HD
ATOM     12  H   UNL     1       2.795  13.624  18.037  0.00  0.00    +0.000 HD
ENDROOT
BRANCH   7  13
ATOM     13  C   UNL     1       0.612   9.815  18.829  0.00  0.00    +0.000 C 
ATOM     14  C   UNL     1       0.653   9.009  20.133  0.00  0.00    +0.000 C 
ATOM     15  C   UNL     1       1.891   8.147  20.372  0.00  0.00    +0.000 C 
ATOM     16  N   UNL     1       2.453   7.595  19.146  0.00  0.00    +0.000 N 
ATOM     17  C   UNL     1       2.437   6.234  18.897  0.00  0.00    +0.000 A 
ATOM     18  C   UNL     1       3.431   5.673  18.093  0.00  0.00    +0.000 A 
ATOM     19  C   UNL     1       3.463   4.299  17.825  0.00  0.00    +0.000 A 
ATOM     20  C   UNL     1       2.465   3.502  18.376  0.00  0.00    +0.000 A 
ATOM     21  C   UNL     1       1.514   4.119  19.173  0.00  0.00    +0.000 A 
ATOM     22  N   UNL     1       1.491   5.447  19.450  0.00  0.00    +0.000 NA
ATOM     23  C   UNL     1       2.653   8.534  18.050  0.00  0.00    +0.000 C 
ATOM     24  C   UNL     1       1.310   9.123  17.650  0.00  0.00    +0.000 C 
BRANCH  19  25
ATOM     25  C   UNL     1       4.560   3.710  16.984  0.00  0.00    +0.000 C 
ATOM     26  F   UNL     1       5.813   4.013  17.430  0.00  0.00    +0.000 F 
ATOM     27  F   UNL     1       4.504   2.351  16.933  0.00  0.00    +0.000 F 
ATOM     28  F   UNL     1       4.516   4.135  15.692  0.00  0.00    +0.000 F 
ENDBRANCH  19  25
ENDBRANCH   7  13
BRANCH   9  29
ATOM     29  C   UNL     1      -2.293  11.694  19.022  0.00  0.00    +0.000 C 
ATOM     30  F   UNL     1      -3.554  11.878  19.483  0.00  0.00    +0.000 F 
ATOM     31  F   UNL     1      -2.284  12.155  17.743  0.00  0.00    +0.000 F 
ATOM     32  F   UNL     1      -2.129  10.357  18.972  0.00  0.00    +0.000 F 
ENDBRANCH   9  29
BRANCH  10  33
ATOM     33  O   UNL     1      -3.025  14.181  20.126  0.00  0.00    +0.000 OA
ATOM     34  H   UNL     1      -3.504  13.567  20.729  0.00  0.00    +0.000 HD
ENDBRANCH  10  33
TORSDOF 4
ENDMDL
MODEL 4
REMARK VINA RESULT:      -7.7      0.940      1.388
REMARK  Name = 
REMARK  4 active torsions:
REMARK  status: ('A' for Active; 'I' for Inactive)
REMARK    1  A    between atoms: C_7  and  C_8
REMARK    2  A    between atoms: C_14  and  C_15
REMARK    3  A    between atoms: C_25  and  C_26
REMARK    4  A    between atoms: C_30  and  O_31
REMARK                            x       y       z     vdW  Elec       q    Type
REMARK                         _______ _______ _______ _____ _____    ______ ____
ROOT
ATOM      1  O   UNL     1       1.186  16.035  20.385  0.00  0.00    +0.000 OA
ATOM      2  C   UNL     1       1.289  14.818  20.213  0.00  0.00    +0.000 C 
ATOM      3  N   UNL     1       1.927  14.355  19.090  0.00  0.00    +0.000 N 
ATOM      4  C   UNL     1       1.940  13.020  18.810  0.00  0.00    +0.000 A 
ATOM      5  N   UNL     1       2.509  12.425  17.724  0.00  0.00    +0.000 N 
ATOM      6  N   UNL     1       2.331  11.090  17.710  0.00  0.00    +0.000 NA
ATOM      7  C   UNL     1       1.568  10.838  18.790  0.00  0.00    +0.000 A 
ATOM      8  C   UNL     1       1.319  12.034  19.528  0.00  0.00    +0.000 A 
ATOM      9  C   UNL     1       0.522  12.323  20.763  0.00  0.00    +0.000 C 
ATOM     10  C   UNL     1       0.721  13.789  21.241  0.00  0.00    +0.000 C 
ATOM     11  H   UNL     1       2.331  15.051  18.472  0.00  0.00    +0.000 HD
ATOM     12  H   UNL     1       3.001  12.857  16.948  0.00  0.00    +0.000 HD
ENDROOT
BRANCH   7  13
ATOM     13  C   UNL     1       0.926   9.476  18.990  0.00  0.00    +0.000 C 
ATOM     14  C   UNL     1       0.908   8.919  20.418  0.00  0.00    +0.000 C 
ATOM     15  C   UNL     1       1.981   7.890  20.770  0.00  0.00    +0.000 C 
ATOM     16  N   UNL     1       2.346   7.034  19.650  0.00  0.00    +0.000 N 
ATOM     17  C   UNL     1       2.063   5.680  19.658  0.00  0.00    +0.000 A 
ATOM     18  C   UNL     1       2.879   4.804  18.938  0.00  0.00    +0.000 A 
ATOM     19  C   UNL     1       2.640   3.424  18.929  0.00  0.00    +0.000 A 
ATOM     20  C   UNL     1       1.553   2.945  19.652  0.00  0.00    +0.000 A 
ATOM     21  C   UNL     1       0.789   3.864  20.353  0.00  0.00    +0.000 A 
ATOM     22  N   UNL     1       1.029   5.198  20.379  0.00  0.00    +0.000 NA
ATOM     23  C   UNL     1       2.639   7.708  18.392  0.00  0.00    +0.000 C 
ATOM     24  C   UNL     1       1.402   8.467  17.936  0.00  0.00    +0.000 C 
BRANCH  19  25
ATOM     25  C   UNL     1       3.550   2.496  18.175  0.00  0.00    +0.000 C 
ATOM     26  F   UNL     1       4.472   3.142  17.405  0.00  0.00    +0.000 F 
ATOM     27  F   UNL     1       4.261   1.680  19.000  0.00  0.00    +0.000 F 
ATOM     28  F   UNL     1       2.873   1.673  17.327  0.00  0.00    +0.000 F 
ENDBRANCH  19  25
ENDBRANCH   7  13
BRANCH   9  29
ATOM     29  C   UNL     1      -0.935  11.847  20.700  0.00  0.00    +0.000 C 
ATOM     30  F   UNL     1      -1.266  11.333  19.491  0.00  0.00    +0.000 F 
ATOM     31  F   UNL     1      -1.129  10.851  21.604  0.00  0.00    +0.000 F 
ATOM     32  F   UNL     1      -1.856  12.800  20.942  0.00  0.00    +0.000 F 
ENDBRANCH   9  29
BRANCH  10  33
ATOM     33  O   UNL     1      -0.414  14.334  21.918  0.00  0.00    +0.000 OA
ATOM     34  H   UNL     1      -0.463  13.913  22.806  0.00  0.00    +0.000 HD
ENDBRANCH  10  33
TORSDOF 4
ENDMDL
MODEL 5
REMARK VINA RESULT:      -7.7      2.582      3.345
REMARK  Name = 
REMARK  4 active torsions:
REMARK  status: ('A' for Active; 'I' for Inactive)
REMARK    1  A    between atoms: C_7  and  C_8
REMARK    2  A    between atoms: C_14  and  C_15
REMARK    3  A    between atoms: C_25  and  C_26
REMARK    4  A    between atoms: C_30  and  O_31
REMARK                            x       y       z     vdW  Elec       q    Type
REMARK                         _______ _______ _______ _____ _____    ______ ____
ROOT
ATOM      1  O   UNL     1      -3.469  15.698  20.769  0.00  0.00    +0.000 OA
ATOM      2  C   UNL     1      -2.952  14.579  20.820  0.00  0.00    +0.000 C 
ATOM      3  N   UNL     1      -1.661  14.461  21.271  0.00  0.00    +0.000 N 
ATOM      4  C   UNL     1      -1.023  13.257  21.215  0.00  0.00    +0.000 A 
ATOM      5  N   UNL     1       0.258  13.000  21.601  0.00  0.00    +0.000 N 
ATOM      6  N   UNL     1       0.615  11.717  21.397  0.00  0.00    +0.000 NA
ATOM      7  C   UNL     1      -0.456  11.158  20.802  0.00  0.00    +0.000 A 
ATOM      8  C   UNL     1      -1.526  12.096  20.691  0.00  0.00    +0.000 A 
ATOM      9  C   UNL     1      -2.897  12.012  20.097  0.00  0.00    +0.000 C 
ATOM     10  C   UNL     1      -3.728  13.293  20.395  0.00  0.00    +0.000 C 
ATOM     11  H   UNL     1      -1.208  15.311  21.590  0.00  0.00    +0.000 HD
ATOM     12  H   UNL     1       0.949  13.642  21.978  0.00  0.00    +0.000 HD
ENDROOT
BRANCH   7  13
ATOM     13  C   UNL     1      -0.364   9.779  20.171  0.00  0.00    +0.000 C 
ATOM     14  C   UNL     1       0.058   8.624  21.086  0.00  0.00    +0.000 C 
ATOM     15  C   UNL     1       1.520   8.185  21.014  0.00  0.00    +0.000 C 
ATOM     16  N   UNL     1       2.095   8.319  19.682  0.00  0.00    +0.000 N 
ATOM     17  C   UNL     1       2.474   7.209  18.949  0.00  0.00    +0.000 A 
ATOM     18  C   UNL     1       3.504   7.325  18.013  0.00  0.00    +0.000 A 
ATOM     19  C   UNL     1       3.932   6.225  17.258  0.00  0.00    +0.000 A 
ATOM     20  C   UNL     1       3.291   5.008  17.458  0.00  0.00    +0.000 A 
ATOM     21  C   UNL     1       2.283   4.957  18.407  0.00  0.00    +0.000 A 
ATOM     22  N   UNL     1       1.880   6.015  19.153  0.00  0.00    +0.000 NA
ATOM     23  C   UNL     1       1.882   9.596  19.014  0.00  0.00    +0.000 C 
ATOM     24  C   UNL     1       0.388   9.818  18.834  0.00  0.00    +0.000 C 
BRANCH  19  25
ATOM     25  C   UNL     1       5.065   6.364  16.281  0.00  0.00    +0.000 C 
ATOM     26  F   UNL     1       6.152   7.008  16.792  0.00  0.00    +0.000 F 
ATOM     27  F   UNL     1       5.521   5.160  15.839  0.00  0.00    +0.000 F 
ATOM     28  F   UNL     1       4.712   7.062  15.166  0.00  0.00    +0.000 F 
ENDBRANCH  19  25
ENDBRANCH   7  13
BRANCH   9  29
ATOM     29  C   UNL     1      -2.926  11.538  18.639  0.00  0.00    +0.000 C 
ATOM     30  F   UNL     1      -4.091  11.836  18.015  0.00  0.00    +0.000 F 
ATOM     31  F   UNL     1      -1.947  12.165  17.936  0.00  0.00    +0.000 F 
ATOM     32  F   UNL     1      -2.763  10.212  18.467  0.00  0.00    +0.000 F 
ENDBRANCH   9  29
BRANCH  10  33
ATOM     33  O   UNL     1      -4.693  13.602  19.387  0.00  0.00    +0.000 OA
ATOM     34  H   UNL     1      -4.414  14.440  18.952  0.00  0.00    +0.000 HD
ENDBRANCH  10  33
TORSDOF 4
ENDMDL
MODEL 6
REMARK VINA RESULT:      -7.6      1.857      2.385
REMARK  Name = 
REMARK  4 active torsions:
REMARK  status: ('A' for Active; 'I' for Inactive)
REMARK    1  A    between atoms: C_7  and  C_8
REMARK    2  A    between atoms: C_14  and  C_15
REMARK    3  A    between atoms: C_25  and  C_26
REMARK    4  A    between atoms: C_30  and  O_31
REMARK                            x       y       z     vdW  Elec       q    Type
REMARK                         _______ _______ _______ _____ _____    ______ ____
ROOT
ATOM      1  O   UNL     1      -2.239  15.721  20.394  0.00  0.00    +0.000 OA
ATOM      2  C   UNL     1      -1.727  14.601  20.329  0.00  0.00    +0.000 C 
ATOM      3  N   UNL     1      -0.369  14.496  20.162  0.00  0.00    +0.000 N 
ATOM      4  C   UNL     1       0.205  13.276  19.957  0.00  0.00    +0.000 A 
ATOM      5  N   UNL     1       1.528  13.027  19.752  0.00  0.00    +0.000 N 
ATOM      6  N   UNL     1       1.786  11.720  19.550  0.00  0.00    +0.000 NA
ATOM      7  C   UNL     1       0.576  11.129  19.564  0.00  0.00    +0.000 A 
ATOM      8  C   UNL     1      -0.452  12.080  19.844  0.00  0.00    +0.000 A 
ATOM      9  C   UNL     1      -1.942  11.970  19.943  0.00  0.00    +0.000 C 
ATOM     10  C   UNL     1      -2.580  13.298  20.441  0.00  0.00    +0.000 C 
ATOM     11  H   UNL     1       0.159  15.362  20.149  0.00  0.00    +0.000 HD
ATOM     12  H   UNL     1       2.299  13.686  19.706  0.00  0.00    +0.000 HD
ENDROOT
BRANCH   7  13
ATOM     13  C   UNL     1       0.407   9.689  19.114  0.00  0.00    +0.000 C 
ATOM     14  C   UNL     1       0.503   8.607  20.196  0.00  0.00    +0.000 C 
ATOM     15  C   UNL     1       1.835   7.869  20.318  0.00  0.00    +0.000 C 
ATOM     16  N   UNL     1       2.516   7.697  19.042  0.00  0.00    +0.000 N 
ATOM     17  C   UNL     1       2.692   6.443  18.485  0.00  0.00    +0.000 A 
ATOM     18  C   UNL     1       3.785   6.213  17.646  0.00  0.00    +0.000 A 
ATOM     19  C   UNL     1       4.013   4.956  17.072  0.00  0.00    +0.000 A 
ATOM     20  C   UNL     1       3.109   3.937  17.352  0.00  0.00    +0.000 A 
ATOM     21  C   UNL     1       2.051   4.227  18.200  0.00  0.00    +0.000 A 
ATOM     22  N   UNL     1       1.840   5.438  18.772  0.00  0.00    +0.000 NA
ATOM     23  C   UNL     1       2.632   8.886  18.208  0.00  0.00    +0.000 C 
ATOM     24  C   UNL     1       1.240   9.387  17.860  0.00  0.00    +0.000 C 
BRANCH  19  25
ATOM     25  C   UNL     1       5.213   4.721  16.199  0.00  0.00    +0.000 C 
ATOM     26  F   UNL     1       6.222   4.051  16.825  0.00  0.00    +0.000 F 
ATOM     27  F   UNL     1       4.914   3.990  15.090  0.00  0.00    +0.000 F 
ATOM     28  F   UNL     1       5.766   5.880  15.745  0.00  0.00    +0.000 F 
ENDBRANCH  19  25
ENDBRANCH   7  13
BRANCH   9  29
ATOM     29  C   UNL     1      -2.612  11.342  18.714  0.00  0.00    +0.000 C 
ATOM     30  F   UNL     1      -3.956  11.507  18.710  0.00  0.00    +0.000 F 
ATOM     31  F   UNL     1      -2.151  11.944  17.586  0.00  0.00    +0.000 F 
ATOM     32  F   UNL     1      -2.419  10.016  18.575  0.00  0.00    +0.000 F 
ENDBRANCH   9  29
BRANCH  10  33
ATOM     33  O   UNL     1      -3.903  13.523  19.947  0.00  0.00    +0.000 OA
ATOM     34  H   UNL     1      -4.363  12.653  19.918  0.00  0.00    +0.000 HD
ENDBRANCH  10  33
TORSDOF 4
ENDMDL
MODEL 7
REMARK VINA RESULT:      -7.6      0.822      1.083
REMARK  Name = 
REMARK  4 active torsions:
REMARK  status: ('A' for Active; 'I' for Inactive)
REMARK    1  A    between atoms: C_7  and  C_8
REMARK    2  A    between atoms: C_14  and  C_15
REMARK    3  A    between atoms: C_25  and  C_26
REMARK    4  A    between atoms: C_30  and  O_31
REMARK                            x       y       z     vdW  Elec       q    Type
REMARK                         _______ _______ _______ _____ _____    ______ ____
ROOT
ATOM      1  O   UNL     1       1.024  16.239  20.008  0.00  0.00    +0.000 OA
ATOM      2  C   UNL     1       1.147  15.014  19.926  0.00  0.00    +0.000 C 
ATOM      3  N   UNL     1       1.864  14.485  18.883  0.00  0.00    +0.000 N 
ATOM      4  C   UNL     1       1.907  13.134  18.696  0.00  0.00    +0.000 A 
ATOM      5  N   UNL     1       2.553  12.475  17.694  0.00  0.00    +0.000 N 
ATOM      6  N   UNL     1       2.387  11.139  17.760  0.00  0.00    +0.000 NA
ATOM      7  C   UNL     1       1.553  10.952  18.800  0.00  0.00    +0.000 A 
ATOM      8  C   UNL     1       1.245  12.192  19.436  0.00  0.00    +0.000 A 
ATOM      9  C   UNL     1       0.364  12.553  20.592  0.00  0.00    +0.000 C 
ATOM     10  C   UNL     1       0.519  14.051  20.981  0.00  0.00    +0.000 C 
ATOM     11  H   UNL     1       2.304  15.143  18.248  0.00  0.00    +0.000 HD
ATOM     12  H   UNL     1       3.094  12.859  16.925  0.00  0.00    +0.000 HD
ENDROOT
BRANCH   7  13
ATOM     13  C   UNL     1       0.909   9.599  19.048  0.00  0.00    +0.000 C 
ATOM     14  C   UNL     1       1.007   9.033  20.470  0.00  0.00    +0.000 C 
ATOM     15  C   UNL     1       2.090   7.985  20.722  0.00  0.00    +0.000 C 
ATOM     16  N   UNL     1       2.342   7.130  19.570  0.00  0.00    +0.000 N 
ATOM     17  C   UNL     1       2.039   5.781  19.596  0.00  0.00    +0.000 A 
ATOM     18  C   UNL     1       2.776   4.897  18.804  0.00  0.00    +0.000 A 
ATOM     19  C   UNL     1       2.515   3.522  18.809  0.00  0.00    +0.000 A 
ATOM     20  C   UNL     1       1.488   3.055  19.622  0.00  0.00    +0.000 A 
ATOM     21  C   UNL     1       0.802   3.981  20.391  0.00  0.00    +0.000 A 
ATOM     22  N   UNL     1       1.065   5.311  20.403  0.00  0.00    +0.000 NA
ATOM     23  C   UNL     1       2.535   7.808  18.295  0.00  0.00    +0.000 C 
ATOM     24  C   UNL     1       1.276   8.589  17.953  0.00  0.00    +0.000 C 
BRANCH  19  25
ATOM     25  C   UNL     1       3.341   2.584  17.974  0.00  0.00    +0.000 C 
ATOM     26  F   UNL     1       4.129   1.748  18.708  0.00  0.00    +0.000 F 
ATOM     27  F   UNL     1       2.577   1.778  17.187  0.00  0.00    +0.000 F 
ATOM     28  F   UNL     1       4.184   3.240  17.130  0.00  0.00    +0.000 F 
ENDBRANCH  19  25
ENDBRANCH   7  13
BRANCH   9  29
ATOM     29  C   UNL     1      -1.082  12.057  20.463  0.00  0.00    +0.000 C 
ATOM     30  F   UNL     1      -1.964  12.836  21.133  0.00  0.00    +0.000 F 
ATOM     31  F   UNL     1      -1.460  12.087  19.158  0.00  0.00    +0.000 F 
ATOM     32  F   UNL     1      -1.298  10.808  20.920  0.00  0.00    +0.000 F 
ENDBRANCH   9  29
BRANCH  10  33
ATOM     33  O   UNL     1      -0.664  14.627  21.541  0.00  0.00    +0.000 OA
ATOM     34  H   UNL     1      -1.198  13.896  21.928  0.00  0.00    +0.000 HD
ENDBRANCH  10  33
TORSDOF 4
ENDMDL
MODEL 8
REMARK VINA RESULT:      -7.2      1.291      1.597
REMARK  Name = 
REMARK  4 active torsions:
REMARK  status: ('A' for Active; 'I' for Inactive)
REMARK    1  A    between atoms: C_7  and  C_8
REMARK    2  A    between atoms: C_14  and  C_15
REMARK    3  A    between atoms: C_25  and  C_26
REMARK    4  A    between atoms: C_30  and  O_31
REMARK                            x       y       z     vdW  Elec       q    Type
REMARK                         _______ _______ _______ _____ _____    ______ ____
ROOT
ATOM      1  O   UNL     1       0.513  16.241  21.010  0.00  0.00    +0.000 OA
ATOM      2  C   UNL     1       0.689  15.037  20.807  0.00  0.00    +0.000 C 
ATOM      3  N   UNL     1       1.330  14.641  19.660  0.00  0.00    +0.000 N 
ATOM      4  C   UNL     1       1.422  13.317  19.348  0.00  0.00    +0.000 A 
ATOM      5  N   UNL     1       2.003  12.784  18.237  0.00  0.00    +0.000 N 
ATOM      6  N   UNL     1       1.911  11.441  18.195  0.00  0.00    +0.000 NA
ATOM      7  C   UNL     1       1.189  11.116  19.285  0.00  0.00    +0.000 A 
ATOM      8  C   UNL     1       0.881  12.277  20.056  0.00  0.00    +0.000 A 
ATOM      9  C   UNL     1       0.096  12.486  21.314  0.00  0.00    +0.000 C 
ATOM     10  C   UNL     1       0.212  13.951  21.823  0.00  0.00    +0.000 C 
ATOM     11  H   UNL     1       1.674  15.376  19.051  0.00  0.00    +0.000 HD
ATOM     12  H   UNL     1       2.449  13.264  17.461  0.00  0.00    +0.000 HD
ENDROOT
BRANCH   7  13
ATOM     13  C   UNL     1       0.641   9.712  19.466  0.00  0.00    +0.000 C 
ATOM     14  C   UNL     1       0.861   9.050  20.832  0.00  0.00    +0.000 C 
ATOM     15  C   UNL     1       2.015   8.055  20.938  0.00  0.00    +0.000 C 
ATOM     16  N   UNL     1       2.242   7.304  19.710  0.00  0.00    +0.000 N 
ATOM     17  C   UNL     1       2.018   5.940  19.650  0.00  0.00    +0.000 A 
ATOM     18  C   UNL     1       2.751   5.164  18.750  0.00  0.00    +0.000 A 
ATOM     19  C   UNL     1       2.570   3.779  18.665  0.00  0.00    +0.000 A 
ATOM     20  C   UNL     1       1.625   3.191  19.498  0.00  0.00    +0.000 A 
ATOM     21  C   UNL     1       0.938   4.015  20.376  0.00  0.00    +0.000 A 
ATOM     22  N   UNL     1       1.126   5.354  20.474  0.00  0.00    +0.000 NA
ATOM     23  C   UNL     1       2.314   8.085  18.482  0.00  0.00    +0.000 C 
ATOM     24  C   UNL     1       0.994   8.809  18.276  0.00  0.00    +0.000 C 
BRANCH  19  25
ATOM     25  C   UNL     1       3.393   2.957  17.712  0.00  0.00    +0.000 C 
ATOM     26  F   UNL     1       3.273   1.613  17.905  0.00  0.00    +0.000 F 
ATOM     27  F   UNL     1       3.056   3.177  16.412  0.00  0.00    +0.000 F 
ATOM     28  F   UNL     1       4.724   3.226  17.804  0.00  0.00    +0.000 F 
ENDBRANCH  19  25
ENDBRANCH   7  13
BRANCH   9  29
ATOM     29  C   UNL     1      -1.328  11.919  21.271  0.00  0.00    +0.000 C 
ATOM     30  F   UNL     1      -1.694  11.516  20.030  0.00  0.00    +0.000 F 
ATOM     31  F   UNL     1      -1.406  10.820  22.066  0.00  0.00    +0.000 F 
ATOM     32  F   UNL     1      -2.293  12.773  21.663  0.00  0.00    +0.000 F 
ENDBRANCH   9  29
BRANCH  10  33
ATOM     33  O   UNL     1      -0.940  14.407  22.536  0.00  0.00    +0.000 OA
ATOM     34  H   UNL     1      -1.210  13.691  23.156  0.00  0.00    +0.000 HD
ENDBRANCH  10  33
TORSDOF 4
ENDMDL
MODEL 9
REMARK VINA RESULT:      -7.1      4.601      9.219
REMARK  Name = 
REMARK  4 active torsions:
REMARK  status: ('A' for Active; 'I' for Inactive)
REMARK    1  A    between atoms: C_7  and  C_8
REMARK    2  A    between atoms: C_14  and  C_15
REMARK    3  A    between atoms: C_25  and  C_26
REMARK    4  A    between atoms: C_30  and  O_31
REMARK                            x       y       z     vdW  Elec       q    Type
REMARK                         _______ _______ _______ _____ _____    ______ ____
ROOT
ATOM      1  O   UNL     1       5.085   0.786  19.799  0.00  0.00    +0.000 OA
ATOM      2  C   UNL     1       4.583   1.842  19.405  0.00  0.00    +0.000 C 
ATOM      3  N   UNL     1       5.283   3.012  19.561  0.00  0.00    +0.000 N 
ATOM      4  C   UNL     1       4.701   4.206  19.255  0.00  0.00    +0.000 A 
ATOM      5  N   UNL     1       5.263   5.440  19.384  0.00  0.00    +0.000 N 
ATOM      6  N   UNL     1       4.427   6.433  19.026  0.00  0.00    +0.000 NA
ATOM      7  C   UNL     1       3.272   5.811  18.721  0.00  0.00    +0.000 A 
ATOM      8  C   UNL     1       3.412   4.394  18.830  0.00  0.00    +0.000 A 
ATOM      9  C   UNL     1       2.456   3.258  18.641  0.00  0.00    +0.000 C 
ATOM     10  C   UNL     1       3.179   1.883  18.725  0.00  0.00    +0.000 C 
ATOM     11  H   UNL     1       6.215   2.939  19.957  0.00  0.00    +0.000 HD
ATOM     12  H   UNL     1       6.186   5.684  19.731  0.00  0.00    +0.000 HD
ENDROOT
BRANCH   7  13
ATOM     13  C   UNL     1       1.992   6.601  18.517  0.00  0.00    +0.000 C 
ATOM     14  C   UNL     1       2.050   7.776  17.534  0.00  0.00    +0.000 C 
ATOM     15  C   UNL     1       2.204   9.172  18.134  0.00  0.00    +0.000 C 
ATOM     16  N   UNL     1       1.538   9.321  19.422  0.00  0.00    +0.000 N 
ATOM     17  C   UNL     1       0.448  10.159  19.573  0.00  0.00    +0.000 A 
ATOM     18  C   UNL     1       0.200  10.742  20.818  0.00  0.00    +0.000 A 
ATOM     19  C   UNL     1      -0.883  11.608  21.015  0.00  0.00    +0.000 A 
ATOM     20  C   UNL     1      -1.718  11.867  19.934  0.00  0.00    +0.000 A 
ATOM     21  C   UNL     1      -1.411  11.265  18.724  0.00  0.00    +0.000 A 
ATOM     22  N   UNL     1      -0.353  10.441  18.525  0.00  0.00    +0.000 NA
ATOM     23  C   UNL     1       1.798   8.279  20.406  0.00  0.00    +0.000 C 
ATOM     24  C   UNL     1       1.320   6.945  19.854  0.00  0.00    +0.000 C 
BRANCH  19  25
ATOM     25  C   UNL     1      -1.113  12.250  22.355  0.00  0.00    +0.000 C 
ATOM     26  F   UNL     1      -0.945  11.398  23.405  0.00  0.00    +0.000 F 
ATOM     27  F   UNL     1      -0.269  13.292  22.584  0.00  0.00    +0.000 F 
ATOM     28  F   UNL     1      -2.372  12.752  22.486  0.00  0.00    +0.000 F 
ENDBRANCH  19  25
ENDBRANCH   7  13
BRANCH   9  29
ATOM     29  C   UNL     1       1.169   3.372  19.466  0.00  0.00    +0.000 C 
ATOM     30  F   UNL     1       0.328   2.327  19.272  0.00  0.00    +0.000 F 
ATOM     31  F   UNL     1       1.474   3.374  20.790  0.00  0.00    +0.000 F 
ATOM     32  F   UNL     1       0.428   4.470  19.219  0.00  0.00    +0.000 F 
ENDBRANCH   9  29
BRANCH  10  33
ATOM     33  O   UNL     1       2.353   0.827  19.220  0.00  0.00    +0.000 OA
ATOM     34  H   UNL     1       2.328   0.901  20.201  0.00  0.00    +0.000 HD
ENDBRANCH  10  33
TORSDOF 4
ENDMDL
