MODEL 1
REMARK VINA RESULT:      -8.4      0.000      0.000
REMARK  Name = 
REMARK  7 active torsions:
REMARK  status: ('A' for Active; 'I' for Inactive)
REMARK    1  A    between atoms: C_1  and  C_2
REMARK    2  A    between atoms: C_5  and  C_6
REMARK    3  A    between atoms: C_6  and  C_7
REMARK    4  A    between atoms: N_11  and  C_12
REMARK    5  A    between atoms: C_12  and  C_13
REMARK    6  A    between atoms: C_14  and  C_15
REMARK    7  A    between atoms: C_18  and  C_19
REMARK                            x       y       z     vdW  Elec       q    Type
REMARK                         _______ _______ _______ _____ _____    ______ ____
ROOT
ATOM      1  C   UNL     1       2.435   5.664  19.256  0.00  0.00    +0.000 C 
ATOM      2  C   UNL     1       2.012   4.872  20.507  0.00  0.00    +0.000 C 
ATOM      3  N   UNL     1       1.945   4.957  18.090  0.00  0.00    +0.000 N 
ATOM      4  C   UNL     1       2.916   4.158  17.534  0.00  0.00    +0.000 C 
ATOM      5  O   UNL     1       2.687   3.281  16.714  0.00  0.00    +0.000 OA
ATOM      6  N   UNL     1       4.117   4.484  18.086  0.00  0.00    +0.000 N 
ATOM      7  C   UNL     1       3.949   5.421  19.070  0.00  0.00    +0.000 C 
ATOM      8  O   UNL     1       4.837   5.889  19.772  0.00  0.00    +0.000 OA
ATOM      9  H   UNL     1       0.968   4.794  17.888  0.00  0.00    +0.000 HD
ENDROOT
BRANCH   1  14
ATOM     10  C   UNL     1       0.761  11.281  19.209  0.00  0.00    +0.000 C 
ATOM     11  C   UNL     1       1.246   9.862  19.232  0.00  0.00    +0.000 A 
ATOM     12  C   UNL     1       1.782   9.269  18.089  0.00  0.00    +0.000 A 
ATOM     13  C   UNL     1       2.183   7.929  18.105  0.00  0.00    +0.000 A 
ATOM     14  C   UNL     1       2.068   7.140  19.265  0.00  0.00    +0.000 A 
ATOM     15  C   UNL     1       1.536   7.756  20.412  0.00  0.00    +0.000 A 
ATOM     16  C   UNL     1       1.134   9.098  20.397  0.00  0.00    +0.000 A 
ENDBRANCH   1  14
BRANCH   6  17
ATOM     17  C   UNL     1       5.360   3.800  17.808  0.00  0.00    +0.000 C 
BRANCH  17  18
ATOM     18  C   UNL     1       6.240   4.631  16.947  0.00  0.00    +0.000 A 
ATOM     19  C   UNL     1       6.246   4.743  15.527  0.00  0.00    +0.000 A 
ATOM     20  C   UNL     1       5.404   4.055  14.519  0.00  0.00    +0.000 C 
ATOM     21  N   UNL     1       7.156   5.632  15.111  0.00  0.00    +0.000 NA
ATOM     22  O   UNL     1       7.761   6.116  16.250  0.00  0.00    +0.000 OA
ATOM     23  C   UNL     1       7.214   5.526  17.344  0.00  0.00    +0.000 A 
ATOM     24  C   UNL     1       7.747   5.961  18.649  0.00  0.00    +0.000 C 
ENDBRANCH  17  18
ENDBRANCH   6  17
TORSDOF 3
ENDMDL
MODEL 2
REMARK VINA RESULT:      -8.3      0.491      1.714
REMARK  Name = 
REMARK  7 active torsions:
REMARK  status: ('A' for Active; 'I' for Inactive)
REMARK    1  A    between atoms: C_1  and  C_2
REMARK    2  A    between atoms: C_5  and  C_6
REMARK    3  A    between atoms: C_6  and  C_7
REMARK    4  A    between atoms: N_11  and  C_12
REMARK    5  A    between atoms: C_12  and  C_13
REMARK    6  A    between atoms: C_14  and  C_15
REMARK    7  A    between atoms: C_18  and  C_19
REMARK                            x       y       z     vdW  Elec       q    Type
REMARK                         _______ _______ _______ _____ _____    ______ ____
ROOT
ATOM      1  C   UNL     1       2.433   5.524  19.392  0.00  0.00    +0.000 C 
ATOM      2  C   UNL     1       2.113   4.663  20.627  0.00  0.00    +0.000 C 
ATOM      3  N   UNL     1       1.890   4.857  18.226  0.00  0.00    +0.000 N 
ATOM      4  C   UNL     1       2.845   4.114  17.573  0.00  0.00    +0.000 C 
ATOM      5  O   UNL     1       2.589   3.269  16.728  0.00  0.00    +0.000 OA
ATOM      6  N   UNL     1       4.069   4.451  18.063  0.00  0.00    +0.000 N 
ATOM      7  C   UNL     1       3.939   5.336  19.099  0.00  0.00    +0.000 C 
ATOM      8  O   UNL     1       4.856   5.799  19.766  0.00  0.00    +0.000 OA
ATOM      9  H   UNL     1       0.906   4.673  18.078  0.00  0.00    +0.000 HD
ENDROOT
BRANCH   1  14
ATOM     10  C   UNL     1       0.607  11.085  19.703  0.00  0.00    +0.000 C 
ATOM     11  C   UNL     1       1.130   9.681  19.635  0.00  0.00    +0.000 A 
ATOM     12  C   UNL     1       1.668   9.173  18.452  0.00  0.00    +0.000 A 
ATOM     13  C   UNL     1       2.106   7.846  18.383  0.00  0.00    +0.000 A 
ATOM     14  C   UNL     1       2.026   6.986  19.494  0.00  0.00    +0.000 A 
ATOM     15  C   UNL     1       1.491   7.516  20.682  0.00  0.00    +0.000 A 
ATOM     16  C   UNL     1       1.053   8.845  20.753  0.00  0.00    +0.000 A 
ENDBRANCH   1  14
BRANCH   6  17
ATOM     17  C   UNL     1       5.310   3.820  17.676  0.00  0.00    +0.000 C 
BRANCH  17  18
ATOM     18  C   UNL     1       6.098   4.705  16.781  0.00  0.00    +0.000 A 
ATOM     19  C   UNL     1       7.118   5.639  17.125  0.00  0.00    +0.000 A 
ATOM     20  C   UNL     1       7.657   6.005  18.457  0.00  0.00    +0.000 C 
ATOM     21  N   UNL     1       7.635   6.221  16.036  0.00  0.00    +0.000 NA
ATOM     22  O   UNL     1       6.964   5.679  14.962  0.00  0.00    +0.000 OA
ATOM     23  C   UNL     1       6.054   4.773  15.402  0.00  0.00    +0.000 A 
ATOM     24  C   UNL     1       5.267   4.088  14.359  0.00  0.00    +0.000 C 
ENDBRANCH  17  18
ENDBRANCH   6  17
TORSDOF 3
ENDMDL
MODEL 3
REMARK VINA RESULT:      -8.2      0.097      1.007
REMARK  Name = 
REMARK  7 active torsions:
REMARK  status: ('A' for Active; 'I' for Inactive)
REMARK    1  A    between atoms: C_1  and  C_2
REMARK    2  A    between atoms: C_5  and  C_6
REMARK    3  A    between atoms: C_6  and  C_7
REMARK    4  A    between atoms: N_11  and  C_12
REMARK    5  A    between atoms: C_12  and  C_13
REMARK    6  A    between atoms: C_14  and  C_15
REMARK    7  A    between atoms: C_18  and  C_19
REMARK                            x       y       z     vdW  Elec       q    Type
REMARK                         _______ _______ _______ _____ _____    ______ ____
ROOT
ATOM      1  C   UNL     1       2.394   5.643  19.226  0.00  0.00    +0.000 C 
ATOM      2  C   UNL     1       1.979   4.868  20.489  0.00  0.00    +0.000 C 
ATOM      3  N   UNL     1       1.931   4.902  18.070  0.00  0.00    +0.000 N 
ATOM      4  C   UNL     1       2.925   4.114  17.539  0.00  0.00    +0.000 C 
ATOM      5  O   UNL     1       2.724   3.216  16.736  0.00  0.00    +0.000 OA
ATOM      6  N   UNL     1       4.113   4.480  18.093  0.00  0.00    +0.000 N 
ATOM      7  C   UNL     1       3.915   5.432  19.056  0.00  0.00    +0.000 C 
ATOM      8  O   UNL     1       4.785   5.936  19.756  0.00  0.00    +0.000 OA
ATOM      9  H   UNL     1       0.959   4.712  17.864  0.00  0.00    +0.000 HD
ENDROOT
BRANCH   1  14
ATOM     10  C   UNL     1       1.104  11.362  19.206  0.00  0.00    +0.000 C 
ATOM     11  C   UNL     1       1.376   9.886  19.200  0.00  0.00    +0.000 A 
ATOM     12  C   UNL     1       1.205   9.122  20.354  0.00  0.00    +0.000 A 
ATOM     13  C   UNL     1       1.511   7.757  20.354  0.00  0.00    +0.000 A 
ATOM     14  C   UNL     1       1.991   7.111  19.200  0.00  0.00    +0.000 A 
ATOM     15  C   UNL     1       2.148   7.893  18.042  0.00  0.00    +0.000 A 
ATOM     16  C   UNL     1       1.842   9.259  18.040  0.00  0.00    +0.000 A 
ENDBRANCH   1  14
BRANCH   6  17
ATOM     17  C   UNL     1       5.374   3.821  17.841  0.00  0.00    +0.000 C 
BRANCH  17  18
ATOM     18  C   UNL     1       6.247   4.659  16.979  0.00  0.00    +0.000 A 
ATOM     19  C   UNL     1       6.248   4.776  15.559  0.00  0.00    +0.000 A 
ATOM     20  C   UNL     1       5.407   4.086  14.552  0.00  0.00    +0.000 C 
ATOM     21  N   UNL     1       7.152   5.671  15.144  0.00  0.00    +0.000 NA
ATOM     22  O   UNL     1       7.756   6.156  16.283  0.00  0.00    +0.000 OA
ATOM     23  C   UNL     1       7.216   5.559  17.376  0.00  0.00    +0.000 A 
ATOM     24  C   UNL     1       7.750   5.994  18.681  0.00  0.00    +0.000 C 
ENDBRANCH  17  18
ENDBRANCH   6  17
TORSDOF 3
ENDMDL
MODEL 4
REMARK VINA RESULT:      -8.1      0.442      1.974
REMARK  Name = 
REMARK  7 active torsions:
REMARK  status: ('A' for Active; 'I' for Inactive)
REMARK    1  A    between atoms: C_1  and  C_2
REMARK    2  A    between atoms: C_5  and  C_6
REMARK    3  A    between atoms: C_6  and  C_7
REMARK    4  A    between atoms: N_11  and  C_12
REMARK    5  A    between atoms: C_12  and  C_13
REMARK    6  A    between atoms: C_14  and  C_15
REMARK    7  A    between atoms: C_18  and  C_19
REMARK                            x       y       z     vdW  Elec       q    Type
REMARK                         _______ _______ _______ _____ _____    ______ ____
ROOT
ATOM      1  C   UNL     1       2.385   5.568  19.329  0.00  0.00    +0.000 C 
ATOM      2  C   UNL     1       2.040   4.740  20.580  0.00  0.00    +0.000 C 
ATOM      3  N   UNL     1       1.897   4.852  18.167  0.00  0.00    +0.000 N 
ATOM      4  C   UNL     1       2.891   4.111  17.572  0.00  0.00    +0.000 C 
ATOM      5  O   UNL     1       2.684   3.234  16.747  0.00  0.00    +0.000 OA
ATOM      6  N   UNL     1       4.090   4.492  18.093  0.00  0.00    +0.000 N 
ATOM      7  C   UNL     1       3.903   5.406  19.095  0.00  0.00    +0.000 C 
ATOM      8  O   UNL     1       4.786   5.911  19.778  0.00  0.00    +0.000 OA
ATOM      9  H   UNL     1       0.924   4.642  17.991  0.00  0.00    +0.000 HD
ENDROOT
BRANCH   1  14
ATOM     10  C   UNL     1       0.939  11.245  19.560  0.00  0.00    +0.000 C 
ATOM     11  C   UNL     1       1.251   9.779  19.490  0.00  0.00    +0.000 A 
ATOM     12  C   UNL     1       1.115   8.963  20.613  0.00  0.00    +0.000 A 
ATOM     13  C   UNL     1       1.458   7.608  20.553  0.00  0.00    +0.000 A 
ATOM     14  C   UNL     1       1.942   7.024  19.369  0.00  0.00    +0.000 A 
ATOM     15  C   UNL     1       2.063   7.857  18.242  0.00  0.00    +0.000 A 
ATOM     16  C   UNL     1       1.720   9.213  18.300  0.00  0.00    +0.000 A 
ENDBRANCH   1  14
BRANCH   6  17
ATOM     17  C   UNL     1       5.358   3.877  17.770  0.00  0.00    +0.000 C 
BRANCH  17  18
ATOM     18  C   UNL     1       6.170   4.765  16.900  0.00  0.00    +0.000 A 
ATOM     19  C   UNL     1       7.173   5.705  17.276  0.00  0.00    +0.000 A 
ATOM     20  C   UNL     1       7.667   6.075  18.624  0.00  0.00    +0.000 C 
ATOM     21  N   UNL     1       7.723   6.287  16.204  0.00  0.00    +0.000 NA
ATOM     22  O   UNL     1       7.091   5.740  15.109  0.00  0.00    +0.000 OA
ATOM     23  C   UNL     1       6.171   4.830  15.521  0.00  0.00    +0.000 A 
ATOM     24  C   UNL     1       5.421   4.140  14.454  0.00  0.00    +0.000 C 
ENDBRANCH  17  18
ENDBRANCH   6  17
TORSDOF 3
ENDMDL
MODEL 5
REMARK VINA RESULT:      -7.7      2.508      6.665
REMARK  Name = 
REMARK  7 active torsions:
REMARK  status: ('A' for Active; 'I' for Inactive)
REMARK    1  A    between atoms: C_1  and  C_2
REMARK    2  A    between atoms: C_5  and  C_6
REMARK    3  A    between atoms: C_6  and  C_7
REMARK    4  A    between atoms: N_11  and  C_12
REMARK    5  A    between atoms: C_12  and  C_13
REMARK    6  A    between atoms: C_14  and  C_15
REMARK    7  A    between atoms: C_18  and  C_19
REMARK                            x       y       z     vdW  Elec       q    Type
REMARK                         _______ _______ _______ _____ _____    ______ ____
ROOT
ATOM      1  C   UNL     1       6.032   5.942  16.509  0.00  0.00    +0.000 C 
ATOM      2  C   UNL     1       7.205   6.850  16.921  0.00  0.00    +0.000 C 
ATOM      3  N   UNL     1       4.812   6.718  16.594  0.00  0.00    +0.000 N 
ATOM      4  C   UNL     1       4.155   6.506  17.783  0.00  0.00    +0.000 C 
ATOM      5  O   UNL     1       3.256   7.220  18.200  0.00  0.00    +0.000 OA
ATOM      6  N   UNL     1       4.709   5.426  18.400  0.00  0.00    +0.000 N 
ATOM      7  C   UNL     1       5.787   4.974  17.688  0.00  0.00    +0.000 C 
ATOM      8  O   UNL     1       6.513   4.039  18.004  0.00  0.00    +0.000 OA
ATOM      9  H   UNL     1       4.617   7.540  16.039  0.00  0.00    +0.000 HD
ENDROOT
BRANCH   1  14
ATOM     10  C   UNL     1       6.805   2.973  11.514  0.00  0.00    +0.000 C 
ATOM     11  C   UNL     1       6.585   3.779  12.761  0.00  0.00    +0.000 A 
ATOM     12  C   UNL     1       7.546   4.687  13.204  0.00  0.00    +0.000 A 
ATOM     13  C   UNL     1       7.357   5.396  14.396  0.00  0.00    +0.000 A 
ATOM     14  C   UNL     1       6.200   5.225  15.177  0.00  0.00    +0.000 A 
ATOM     15  C   UNL     1       5.235   4.314  14.710  0.00  0.00    +0.000 A 
ATOM     16  C   UNL     1       5.423   3.604  13.518  0.00  0.00    +0.000 A 
ENDBRANCH   1  14
BRANCH   6  17
ATOM     17  C   UNL     1       4.335   4.949  19.712  0.00  0.00    +0.000 C 
BRANCH  17  18
ATOM     18  C   UNL     1       3.038   4.227  19.664  0.00  0.00    +0.000 A 
ATOM     19  C   UNL     1       1.767   4.646  20.153  0.00  0.00    +0.000 A 
ATOM     20  C   UNL     1       1.389   5.893  20.860  0.00  0.00    +0.000 C 
ATOM     21  N   UNL     1       0.818   3.742  19.882  0.00  0.00    +0.000 NA
ATOM     22  O   UNL     1       1.450   2.718  19.212  0.00  0.00    +0.000 OA
ATOM     23  C   UNL     1       2.770   3.007  19.076  0.00  0.00    +0.000 A 
ATOM     24  C   UNL     1       3.580   2.007  18.355  0.00  0.00    +0.000 C 
ENDBRANCH  17  18
ENDBRANCH   6  17
TORSDOF 3
ENDMDL
MODEL 6
REMARK VINA RESULT:      -7.7      2.549      6.573
REMARK  Name = 
REMARK  7 active torsions:
REMARK  status: ('A' for Active; 'I' for Inactive)
REMARK    1  A    between atoms: C_1  and  C_2
REMARK    2  A    between atoms: C_5  and  C_6
REMARK    3  A    between atoms: C_6  and  C_7
REMARK    4  A    between atoms: N_11  and  C_12
REMARK    5  A    between atoms: C_12  and  C_13
REMARK    6  A    between atoms: C_14  and  C_15
REMARK    7  A    between atoms: C_18  and  C_19
REMARK                            x       y       z     vdW  Elec       q    Type
REMARK                         _______ _______ _______ _____ _____    ______ ____
ROOT
ATOM      1  C   UNL     1       6.013   5.938  16.542  0.00  0.00    +0.000 C 
ATOM      2  C   UNL     1       7.194   6.827  16.971  0.00  0.00    +0.000 C 
ATOM      3  N   UNL     1       4.803   6.730  16.617  0.00  0.00    +0.000 N 
ATOM      4  C   UNL     1       4.130   6.522  17.798  0.00  0.00    +0.000 C 
ATOM      5  O   UNL     1       3.236   7.247  18.208  0.00  0.00    +0.000 OA
ATOM      6  N   UNL     1       4.662   5.431  18.415  0.00  0.00    +0.000 N 
ATOM      7  C   UNL     1       5.741   4.967  17.713  0.00  0.00    +0.000 C 
ATOM      8  O   UNL     1       6.450   4.021  18.032  0.00  0.00    +0.000 OA
ATOM      9  H   UNL     1       4.625   7.558  16.064  0.00  0.00    +0.000 HD
ENDROOT
BRANCH   1  14
ATOM     10  C   UNL     1       6.798   2.983  11.540  0.00  0.00    +0.000 C 
ATOM     11  C   UNL     1       6.577   3.786  12.788  0.00  0.00    +0.000 A 
ATOM     12  C   UNL     1       7.549   4.672  13.251  0.00  0.00    +0.000 A 
ATOM     13  C   UNL     1       7.357   5.378  14.444  0.00  0.00    +0.000 A 
ATOM     14  C   UNL     1       6.185   5.226  15.208  0.00  0.00    +0.000 A 
ATOM     15  C   UNL     1       5.210   4.337  14.722  0.00  0.00    +0.000 A 
ATOM     16  C   UNL     1       5.401   3.630  13.528  0.00  0.00    +0.000 A 
ENDBRANCH   1  14
BRANCH   6  17
ATOM     17  C   UNL     1       4.266   4.953  19.721  0.00  0.00    +0.000 C 
BRANCH  17  18
ATOM     18  C   UNL     1       2.942   4.283  19.661  0.00  0.00    +0.000 A 
ATOM     19  C   UNL     1       2.618   2.999  19.136  0.00  0.00    +0.000 A 
ATOM     20  C   UNL     1       3.493   1.991  18.490  0.00  0.00    +0.000 C 
ATOM     21  N   UNL     1       1.320   2.717  19.303  0.00  0.00    +0.000 NA
ATOM     22  O   UNL     1       0.774   3.810  19.939  0.00  0.00    +0.000 OA
ATOM     23  C   UNL     1       1.738   4.740  20.158  0.00  0.00    +0.000 A 
ATOM     24  C   UNL     1       1.307   5.967  20.854  0.00  0.00    +0.000 C 
ENDBRANCH  17  18
ENDBRANCH   6  17
TORSDOF 3
ENDMDL
MODEL 7
REMARK VINA RESULT:      -7.7      2.537      6.593
REMARK  Name = 
REMARK  7 active torsions:
REMARK  status: ('A' for Active; 'I' for Inactive)
REMARK    1  A    between atoms: C_1  and  C_2
REMARK    2  A    between atoms: C_5  and  C_6
REMARK    3  A    between atoms: C_6  and  C_7
REMARK    4  A    between atoms: N_11  and  C_12
REMARK    5  A    between atoms: C_12  and  C_13
REMARK    6  A    between atoms: C_14  and  C_15
REMARK    7  A    between atoms: C_18  and  C_19
REMARK                            x       y       z     vdW  Elec       q    Type
REMARK                         _______ _______ _______ _____ _____    ______ ____
ROOT
ATOM      1  C   UNL     1       6.053   5.928  16.628  0.00  0.00    +0.000 C 
ATOM      2  C   UNL     1       7.210   6.852  17.050  0.00  0.00    +0.000 C 
ATOM      3  N   UNL     1       4.830   6.704  16.641  0.00  0.00    +0.000 N 
ATOM      4  C   UNL     1       4.131   6.532  17.813  0.00  0.00    +0.000 C 
ATOM      5  O   UNL     1       3.216   7.259  18.172  0.00  0.00    +0.000 OA
ATOM      6  N   UNL     1       4.663   5.475  18.486  0.00  0.00    +0.000 N 
ATOM      7  C   UNL     1       5.766   5.001  17.830  0.00  0.00    +0.000 C 
ATOM      8  O   UNL     1       6.480   4.079  18.203  0.00  0.00    +0.000 OA
ATOM      9  H   UNL     1       4.654   7.507  16.052  0.00  0.00    +0.000 HD
ENDROOT
BRANCH   1  14
ATOM     10  C   UNL     1       6.752   3.200  11.487  0.00  0.00    +0.000 C 
ATOM     11  C   UNL     1       6.597   3.850  12.830  0.00  0.00    +0.000 A 
ATOM     12  C   UNL     1       5.470   3.609  13.616  0.00  0.00    +0.000 A 
ATOM     13  C   UNL     1       5.308   4.260  14.844  0.00  0.00    +0.000 A 
ATOM     14  C   UNL     1       6.269   5.167  15.328  0.00  0.00    +0.000 A 
ATOM     15  C   UNL     1       7.405   5.390  14.529  0.00  0.00    +0.000 A 
ATOM     16  C   UNL     1       7.568   4.738  13.300  0.00  0.00    +0.000 A 
ENDBRANCH   1  14
BRANCH   6  17
ATOM     17  C   UNL     1       4.242   5.043  19.800  0.00  0.00    +0.000 C 
BRANCH  17  18
ATOM     18  C   UNL     1       2.923   4.363  19.736  0.00  0.00    +0.000 A 
ATOM     19  C   UNL     1       2.614   3.066  19.232  0.00  0.00    +0.000 A 
ATOM     20  C   UNL     1       3.504   2.053  18.616  0.00  0.00    +0.000 C 
ATOM     21  N   UNL     1       1.317   2.778  19.388  0.00  0.00    +0.000 NA
ATOM     22  O   UNL     1       0.754   3.879  19.996  0.00  0.00    +0.000 OA
ATOM     23  C   UNL     1       1.709   4.821  20.209  0.00  0.00    +0.000 A 
ATOM     24  C   UNL     1       1.261   6.058  20.876  0.00  0.00    +0.000 C 
ENDBRANCH  17  18
ENDBRANCH   6  17
TORSDOF 3
ENDMDL
MODEL 8
REMARK VINA RESULT:      -7.7      2.503      6.668
REMARK  Name = 
REMARK  7 active torsions:
REMARK  status: ('A' for Active; 'I' for Inactive)
REMARK    1  A    between atoms: C_1  and  C_2
REMARK    2  A    between atoms: C_5  and  C_6
REMARK    3  A    between atoms: C_6  and  C_7
REMARK    4  A    between atoms: N_11  and  C_12
REMARK    5  A    between atoms: C_12  and  C_13
REMARK    6  A    between atoms: C_14  and  C_15
REMARK    7  A    between atoms: C_18  and  C_19
REMARK                            x       y       z     vdW  Elec       q    Type
REMARK                         _______ _______ _______ _____ _____    ______ ____
ROOT
ATOM      1  C   UNL     1       6.049   5.946  16.636  0.00  0.00    +0.000 C 
ATOM      2  C   UNL     1       7.188   6.896  17.052  0.00  0.00    +0.000 C 
ATOM      3  N   UNL     1       4.810   6.696  16.654  0.00  0.00    +0.000 N 
ATOM      4  C   UNL     1       4.120   6.511  17.830  0.00  0.00    +0.000 C 
ATOM      5  O   UNL     1       3.192   7.218  18.192  0.00  0.00    +0.000 OA
ATOM      6  N   UNL     1       4.678   5.467  18.502  0.00  0.00    +0.000 N 
ATOM      7  C   UNL     1       5.788   5.015  17.841  0.00  0.00    +0.000 C 
ATOM      8  O   UNL     1       6.524   4.109  18.213  0.00  0.00    +0.000 OA
ATOM      9  H   UNL     1       4.614   7.493  16.064  0.00  0.00    +0.000 HD
ENDROOT
BRANCH   1  14
ATOM     10  C   UNL     1       6.786   3.226  11.496  0.00  0.00    +0.000 C 
ATOM     11  C   UNL     1       6.621   3.874  12.839  0.00  0.00    +0.000 A 
ATOM     12  C   UNL     1       5.495   3.623  13.622  0.00  0.00    +0.000 A 
ATOM     13  C   UNL     1       5.324   4.272  14.850  0.00  0.00    +0.000 A 
ATOM     14  C   UNL     1       6.275   5.187  15.337  0.00  0.00    +0.000 A 
ATOM     15  C   UNL     1       7.411   5.420  14.541  0.00  0.00    +0.000 A 
ATOM     16  C   UNL     1       7.583   4.771  13.312  0.00  0.00    +0.000 A 
ENDBRANCH   1  14
BRANCH   6  17
ATOM     17  C   UNL     1       4.272   5.028  19.818  0.00  0.00    +0.000 C 
BRANCH  17  18
ATOM     18  C   UNL     1       2.988   4.285  19.756  0.00  0.00    +0.000 A 
ATOM     19  C   UNL     1       1.698   4.700  20.198  0.00  0.00    +0.000 A 
ATOM     20  C   UNL     1       1.282   5.962  20.856  0.00  0.00    +0.000 C 
ATOM     21  N   UNL     1       0.769   3.775  19.929  0.00  0.00    +0.000 NA
ATOM     22  O   UNL     1       1.433   2.740  19.308  0.00  0.00    +0.000 OA
ATOM     23  C   UNL     1       2.752   3.044  19.199  0.00  0.00    +0.000 A 
ATOM     24  C   UNL     1       3.596   2.034  18.532  0.00  0.00    +0.000 C 
ENDBRANCH  17  18
ENDBRANCH   6  17
TORSDOF 3
ENDMDL
MODEL 9
REMARK VINA RESULT:      -7.6      2.594      6.372
REMARK  Name = 
REMARK  7 active torsions:
REMARK  status: ('A' for Active; 'I' for Inactive)
REMARK    1  A    between atoms: C_1  and  C_2
REMARK    2  A    between atoms: C_5  and  C_6
REMARK    3  A    between atoms: C_6  and  C_7
REMARK    4  A    between atoms: N_11  and  C_12
REMARK    5  A    between atoms: C_12  and  C_13
REMARK    6  A    between atoms: C_14  and  C_15
REMARK    7  A    between atoms: C_18  and  C_19
REMARK                            x       y       z     vdW  Elec       q    Type
REMARK                         _______ _______ _______ _____ _____    ______ ____
ROOT
ATOM      1  C   UNL     1       5.606   5.889  17.280  0.00  0.00    +0.000 C 
ATOM      2  C   UNL     1       6.822   6.512  17.990  0.00  0.00    +0.000 C 
ATOM      3  N   UNL     1       4.581   6.906  17.168  0.00  0.00    +0.000 N 
ATOM      4  C   UNL     1       3.652   6.806  18.178  0.00  0.00    +0.000 C 
ATOM      5  O   UNL     1       2.849   7.685  18.452  0.00  0.00    +0.000 OA
ATOM      6  N   UNL     1       3.827   5.616  18.815  0.00  0.00    +0.000 N 
ATOM      7  C   UNL     1       4.919   4.963  18.309  0.00  0.00    +0.000 C 
ATOM      8  O   UNL     1       5.353   3.886  18.697  0.00  0.00    +0.000 OA
ATOM      9  H   UNL     1       4.682   7.767  16.647  0.00  0.00    +0.000 HD
ENDROOT
BRANCH   1  14
ATOM     10  C   UNL     1       6.685   3.430  12.069  0.00  0.00    +0.000 C 
ATOM     11  C   UNL     1       6.423   4.007  13.429  0.00  0.00    +0.000 A 
ATOM     12  C   UNL     1       5.176   3.865  14.038  0.00  0.00    +0.000 A 
ATOM     13  C   UNL     1       4.923   4.451  15.284  0.00  0.00    +0.000 A 
ATOM     14  C   UNL     1       5.909   5.191  15.962  0.00  0.00    +0.000 A 
ATOM     15  C   UNL     1       7.164   5.315  15.340  0.00  0.00    +0.000 A 
ATOM     16  C   UNL     1       7.418   4.729  14.094  0.00  0.00    +0.000 A 
ENDBRANCH   1  14
BRANCH   6  17
ATOM     17  C   UNL     1       3.089   5.193  19.983  0.00  0.00    +0.000 C 
BRANCH  17  18
ATOM     18  C   UNL     1       2.235   4.018  19.673  0.00  0.00    +0.000 A 
ATOM     19  C   UNL     1       1.494   3.744  18.488  0.00  0.00    +0.000 A 
ATOM     20  C   UNL     1       1.346   4.554  17.254  0.00  0.00    +0.000 C 
ATOM     21  N   UNL     1       0.881   2.556  18.558  0.00  0.00    +0.000 NA
ATOM     22  O   UNL     1       1.211   2.032  19.789  0.00  0.00    +0.000 OA
ATOM     23  C   UNL     1       2.021   2.898  20.452  0.00  0.00    +0.000 A 
ATOM     24  C   UNL     1       2.478   2.464  21.785  0.00  0.00    +0.000 C 
ENDBRANCH  17  18
ENDBRANCH   6  17
TORSDOF 3
ENDMDL
