MODEL 1
REMARK VINA RESULT:      -6.4      0.000      0.000
REMARK  Name = 
REMARK  5 active torsions:
REMARK  status: ('A' for Active; 'I' for Inactive)
REMARK    1  A    between atoms: O_1  and  C_2
REMARK    2  A    between atoms: C_5  and  C_6
REMARK    3  A    between atoms: C_6  and  O_7
REMARK    4  A    between atoms: C_6  and  C_8
REMARK    5  A    between atoms: C_14  and  O_15
REMARK                            x       y       z     vdW  Elec       q    Type
REMARK                         _______ _______ _______ _____ _____    ______ ____
ROOT
ATOM      1  C   UNL     1       6.906   4.518  17.624  0.00  0.00    +0.000 A 
ATOM      2  C   UNL     1       6.040   4.302  16.557  0.00  0.00    +0.000 A 
ATOM      3  C   UNL     1       4.682   4.608  16.692  0.00  0.00    +0.000 A 
ATOM      4  C   UNL     1       4.169   5.122  17.896  0.00  0.00    +0.000 A 
ATOM      5  C   UNL     1       5.068   5.366  18.948  0.00  0.00    +0.000 A 
ATOM      6  C   UNL     1       6.422   5.056  18.814  0.00  0.00    +0.000 A 
ENDROOT
BRANCH   1   7
ATOM      7  O   UNL     1       8.233   4.211  17.516  0.00  0.00    +0.000 OA
ATOM      8  H   UNL     1       8.690   4.504  18.318  0.00  0.00    +0.000 HD
ENDBRANCH   1   7
BRANCH   6   9
ATOM      9  O   UNL     1       7.284   5.279  19.852  0.00  0.00    +0.000 OA
ATOM     10  H   UNL     1       7.226   6.213  20.110  0.00  0.00    +0.000 HD
ENDBRANCH   6   9
BRANCH   4  11
ATOM     11  C   UNL     1       2.689   5.442  17.988  0.00  0.00    +0.000 C 
BRANCH  11  12
ATOM     12  C   UNL     1       1.807   4.339  18.599  0.00  0.00    +0.000 C 
ATOM     13  N   UNL     1       1.443   3.281  17.905  0.00  0.00    +0.000 NA
ATOM     14  C   UNL     1       0.601   2.501  18.858  0.00  0.00    +0.000 C 
ATOM     15  C   UNL     1       0.935   3.038  20.250  0.00  0.00    +0.000 C 
ATOM     16  N   UNL     1       1.414   4.361  19.921  0.00  0.00    +0.000 N 
ATOM     17  H   UNL     1       2.048   4.801  20.581  0.00  0.00    +0.000 HD
ENDBRANCH  11  12
BRANCH  11  18
ATOM     18  O   UNL     1       2.518   6.639  18.739  0.00  0.00    +0.000 OA
ATOM     19  H   UNL     1       3.006   7.317  18.233  0.00  0.00    +0.000 HD
ENDBRANCH  11  18
ENDBRANCH   4  11
TORSDOF 5
ENDMDL
MODEL 2
REMARK VINA RESULT:      -6.3      2.839      5.299
REMARK  Name = 
REMARK  5 active torsions:
REMARK  status: ('A' for Active; 'I' for Inactive)
REMARK    1  A    between atoms: O_1  and  C_2
REMARK    2  A    between atoms: C_5  and  C_6
REMARK    3  A    between atoms: C_6  and  O_7
REMARK    4  A    between atoms: C_6  and  C_8
REMARK    5  A    between atoms: C_14  and  O_15
REMARK                            x       y       z     vdW  Elec       q    Type
REMARK                         _______ _______ _______ _____ _____    ______ ____
ROOT
ATOM      1  C   UNL     1       1.510   3.760  19.520  0.00  0.00    +0.000 A 
ATOM      2  C   UNL     1       1.578   3.123  18.285  0.00  0.00    +0.000 A 
ATOM      3  C   UNL     1       2.692   3.324  17.463  0.00  0.00    +0.000 A 
ATOM      4  C   UNL     1       3.744   4.170  17.856  0.00  0.00    +0.000 A 
ATOM      5  C   UNL     1       3.669   4.774  19.123  0.00  0.00    +0.000 A 
ATOM      6  C   UNL     1       2.556   4.577  19.941  0.00  0.00    +0.000 A 
ENDROOT
BRANCH   1   7
ATOM      7  O   UNL     1       0.423   3.589  20.330  0.00  0.00    +0.000 OA
ATOM      8  H   UNL     1       0.703   3.140  21.141  0.00  0.00    +0.000 HD
ENDBRANCH   1   7
BRANCH   6   9
ATOM      9  O   UNL     1       2.485   5.186  21.164  0.00  0.00    +0.000 OA
ATOM     10  H   UNL     1       1.852   4.700  21.717  0.00  0.00    +0.000 HD
ENDBRANCH   6   9
BRANCH   4  11
ATOM     11  C   UNL     1       4.931   4.349  16.929  0.00  0.00    +0.000 C 
BRANCH  11  12
ATOM     12  C   UNL     1       6.127   5.116  17.519  0.00  0.00    +0.000 C 
ATOM     13  N   UNL     1       6.279   6.410  17.331  0.00  0.00    +0.000 NA
ATOM     14  C   UNL     1       7.548   6.728  18.046  0.00  0.00    +0.000 C 
ATOM     15  C   UNL     1       7.800   5.557  18.997  0.00  0.00    +0.000 C 
ATOM     16  N   UNL     1       7.059   4.509  18.335  0.00  0.00    +0.000 N 
ATOM     17  H   UNL     1       6.732   3.739  18.911  0.00  0.00    +0.000 HD
ENDBRANCH  11  12
BRANCH  11  18
ATOM     18  O   UNL     1       5.374   3.069  16.490  0.00  0.00    +0.000 OA
ATOM     19  H   UNL     1       4.677   2.453  16.787  0.00  0.00    +0.000 HD
ENDBRANCH  11  18
ENDBRANCH   4  11
TORSDOF 5
ENDMDL
MODEL 3
REMARK VINA RESULT:      -6.3      3.078      5.518
REMARK  Name = 
REMARK  5 active torsions:
REMARK  status: ('A' for Active; 'I' for Inactive)
REMARK    1  A    between atoms: O_1  and  C_2
REMARK    2  A    between atoms: C_5  and  C_6
REMARK    3  A    between atoms: C_6  and  O_7
REMARK    4  A    between atoms: C_6  and  C_8
REMARK    5  A    between atoms: C_14  and  O_15
REMARK                            x       y       z     vdW  Elec       q    Type
REMARK                         _______ _______ _______ _____ _____    ______ ____
ROOT
ATOM      1  C   UNL     1       1.593   3.670  19.235  0.00  0.00    +0.000 A 
ATOM      2  C   UNL     1       2.079   4.963  19.074  0.00  0.00    +0.000 A 
ATOM      3  C   UNL     1       3.210   5.184  18.281  0.00  0.00    +0.000 A 
ATOM      4  C   UNL     1       3.877   4.118  17.651  0.00  0.00    +0.000 A 
ATOM      5  C   UNL     1       3.346   2.826  17.800  0.00  0.00    +0.000 A 
ATOM      6  C   UNL     1       2.220   2.605  18.594  0.00  0.00    +0.000 A 
ENDROOT
BRANCH   1   7
ATOM      7  O   UNL     1       0.498   3.432  20.018  0.00  0.00    +0.000 OA
ATOM      8  H   UNL     1      -0.302   3.623  19.506  0.00  0.00    +0.000 HD
ENDBRANCH   1   7
BRANCH   6   9
ATOM      9  O   UNL     1       1.725   1.340  18.748  0.00  0.00    +0.000 OA
ATOM     10  H   UNL     1       0.773   1.398  18.932  0.00  0.00    +0.000 HD
ENDBRANCH   6   9
BRANCH   4  11
ATOM     11  C   UNL     1       5.097   4.414  16.799  0.00  0.00    +0.000 C 
BRANCH  11  12
ATOM     12  C   UNL     1       6.223   5.195  17.497  0.00  0.00    +0.000 C 
ATOM     13  N   UNL     1       6.529   6.427  17.149  0.00  0.00    +0.000 NA
ATOM     14  C   UNL     1       7.662   6.782  18.052  0.00  0.00    +0.000 C 
ATOM     15  C   UNL     1       7.615   5.775  19.202  0.00  0.00    +0.000 C 
ATOM     16  N   UNL     1       6.919   4.677  18.570  0.00  0.00    +0.000 N 
ATOM     17  H   UNL     1       6.417   4.037  19.177  0.00  0.00    +0.000 HD
ENDBRANCH  11  12
BRANCH  11  18
ATOM     18  O   UNL     1       5.623   3.189  16.301  0.00  0.00    +0.000 OA
ATOM     19  H   UNL     1       4.999   2.921  15.599  0.00  0.00    +0.000 HD
ENDBRANCH  11  18
ENDBRANCH   4  11
TORSDOF 5
ENDMDL
MODEL 4
REMARK VINA RESULT:      -6.3      2.189      2.907
REMARK  Name = 
REMARK  5 active torsions:
REMARK  status: ('A' for Active; 'I' for Inactive)
REMARK    1  A    between atoms: O_1  and  C_2
REMARK    2  A    between atoms: C_5  and  C_6
REMARK    3  A    between atoms: C_6  and  O_7
REMARK    4  A    between atoms: C_6  and  C_8
REMARK    5  A    between atoms: C_14  and  O_15
REMARK                            x       y       z     vdW  Elec       q    Type
REMARK                         _______ _______ _______ _____ _____    ______ ____
ROOT
ATOM      1  C   UNL     1       7.930   6.883  18.534  0.00  0.00    +0.000 A 
ATOM      2  C   UNL     1       7.460   7.125  17.246  0.00  0.00    +0.000 A 
ATOM      3  C   UNL     1       6.656   6.172  16.612  0.00  0.00    +0.000 A 
ATOM      4  C   UNL     1       6.322   4.963  17.247  0.00  0.00    +0.000 A 
ATOM      5  C   UNL     1       6.778   4.757  18.560  0.00  0.00    +0.000 A 
ATOM      6  C   UNL     1       7.583   5.706  19.191  0.00  0.00    +0.000 A 
ENDROOT
BRANCH   1   7
ATOM      7  O   UNL     1       8.729   7.795  19.164  0.00  0.00    +0.000 OA
ATOM      8  H   UNL     1       9.604   7.404  19.303  0.00  0.00    +0.000 HD
ENDBRANCH   1   7
BRANCH   6   9
ATOM      9  O   UNL     1       8.038   5.485  20.462  0.00  0.00    +0.000 OA
ATOM     10  H   UNL     1       8.072   4.528  20.618  0.00  0.00    +0.000 HD
ENDBRANCH   6   9
BRANCH   4  11
ATOM     11  C   UNL     1       5.442   3.966  16.516  0.00  0.00    +0.000 C 
BRANCH  11  12
ATOM     12  C   UNL     1       4.190   3.500  17.278  0.00  0.00    +0.000 C 
ATOM     13  N   UNL     1       3.105   4.241  17.346  0.00  0.00    +0.000 NA
ATOM     14  C   UNL     1       2.169   3.431  18.176  0.00  0.00    +0.000 C 
ATOM     15  C   UNL     1       2.717   2.003  18.156  0.00  0.00    +0.000 C 
ATOM     16  N   UNL     1       4.111   2.255  17.867  0.00  0.00    +0.000 N 
ATOM     17  H   UNL     1       4.634   1.505  17.426  0.00  0.00    +0.000 HD
ENDBRANCH  11  12
BRANCH  11  18
ATOM     18  O   UNL     1       5.043   4.526  15.270  0.00  0.00    +0.000 OA
ATOM     19  H   UNL     1       4.340   5.164  15.501  0.00  0.00    +0.000 HD
ENDBRANCH  11  18
ENDBRANCH   4  11
TORSDOF 5
ENDMDL
MODEL 5
REMARK VINA RESULT:      -6.2      2.892      5.349
REMARK  Name = 
REMARK  5 active torsions:
REMARK  status: ('A' for Active; 'I' for Inactive)
REMARK    1  A    between atoms: O_1  and  C_2
REMARK    2  A    between atoms: C_5  and  C_6
REMARK    3  A    between atoms: C_6  and  O_7
REMARK    4  A    between atoms: C_6  and  C_8
REMARK    5  A    between atoms: C_14  and  O_15
REMARK                            x       y       z     vdW  Elec       q    Type
REMARK                         _______ _______ _______ _____ _____    ______ ____
ROOT
ATOM      1  C   UNL     1       1.508   3.559  19.584  0.00  0.00    +0.000 A 
ATOM      2  C   UNL     1       1.680   2.918  18.361  0.00  0.00    +0.000 A 
ATOM      3  C   UNL     1       2.783   3.234  17.562  0.00  0.00    +0.000 A 
ATOM      4  C   UNL     1       3.721   4.200  17.967  0.00  0.00    +0.000 A 
ATOM      5  C   UNL     1       3.546   4.808  19.221  0.00  0.00    +0.000 A 
ATOM      6  C   UNL     1       2.443   4.496  20.016  0.00  0.00    +0.000 A 
ENDROOT
BRANCH   1   7
ATOM      7  O   UNL     1       0.427   3.275  20.371  0.00  0.00    +0.000 OA
ATOM      8  H   UNL     1       0.671   3.409  21.299  0.00  0.00    +0.000 HD
ENDBRANCH   1   7
BRANCH   6   9
ATOM      9  O   UNL     1       2.272   5.109  21.227  0.00  0.00    +0.000 OA
ATOM     10  H   UNL     1       2.496   6.049  21.133  0.00  0.00    +0.000 HD
ENDBRANCH   6   9
BRANCH   4  11
ATOM     11  C   UNL     1       4.904   4.501  17.064  0.00  0.00    +0.000 C 
BRANCH  11  12
ATOM     12  C   UNL     1       6.047   5.300  17.712  0.00  0.00    +0.000 C 
ATOM     13  N   UNL     1       6.950   4.721  18.475  0.00  0.00    +0.000 NA
ATOM     14  C   UNL     1       7.837   5.844  18.895  0.00  0.00    +0.000 C 
ATOM     15  C   UNL     1       7.565   6.984  17.912  0.00  0.00    +0.000 C 
ATOM     16  N   UNL     1       6.232   6.646  17.470  0.00  0.00    +0.000 N 
ATOM     17  H   UNL     1       5.945   6.991  16.559  0.00  0.00    +0.000 HD
ENDBRANCH  11  12
BRANCH  11  18
ATOM     18  O   UNL     1       5.424   3.277  16.557  0.00  0.00    +0.000 OA
ATOM     19  H   UNL     1       6.373   3.456  16.410  0.00  0.00    +0.000 HD
ENDBRANCH  11  18
ENDBRANCH   4  11
TORSDOF 5
ENDMDL
MODEL 6
REMARK VINA RESULT:      -6.2      1.398      1.710
REMARK  Name = 
REMARK  5 active torsions:
REMARK  status: ('A' for Active; 'I' for Inactive)
REMARK    1  A    between atoms: O_1  and  C_2
REMARK    2  A    between atoms: C_5  and  C_6
REMARK    3  A    between atoms: C_6  and  O_7
REMARK    4  A    between atoms: C_6  and  C_8
REMARK    5  A    between atoms: C_14  and  O_15
REMARK                            x       y       z     vdW  Elec       q    Type
REMARK                         _______ _______ _______ _____ _____    ______ ____
ROOT
ATOM      1  C   UNL     1       6.734   5.292  15.879  0.00  0.00    +0.000 A 
ATOM      2  C   UNL     1       5.522   5.923  15.617  0.00  0.00    +0.000 A 
ATOM      3  C   UNL     1       4.528   5.951  16.600  0.00  0.00    +0.000 A 
ATOM      4  C   UNL     1       4.725   5.341  17.852  0.00  0.00    +0.000 A 
ATOM      5  C   UNL     1       5.970   4.742  18.107  0.00  0.00    +0.000 A 
ATOM      6  C   UNL     1       6.960   4.710  17.124  0.00  0.00    +0.000 A 
ENDROOT
BRANCH   1   7
ATOM      7  O   UNL     1       7.711   5.240  14.926  0.00  0.00    +0.000 OA
ATOM      8  H   UNL     1       7.581   4.447  14.385  0.00  0.00    +0.000 HD
ENDBRANCH   1   7
BRANCH   6   9
ATOM      9  O   UNL     1       8.161   4.106  17.377  0.00  0.00    +0.000 OA
ATOM     10  H   UNL     1       8.062   3.529  18.151  0.00  0.00    +0.000 HD
ENDBRANCH   6   9
BRANCH   4  11
ATOM     11  C   UNL     1       3.616   5.406  18.885  0.00  0.00    +0.000 C 
BRANCH  11  12
ATOM     12  C   UNL     1       2.618   4.235  18.863  0.00  0.00    +0.000 C 
ATOM     13  N   UNL     1       2.887   3.109  18.237  0.00  0.00    +0.000 NA
ATOM     14  C   UNL     1       1.666   2.280  18.452  0.00  0.00    +0.000 C 
ATOM     15  C   UNL     1       0.925   2.921  19.627  0.00  0.00    +0.000 C 
ATOM     16  N   UNL     1       1.425   4.274  19.554  0.00  0.00    +0.000 N 
ATOM     17  H   UNL     1       1.409   4.820  20.411  0.00  0.00    +0.000 HD
ENDBRANCH  11  12
BRANCH  11  18
ATOM     18  O   UNL     1       4.195   5.496  20.182  0.00  0.00    +0.000 OA
ATOM     19  H   UNL     1       4.691   6.337  20.172  0.00  0.00    +0.000 HD
ENDBRANCH  11  18
ENDBRANCH   4  11
TORSDOF 5
ENDMDL
MODEL 7
REMARK VINA RESULT:      -6.1      0.775      1.787
REMARK  Name = 
REMARK  5 active torsions:
REMARK  status: ('A' for Active; 'I' for Inactive)
REMARK    1  A    between atoms: O_1  and  C_2
REMARK    2  A    between atoms: C_5  and  C_6
REMARK    3  A    between atoms: C_6  and  O_7
REMARK    4  A    between atoms: C_6  and  C_8
REMARK    5  A    between atoms: C_14  and  O_15
REMARK                            x       y       z     vdW  Elec       q    Type
REMARK                         _______ _______ _______ _____ _____    ______ ____
ROOT
ATOM      1  C   UNL     1       6.847   4.479  17.459  0.00  0.00    +0.000 A 
ATOM      2  C   UNL     1       6.398   4.998  18.670  0.00  0.00    +0.000 A 
ATOM      3  C   UNL     1       5.044   5.310  18.831  0.00  0.00    +0.000 A 
ATOM      4  C   UNL     1       4.125   5.120  17.784  0.00  0.00    +0.000 A 
ATOM      5  C   UNL     1       4.594   4.562  16.583  0.00  0.00    +0.000 A 
ATOM      6  C   UNL     1       5.946   4.255  16.421  0.00  0.00    +0.000 A 
ENDROOT
BRANCH   1   7
ATOM      7  O   UNL     1       8.168   4.183  17.277  0.00  0.00    +0.000 OA
ATOM      8  H   UNL     1       8.612   4.186  18.138  0.00  0.00    +0.000 HD
ENDBRANCH   1   7
BRANCH   6   9
ATOM      9  O   UNL     1       6.395   3.732  15.240  0.00  0.00    +0.000 OA
ATOM     10  H   UNL     1       5.782   3.035  14.956  0.00  0.00    +0.000 HD
ENDBRANCH   6   9
BRANCH   4  11
ATOM     11  C   UNL     1       2.666   5.470  18.014  0.00  0.00    +0.000 C 
BRANCH  11  12
ATOM     12  C   UNL     1       1.804   4.354  18.629  0.00  0.00    +0.000 C 
ATOM     13  N   UNL     1       1.441   3.298  17.933  0.00  0.00    +0.000 NA
ATOM     14  C   UNL     1       0.620   2.503  18.892  0.00  0.00    +0.000 C 
ATOM     15  C   UNL     1       0.968   3.034  20.283  0.00  0.00    +0.000 C 
ATOM     16  N   UNL     1       1.429   4.364  19.957  0.00  0.00    +0.000 N 
ATOM     17  H   UNL     1       2.067   4.806  20.610  0.00  0.00    +0.000 HD
ENDBRANCH  11  12
BRANCH  11  18
ATOM     18  O   UNL     1       2.590   6.624  18.844  0.00  0.00    +0.000 OA
ATOM     19  H   UNL     1       3.488   7.008  18.812  0.00  0.00    +0.000 HD
ENDBRANCH  11  18
ENDBRANCH   4  11
TORSDOF 5
ENDMDL
MODEL 8
REMARK VINA RESULT:      -6.1      1.690      1.920
REMARK  Name = 
REMARK  5 active torsions:
REMARK  status: ('A' for Active; 'I' for Inactive)
REMARK    1  A    between atoms: O_1  and  C_2
REMARK    2  A    between atoms: C_5  and  C_6
REMARK    3  A    between atoms: C_6  and  O_7
REMARK    4  A    between atoms: C_6  and  C_8
REMARK    5  A    between atoms: C_14  and  O_15
REMARK                            x       y       z     vdW  Elec       q    Type
REMARK                         _______ _______ _______ _____ _____    ______ ____
ROOT
ATOM      1  C   UNL     1       6.666   5.244  15.694  0.00  0.00    +0.000 A 
ATOM      2  C   UNL     1       5.608   4.346  15.589  0.00  0.00    +0.000 A 
ATOM      3  C   UNL     1       4.570   4.385  16.526  0.00  0.00    +0.000 A 
ATOM      4  C   UNL     1       4.580   5.311  17.584  0.00  0.00    +0.000 A 
ATOM      5  C   UNL     1       5.640   6.231  17.649  0.00  0.00    +0.000 A 
ATOM      6  C   UNL     1       6.678   6.189  16.716  0.00  0.00    +0.000 A 
ENDROOT
BRANCH   1   7
ATOM      7  O   UNL     1       7.697   5.211  14.798  0.00  0.00    +0.000 OA
ATOM      8  H   UNL     1       8.343   4.551  15.087  0.00  0.00    +0.000 HD
ENDBRANCH   1   7
BRANCH   6   9
ATOM      9  O   UNL     1       7.714   7.077  16.801  0.00  0.00    +0.000 OA
ATOM     10  H   UNL     1       8.490   6.616  17.161  0.00  0.00    +0.000 HD
ENDBRANCH   6   9
BRANCH   4  11
ATOM     11  C   UNL     1       3.427   5.314  18.570  0.00  0.00    +0.000 C 
BRANCH  11  12
ATOM     12  C   UNL     1       2.661   3.986  18.702  0.00  0.00    +0.000 C 
ATOM     13  N   UNL     1       3.142   2.977  19.398  0.00  0.00    +0.000 NA
ATOM     14  C   UNL     1       2.109   1.913  19.246  0.00  0.00    +0.000 C 
ATOM     15  C   UNL     1       0.839   2.625  18.775  0.00  0.00    +0.000 C 
ATOM     16  N   UNL     1       1.404   3.806  18.164  0.00  0.00    +0.000 N 
ATOM     17  H   UNL     1       0.809   4.627  18.107  0.00  0.00    +0.000 HD
ENDBRANCH  11  12
BRANCH  11  18
ATOM     18  O   UNL     1       3.912   5.698  19.852  0.00  0.00    +0.000 OA
ATOM     19  H   UNL     1       3.840   6.672  19.860  0.00  0.00    +0.000 HD
ENDBRANCH  11  18
ENDBRANCH   4  11
TORSDOF 5
ENDMDL
MODEL 9
REMARK VINA RESULT:      -6.1      1.505      1.696
REMARK  Name = 
REMARK  5 active torsions:
REMARK  status: ('A' for Active; 'I' for Inactive)
REMARK    1  A    between atoms: O_1  and  C_2
REMARK    2  A    between atoms: C_5  and  C_6
REMARK    3  A    between atoms: C_6  and  O_7
REMARK    4  A    between atoms: C_6  and  C_8
REMARK    5  A    between atoms: C_14  and  O_15
REMARK                            x       y       z     vdW  Elec       q    Type
REMARK                         _______ _______ _______ _____ _____    ______ ____
ROOT
ATOM      1  C   UNL     1       6.201   5.926  16.982  0.00  0.00    +0.000 A 
ATOM      2  C   UNL     1       5.173   6.807  16.662  0.00  0.00    +0.000 A 
ATOM      3  C   UNL     1       3.991   6.795  17.410  0.00  0.00    +0.000 A 
ATOM      4  C   UNL     1       3.816   5.897  18.478  0.00  0.00    +0.000 A 
ATOM      5  C   UNL     1       4.881   5.041  18.805  0.00  0.00    +0.000 A 
ATOM      6  C   UNL     1       6.058   5.051  18.056  0.00  0.00    +0.000 A 
ENDROOT
BRANCH   1   7
ATOM      7  O   UNL     1       7.357   5.912  16.253  0.00  0.00    +0.000 OA
ATOM      8  H   UNL     1       7.299   5.212  15.587  0.00  0.00    +0.000 HD
ENDBRANCH   1   7
BRANCH   6   9
ATOM      9  O   UNL     1       7.081   4.199  18.372  0.00  0.00    +0.000 OA
ATOM     10  H   UNL     1       7.432   4.444  19.243  0.00  0.00    +0.000 HD
ENDBRANCH   6   9
BRANCH   4  11
ATOM     11  C   UNL     1       2.516   5.929  19.260  0.00  0.00    +0.000 C 
BRANCH  11  12
ATOM     12  C   UNL     1       2.122   4.611  19.949  0.00  0.00    +0.000 C 
ATOM     13  N   UNL     1       1.696   3.572  19.263  0.00  0.00    +0.000 NA
ATOM     14  C   UNL     1       1.417   2.544  20.306  0.00  0.00    +0.000 C 
ATOM     15  C   UNL     1       2.165   3.003  21.559  0.00  0.00    +0.000 C 
ATOM     16  N   UNL     1       2.263   4.422  21.309  0.00  0.00    +0.000 N 
ATOM     17  H   UNL     1       3.021   4.921  21.764  0.00  0.00    +0.000 HD
ENDBRANCH  11  12
BRANCH  11  18
ATOM     18  O   UNL     1       2.589   6.959  20.239  0.00  0.00    +0.000 OA
ATOM     19  H   UNL     1       2.291   7.764  19.772  0.00  0.00    +0.000 HD
ENDBRANCH  11  18
ENDBRANCH   4  11
TORSDOF 5
ENDMDL
