MODEL 1
REMARK VINA RESULT:      -8.8      0.000      0.000
REMARK  Name = 
REMARK  5 active torsions:
REMARK  status: ('A' for Active; 'I' for Inactive)
REMARK    1  A    between atoms: C_1  and  C_2
REMARK    2  A    between atoms: C_8  and  S_9
REMARK    3  A    between atoms: S_9  and  N_12
REMARK    4  A    between atoms: N_12  and  C_13
REMARK    5  A    between atoms: C_23  and  C_25
REMARK                            x       y       z     vdW  Elec       q    Type
REMARK                         _______ _______ _______ _____ _____    ______ ____
ROOT
ATOM      1  C   UNL     1       2.618   5.597  19.197  0.00  0.00    +0.000 A 
ATOM      2  C   UNL     1       1.924   5.750  20.391  0.00  0.00    +0.000 A 
ATOM      3  C   UNL     1       1.330   6.979  20.703  0.00  0.00    +0.000 A 
ATOM      4  C   UNL     1       1.401   8.067  19.822  0.00  0.00    +0.000 A 
ATOM      5  C   UNL     1       2.062   7.878  18.583  0.00  0.00    +0.000 A 
ATOM      6  C   UNL     1       2.670   6.644  18.285  0.00  0.00    +0.000 A 
ATOM      7  C   UNL     1       2.150   8.966  17.539  0.00  0.00    +0.000 C 
ATOM      8  C   UNL     1       1.702  10.324  18.060  0.00  0.00    +0.000 C 
ATOM      9  C   UNL     1       0.466  10.123  18.918  0.00  0.00    +0.000 C 
ATOM     10  N   UNL     1       0.832   9.360  20.122  0.00  0.00    +0.000 N 
ATOM     11  C   UNL     1       0.703   9.840  21.453  0.00  0.00    +0.000 C 
ATOM     12  O   UNL     1       0.952   9.126  22.427  0.00  0.00    +0.000 OA
ENDROOT
BRANCH  11  13
ATOM     13  C   UNL     1       0.314  11.240  21.677  0.00  0.00    +0.000 A 
ATOM     14  C   UNL     1       0.895  12.432  21.279  0.00  0.00    +0.000 A 
ATOM     15  C   UNL     1       0.173  13.581  21.715  0.00  0.00    +0.000 A 
ATOM     16  C   UNL     1      -0.873  13.241  22.540  0.00  0.00    +0.000 A 
ATOM     17  S   UNL     1      -1.020  11.551  22.725  0.00  0.00    +0.000 S 
ENDBRANCH  11  13
BRANCH   1  18
ATOM     18  N   UNL     1       3.294   4.385  18.917  0.00  0.00    +0.000 N 
ATOM     19  H   UNL     1       2.786   3.513  19.040  0.00  0.00    +0.000 HD
BRANCH  18  20
ATOM     20  S   UNL     1       4.950   4.245  19.153  0.00  0.00    +0.000 S 
ATOM     21  O   UNL     1       5.256   2.951  19.714  0.00  0.00    +0.000 OA
ATOM     22  O   UNL     1       5.349   5.460  19.840  0.00  0.00    +0.000 OA
BRANCH  20  30
ATOM     23  C   UNL     1       8.004   4.949  18.251  0.00  0.00    +0.000 C 
ATOM     24  C   UNL     1       6.963   4.671  17.203  0.00  0.00    +0.000 A 
ATOM     25  C   UNL     1       7.355   4.748  15.852  0.00  0.00    +0.000 A 
ATOM     26  C   UNL     1       6.435   4.550  14.828  0.00  0.00    +0.000 A 
ATOM     27  F   UNL     1       6.839   4.636  13.554  0.00  0.00    +0.000 F 
ATOM     28  C   UNL     1       5.106   4.274  15.106  0.00  0.00    +0.000 A 
ATOM     29  C   UNL     1       4.695   4.180  16.435  0.00  0.00    +0.000 A 
ATOM     30  C   UNL     1       5.617   4.360  17.487  0.00  0.00    +0.000 A 
ENDBRANCH  20  30
ENDBRANCH  18  20
ENDBRANCH   1  18
TORSDOF 4
ENDMDL
MODEL 2
REMARK VINA RESULT:      -8.7      1.977      2.800
REMARK  Name = 
REMARK  5 active torsions:
REMARK  status: ('A' for Active; 'I' for Inactive)
REMARK    1  A    between atoms: C_1  and  C_2
REMARK    2  A    between atoms: C_8  and  S_9
REMARK    3  A    between atoms: S_9  and  N_12
REMARK    4  A    between atoms: N_12  and  C_13
REMARK    5  A    between atoms: C_23  and  C_25
REMARK                            x       y       z     vdW  Elec       q    Type
REMARK                         _______ _______ _______ _____ _____    ______ ____
ROOT
ATOM      1  C   UNL     1       1.995   8.197  19.275  0.00  0.00    +0.000 A 
ATOM      2  C   UNL     1       1.577   7.932  20.574  0.00  0.00    +0.000 A 
ATOM      3  C   UNL     1       0.643   8.771  21.193  0.00  0.00    +0.000 A 
ATOM      4  C   UNL     1       0.096   9.873  20.521  0.00  0.00    +0.000 A 
ATOM      5  C   UNL     1       0.488  10.096  19.179  0.00  0.00    +0.000 A 
ATOM      6  C   UNL     1       1.440   9.257  18.570  0.00  0.00    +0.000 A 
ATOM      7  C   UNL     1      -0.080  11.221  18.346  0.00  0.00    +0.000 C 
ATOM      8  C   UNL     1      -0.887  12.216  19.167  0.00  0.00    +0.000 C 
ATOM      9  C   UNL     1      -1.729  11.441  20.164  0.00  0.00    +0.000 C 
ATOM     10  N   UNL     1      -0.844  10.782  21.136  0.00  0.00    +0.000 N 
ATOM     11  C   UNL     1      -0.849  11.032  22.535  0.00  0.00    +0.000 C 
ATOM     12  O   UNL     1      -0.138  10.391  23.312  0.00  0.00    +0.000 OA
ENDROOT
BRANCH  11  13
ATOM     13  C   UNL     1      -1.685  12.119  23.067  0.00  0.00    +0.000 A 
ATOM     14  C   UNL     1      -2.993  12.136  23.522  0.00  0.00    +0.000 A 
ATOM     15  C   UNL     1      -3.415  13.423  23.964  0.00  0.00    +0.000 A 
ATOM     16  C   UNL     1      -2.461  14.384  23.721  0.00  0.00    +0.000 A 
ATOM     17  S   UNL     1      -1.047  13.720  23.033  0.00  0.00    +0.000 S 
ENDBRANCH  11  13
BRANCH   1  18
ATOM     18  N   UNL     1       3.004   7.403  18.677  0.00  0.00    +0.000 N 
ATOM     19  H   UNL     1       3.514   7.791  17.888  0.00  0.00    +0.000 HD
BRANCH  18  20
ATOM     20  S   UNL     1       2.886   5.729  18.654  0.00  0.00    +0.000 S 
ATOM     21  O   UNL     1       1.549   5.340  18.273  0.00  0.00    +0.000 OA
ATOM     22  O   UNL     1       3.454   5.282  19.912  0.00  0.00    +0.000 OA
BRANCH  20  30
ATOM     23  C   UNL     1       3.764   2.720  17.755  0.00  0.00    +0.000 C 
ATOM     24  C   UNL     1       4.360   3.910  17.056  0.00  0.00    +0.000 A 
ATOM     25  C   UNL     1       5.304   3.669  16.039  0.00  0.00    +0.000 A 
ATOM     26  C   UNL     1       5.931   4.721  15.381  0.00  0.00    +0.000 A 
ATOM     27  F   UNL     1       6.829   4.458  14.422  0.00  0.00    +0.000 F 
ATOM     28  C   UNL     1       5.649   6.038  15.708  0.00  0.00    +0.000 A 
ATOM     29  C   UNL     1       4.709   6.304  16.704  0.00  0.00    +0.000 A 
ATOM     30  C   UNL     1       4.049   5.249  17.370  0.00  0.00    +0.000 A 
ENDBRANCH  20  30
ENDBRANCH  18  20
ENDBRANCH   1  18
TORSDOF 4
ENDMDL
MODEL 3
REMARK VINA RESULT:      -8.2      1.044      1.232
REMARK  Name = 
REMARK  5 active torsions:
REMARK  status: ('A' for Active; 'I' for Inactive)
REMARK    1  A    between atoms: C_1  and  C_2
REMARK    2  A    between atoms: C_8  and  S_9
REMARK    3  A    between atoms: S_9  and  N_12
REMARK    4  A    between atoms: N_12  and  C_13
REMARK    5  A    between atoms: C_23  and  C_25
REMARK                            x       y       z     vdW  Elec       q    Type
REMARK                         _______ _______ _______ _____ _____    ______ ____
ROOT
ATOM      1  C   UNL     1       3.037   5.657  19.467  0.00  0.00    +0.000 A 
ATOM      2  C   UNL     1       2.275   5.769  20.623  0.00  0.00    +0.000 A 
ATOM      3  C   UNL     1       1.549   6.940  20.873  0.00  0.00    +0.000 A 
ATOM      4  C   UNL     1       1.556   8.008  19.964  0.00  0.00    +0.000 A 
ATOM      5  C   UNL     1       2.290   7.856  18.763  0.00  0.00    +0.000 A 
ATOM      6  C   UNL     1       3.030   6.681  18.529  0.00  0.00    +0.000 A 
ATOM      7  C   UNL     1       2.322   8.922  17.693  0.00  0.00    +0.000 C 
ATOM      8  C   UNL     1       1.718  10.241  18.153  0.00  0.00    +0.000 C 
ATOM      9  C   UNL     1       0.469   9.939  18.961  0.00  0.00    +0.000 C 
ATOM     10  N   UNL     1       0.850   9.246  20.201  0.00  0.00    +0.000 N 
ATOM     11  C   UNL     1       0.611   9.742  21.510  0.00  0.00    +0.000 C 
ATOM     12  O   UNL     1       0.882   9.080  22.516  0.00  0.00    +0.000 OA
ENDROOT
BRANCH  11  13
ATOM     13  C   UNL     1       0.077  11.102  21.677  0.00  0.00    +0.000 A 
ATOM     14  C   UNL     1       0.475  12.319  21.149  0.00  0.00    +0.000 A 
ATOM     15  C   UNL     1      -0.341  13.407  21.573  0.00  0.00    +0.000 A 
ATOM     16  C   UNL     1      -1.267  13.015  22.511  0.00  0.00    +0.000 A 
ATOM     17  S   UNL     1      -1.193  11.338  22.819  0.00  0.00    +0.000 S 
ENDBRANCH  11  13
BRANCH   1  18
ATOM     18  N   UNL     1       3.841   4.511  19.253  0.00  0.00    +0.000 N 
ATOM     19  H   UNL     1       4.796   4.524  19.602  0.00  0.00    +0.000 HD
BRANCH  18  20
ATOM     20  S   UNL     1       3.625   3.545  17.898  0.00  0.00    +0.000 S 
ATOM     21  O   UNL     1       2.348   3.835  17.290  0.00  0.00    +0.000 OA
ATOM     22  O   UNL     1       3.949   2.197  18.325  0.00  0.00    +0.000 OA
BRANCH  20  30
ATOM     23  C   UNL     1       6.531   4.787  18.703  0.00  0.00    +0.000 C 
ATOM     24  C   UNL     1       6.180   4.591  17.255  0.00  0.00    +0.000 A 
ATOM     25  C   UNL     1       7.131   4.978  16.291  0.00  0.00    +0.000 A 
ATOM     26  C   UNL     1       6.857   4.870  14.931  0.00  0.00    +0.000 A 
ATOM     27  F   UNL     1       7.781   5.253  14.040  0.00  0.00    +0.000 F 
ATOM     28  C   UNL     1       5.640   4.381  14.485  0.00  0.00    +0.000 A 
ATOM     29  C   UNL     1       4.685   3.979  15.419  0.00  0.00    +0.000 A 
ATOM     30  C   UNL     1       4.952   4.065  16.802  0.00  0.00    +0.000 A 
ENDBRANCH  20  30
ENDBRANCH  18  20
ENDBRANCH   1  18
TORSDOF 4
ENDMDL
MODEL 4
REMARK VINA RESULT:      -8.1      0.404      1.346
REMARK  Name = 
REMARK  5 active torsions:
REMARK  status: ('A' for Active; 'I' for Inactive)
REMARK    1  A    between atoms: C_1  and  C_2
REMARK    2  A    between atoms: C_8  and  S_9
REMARK    3  A    between atoms: S_9  and  N_12
REMARK    4  A    between atoms: N_12  and  C_13
REMARK    5  A    between atoms: C_23  and  C_25
REMARK                            x       y       z     vdW  Elec       q    Type
REMARK                         _______ _______ _______ _____ _____    ______ ____
ROOT
ATOM      1  C   UNL     1       2.619   5.648  19.407  0.00  0.00    +0.000 A 
ATOM      2  C   UNL     1       1.960   5.898  20.604  0.00  0.00    +0.000 A 
ATOM      3  C   UNL     1       1.401   7.159  20.846  0.00  0.00    +0.000 A 
ATOM      4  C   UNL     1       1.472   8.182  19.889  0.00  0.00    +0.000 A 
ATOM      5  C   UNL     1       2.096   7.894  18.651  0.00  0.00    +0.000 A 
ATOM      6  C   UNL     1       2.670   6.629  18.424  0.00  0.00    +0.000 A 
ATOM      7  C   UNL     1       2.181   8.905  17.533  0.00  0.00    +0.000 C 
ATOM      8  C   UNL     1       1.775  10.306  17.969  0.00  0.00    +0.000 C 
ATOM      9  C   UNL     1       0.558  10.193  18.869  0.00  0.00    +0.000 C 
ATOM     10  N   UNL     1       0.939   9.506  20.113  0.00  0.00    +0.000 N 
ATOM     11  C   UNL     1       0.856  10.078  21.411  0.00  0.00    +0.000 C 
ATOM     12  O   UNL     1       1.114   9.427  22.426  0.00  0.00    +0.000 OA
ENDROOT
BRANCH  11  13
ATOM     13  C   UNL     1       0.503  11.499  21.548  0.00  0.00    +0.000 A 
ATOM     14  C   UNL     1       1.160  12.653  21.156  0.00  0.00    +0.000 A 
ATOM     15  C   UNL     1       0.448  13.843  21.484  0.00  0.00    +0.000 A 
ATOM     16  C   UNL     1      -0.676  13.574  22.229  0.00  0.00    +0.000 A 
ATOM     17  S   UNL     1      -0.902  11.899  22.464  0.00  0.00    +0.000 S 
ENDBRANCH  11  13
BRANCH   1  18
ATOM     18  N   UNL     1       3.261   4.404  19.195  0.00  0.00    +0.000 N 
ATOM     19  H   UNL     1       2.770   3.558  19.471  0.00  0.00    +0.000 HD
BRANCH  18  20
ATOM     20  S   UNL     1       4.933   4.272  19.265  0.00  0.00    +0.000 S 
ATOM     21  O   UNL     1       5.300   2.972  19.774  0.00  0.00    +0.000 OA
ATOM     22  O   UNL     1       5.392   5.480  19.926  0.00  0.00    +0.000 OA
BRANCH  20  30
ATOM     23  C   UNL     1       3.299   3.317  16.609  0.00  0.00    +0.000 C 
ATOM     24  C   UNL     1       4.645   3.968  16.461  0.00  0.00    +0.000 A 
ATOM     25  C   UNL     1       5.161   4.121  15.159  0.00  0.00    +0.000 A 
ATOM     26  C   UNL     1       6.420   4.673  14.948  0.00  0.00    +0.000 A 
ATOM     27  F   UNL     1       6.884   4.799  13.698  0.00  0.00    +0.000 F 
ATOM     28  C   UNL     1       7.207   5.084  16.012  0.00  0.00    +0.000 A 
ATOM     29  C   UNL     1       6.715   4.955  17.311  0.00  0.00    +0.000 A 
ATOM     30  C   UNL     1       5.432   4.414  17.543  0.00  0.00    +0.000 A 
ENDBRANCH  20  30
ENDBRANCH  18  20
ENDBRANCH   1  18
TORSDOF 4
ENDMDL
MODEL 5
REMARK VINA RESULT:      -8.1      1.646      2.334
REMARK  Name = 
REMARK  5 active torsions:
REMARK  status: ('A' for Active; 'I' for Inactive)
REMARK    1  A    between atoms: C_1  and  C_2
REMARK    2  A    between atoms: C_8  and  S_9
REMARK    3  A    between atoms: S_9  and  N_12
REMARK    4  A    between atoms: N_12  and  C_13
REMARK    5  A    between atoms: C_23  and  C_25
REMARK                            x       y       z     vdW  Elec       q    Type
REMARK                         _______ _______ _______ _____ _____    ______ ____
ROOT
ATOM      1  C   UNL     1       2.577   6.362  18.798  0.00  0.00    +0.000 A 
ATOM      2  C   UNL     1       2.537   7.409  17.887  0.00  0.00    +0.000 A 
ATOM      3  C   UNL     1       1.964   8.634  18.252  0.00  0.00    +0.000 A 
ATOM      4  C   UNL     1       1.440   8.838  19.536  0.00  0.00    +0.000 A 
ATOM      5  C   UNL     1       1.541   7.780  20.472  0.00  0.00    +0.000 A 
ATOM      6  C   UNL     1       2.104   6.548  20.091  0.00  0.00    +0.000 A 
ATOM      7  C   UNL     1       1.058   7.912  21.897  0.00  0.00    +0.000 C 
ATOM      8  C   UNL     1       0.235   9.171  22.130  0.00  0.00    +0.000 C 
ATOM      9  C   UNL     1       0.897  10.318  21.389  0.00  0.00    +0.000 C 
ATOM     10  N   UNL     1       0.810  10.073  19.941  0.00  0.00    +0.000 N 
ATOM     11  C   UNL     1       0.135  10.916  19.017  0.00  0.00    +0.000 C 
ATOM     12  O   UNL     1       0.163  10.702  17.802  0.00  0.00    +0.000 OA
ENDROOT
BRANCH  11  13
ATOM     13  C   UNL     1      -0.662  12.044  19.523  0.00  0.00    +0.000 A 
ATOM     14  C   UNL     1      -1.984  12.129  19.926  0.00  0.00    +0.000 A 
ATOM     15  C   UNL     1      -2.354  13.435  20.360  0.00  0.00    +0.000 A 
ATOM     16  C   UNL     1      -1.341  14.344  20.161  0.00  0.00    +0.000 A 
ATOM     17  S   UNL     1       0.062  13.608  19.525  0.00  0.00    +0.000 S 
ENDBRANCH  11  13
BRANCH   1  18
ATOM     18  N   UNL     1       3.076   5.096  18.405  0.00  0.00    +0.000 N 
ATOM     19  H   UNL     1       2.416   4.327  18.316  0.00  0.00    +0.000 HD
BRANCH  18  20
ATOM     20  S   UNL     1       4.630   4.614  18.818  0.00  0.00    +0.000 S 
ATOM     21  O   UNL     1       4.601   3.270  19.344  0.00  0.00    +0.000 OA
ATOM     22  O   UNL     1       5.179   5.703  19.605  0.00  0.00    +0.000 OA
BRANCH  20  30
ATOM     23  C   UNL     1       7.840   4.858  18.297  0.00  0.00    +0.000 C 
ATOM     24  C   UNL     1       6.903   4.741  17.128  0.00  0.00    +0.000 A 
ATOM     25  C   UNL     1       7.460   4.763  15.835  0.00  0.00    +0.000 A 
ATOM     26  C   UNL     1       6.651   4.706  14.705  0.00  0.00    +0.000 A 
ATOM     27  F   UNL     1       7.212   4.735  13.489  0.00  0.00    +0.000 F 
ATOM     28  C   UNL     1       5.272   4.630  14.818  0.00  0.00    +0.000 A 
ATOM     29  C   UNL     1       4.695   4.594  16.088  0.00  0.00    +0.000 A 
ATOM     30  C   UNL     1       5.501   4.633  17.245  0.00  0.00    +0.000 A 
ENDBRANCH  20  30
ENDBRANCH  18  20
ENDBRANCH   1  18
TORSDOF 4
ENDMDL
MODEL 6
REMARK VINA RESULT:      -8.1      3.167      4.164
REMARK  Name = 
REMARK  5 active torsions:
REMARK  status: ('A' for Active; 'I' for Inactive)
REMARK    1  A    between atoms: C_1  and  C_2
REMARK    2  A    between atoms: C_8  and  S_9
REMARK    3  A    between atoms: S_9  and  N_12
REMARK    4  A    between atoms: N_12  and  C_13
REMARK    5  A    between atoms: C_23  and  C_25
REMARK                            x       y       z     vdW  Elec       q    Type
REMARK                         _______ _______ _______ _____ _____    ______ ____
ROOT
ATOM      1  C   UNL     1       2.155   7.805  19.356  0.00  0.00    +0.000 A 
ATOM      2  C   UNL     1       1.673   7.596  20.642  0.00  0.00    +0.000 A 
ATOM      3  C   UNL     1       0.767   8.502  21.207  0.00  0.00    +0.000 A 
ATOM      4  C   UNL     1       0.313   9.618  20.490  0.00  0.00    +0.000 A 
ATOM      5  C   UNL     1       0.768   9.786  19.160  0.00  0.00    +0.000 A 
ATOM      6  C   UNL     1       1.691   8.879  18.607  0.00  0.00    +0.000 A 
ATOM      7  C   UNL     1       0.301  10.923  18.282  0.00  0.00    +0.000 C 
ATOM      8  C   UNL     1      -0.478  11.983  19.050  0.00  0.00    +0.000 C 
ATOM      9  C   UNL     1      -1.402  11.281  20.029  0.00  0.00    +0.000 C 
ATOM     10  N   UNL     1      -0.594  10.594  21.049  0.00  0.00    +0.000 N 
ATOM     11  C   UNL     1      -0.639  10.877  22.440  0.00  0.00    +0.000 C 
ATOM     12  O   UNL     1       0.003  10.214  23.259  0.00  0.00    +0.000 OA
ENDROOT
BRANCH  11  13
ATOM     13  C   UNL     1      -1.428  12.023  22.916  0.00  0.00    +0.000 A 
ATOM     14  C   UNL     1      -2.724  12.112  23.397  0.00  0.00    +0.000 A 
ATOM     15  C   UNL     1      -3.096  13.438  23.761  0.00  0.00    +0.000 A 
ATOM     16  C   UNL     1      -2.120  14.350  23.433  0.00  0.00    +0.000 A 
ATOM     17  S   UNL     1      -0.743  13.597  22.760  0.00  0.00    +0.000 S 
ENDBRANCH  11  13
BRANCH   1  18
ATOM     18  N   UNL     1       3.138   6.941  18.815  0.00  0.00    +0.000 N 
ATOM     19  H   UNL     1       4.007   7.351  18.485  0.00  0.00    +0.000 HD
BRANCH  18  20
ATOM     20  S   UNL     1       2.701   5.533  18.013  0.00  0.00    +0.000 S 
ATOM     21  O   UNL     1       3.775   5.114  17.144  0.00  0.00    +0.000 OA
ATOM     22  O   UNL     1       1.375   5.784  17.480  0.00  0.00    +0.000 OA
BRANCH  20  30
ATOM     23  C   UNL     1       4.975   3.646  19.393  0.00  0.00    +0.000 C 
ATOM     24  C   UNL     1       3.554   3.573  19.875  0.00  0.00    +0.000 A 
ATOM     25  C   UNL     1       3.257   2.661  20.907  0.00  0.00    +0.000 A 
ATOM     26  C   UNL     1       1.955   2.504  21.371  0.00  0.00    +0.000 A 
ATOM     27  F   UNL     1       1.705   1.624  22.349  0.00  0.00    +0.000 F 
ATOM     28  C   UNL     1       0.912   3.239  20.831  0.00  0.00    +0.000 A 
ATOM     29  C   UNL     1       1.181   4.158  19.817  0.00  0.00    +0.000 A 
ATOM     30  C   UNL     1       2.498   4.342  19.345  0.00  0.00    +0.000 A 
ENDBRANCH  20  30
ENDBRANCH  18  20
ENDBRANCH   1  18
TORSDOF 4
ENDMDL
MODEL 7
REMARK VINA RESULT:      -8.0      1.706      2.307
REMARK  Name = 
REMARK  5 active torsions:
REMARK  status: ('A' for Active; 'I' for Inactive)
REMARK    1  A    between atoms: C_1  and  C_2
REMARK    2  A    between atoms: C_8  and  S_9
REMARK    3  A    between atoms: S_9  and  N_12
REMARK    4  A    between atoms: N_12  and  C_13
REMARK    5  A    between atoms: C_23  and  C_25
REMARK                            x       y       z     vdW  Elec       q    Type
REMARK                         _______ _______ _______ _____ _____    ______ ____
ROOT
ATOM      1  C   UNL     1       2.554   5.721  19.619  0.00  0.00    +0.000 A 
ATOM      2  C   UNL     1       1.855   6.034  20.778  0.00  0.00    +0.000 A 
ATOM      3  C   UNL     1       1.314   7.314  20.946  0.00  0.00    +0.000 A 
ATOM      4  C   UNL     1       1.444   8.296  19.953  0.00  0.00    +0.000 A 
ATOM      5  C   UNL     1       2.109   7.944  18.753  0.00  0.00    +0.000 A 
ATOM      6  C   UNL     1       2.663   6.659  18.600  0.00  0.00    +0.000 A 
ATOM      7  C   UNL     1       2.259   8.907  17.599  0.00  0.00    +0.000 C 
ATOM      8  C   UNL     1       1.867  10.332  17.963  0.00  0.00    +0.000 C 
ATOM      9  C   UNL     1       0.614  10.280  18.818  0.00  0.00    +0.000 C 
ATOM     10  N   UNL     1       0.932   9.638  20.103  0.00  0.00    +0.000 N 
ATOM     11  C   UNL     1       0.811  10.264  21.372  0.00  0.00    +0.000 C 
ATOM     12  O   UNL     1       1.016   9.650  22.422  0.00  0.00    +0.000 OA
ENDROOT
BRANCH  11  13
ATOM     13  C   UNL     1       0.483  11.697  21.438  0.00  0.00    +0.000 A 
ATOM     14  C   UNL     1       1.152  12.816  20.971  0.00  0.00    +0.000 A 
ATOM     15  C   UNL     1       0.466  14.034  21.247  0.00  0.00    +0.000 A 
ATOM     16  C   UNL     1      -0.648  13.826  22.026  0.00  0.00    +0.000 A 
ATOM     17  S   UNL     1      -0.896  12.170  22.357  0.00  0.00    +0.000 S 
ENDBRANCH  11  13
BRANCH   1  18
ATOM     18  N   UNL     1       3.176   4.457  19.483  0.00  0.00    +0.000 N 
ATOM     19  H   UNL     1       3.506   3.992  20.325  0.00  0.00    +0.000 HD
BRANCH  18  20
ATOM     20  S   UNL     1       4.053   4.070  18.105  0.00  0.00    +0.000 S 
ATOM     21  O   UNL     1       3.273   4.376  16.929  0.00  0.00    +0.000 OA
ATOM     22  O   UNL     1       4.555   2.727  18.328  0.00  0.00    +0.000 OA
BRANCH  20  30
ATOM     23  C   UNL     1       5.101   6.197  15.866  0.00  0.00    +0.000 C 
ATOM     24  C   UNL     1       5.843   6.057  17.165  0.00  0.00    +0.000 A 
ATOM     25  C   UNL     1       6.992   6.850  17.354  0.00  0.00    +0.000 A 
ATOM     26  C   UNL     1       7.755   6.740  18.511  0.00  0.00    +0.000 A 
ATOM     27  F   UNL     1       8.845   7.505  18.657  0.00  0.00    +0.000 F 
ATOM     28  C   UNL     1       7.411   5.845  19.511  0.00  0.00    +0.000 A 
ATOM     29  C   UNL     1       6.271   5.056  19.355  0.00  0.00    +0.000 A 
ATOM     30  C   UNL     1       5.474   5.167  18.196  0.00  0.00    +0.000 A 
ENDBRANCH  20  30
ENDBRANCH  18  20
ENDBRANCH   1  18
TORSDOF 4
ENDMDL
MODEL 8
REMARK VINA RESULT:      -7.9      2.260      3.357
REMARK  Name = 
REMARK  5 active torsions:
REMARK  status: ('A' for Active; 'I' for Inactive)
REMARK    1  A    between atoms: C_1  and  C_2
REMARK    2  A    between atoms: C_8  and  S_9
REMARK    3  A    between atoms: S_9  and  N_12
REMARK    4  A    between atoms: N_12  and  C_13
REMARK    5  A    between atoms: C_23  and  C_25
REMARK                            x       y       z     vdW  Elec       q    Type
REMARK                         _______ _______ _______ _____ _____    ______ ____
ROOT
ATOM      1  C   UNL     1       2.225   8.521  18.533  0.00  0.00    +0.000 A 
ATOM      2  C   UNL     1       1.857   9.725  17.945  0.00  0.00    +0.000 A 
ATOM      3  C   UNL     1       1.009  10.607  18.625  0.00  0.00    +0.000 A 
ATOM      4  C   UNL     1       0.531  10.311  19.910  0.00  0.00    +0.000 A 
ATOM      5  C   UNL     1       0.962   9.108  20.520  0.00  0.00    +0.000 A 
ATOM      6  C   UNL     1       1.802   8.221  19.822  0.00  0.00    +0.000 A 
ATOM      7  C   UNL     1       0.551   8.719  21.920  0.00  0.00    +0.000 C 
ATOM      8  C   UNL     1      -0.555   9.602  22.480  0.00  0.00    +0.000 C 
ATOM      9  C   UNL     1      -0.262  11.039  22.092  0.00  0.00    +0.000 C 
ATOM     10  N   UNL     1      -0.372  11.178  20.631  0.00  0.00    +0.000 N 
ATOM     11  C   UNL     1      -1.299  12.025  19.967  0.00  0.00    +0.000 C 
ATOM     12  O   UNL     1      -1.292  12.160  18.741  0.00  0.00    +0.000 OA
ENDROOT
BRANCH  11  13
ATOM     13  C   UNL     1      -2.329  12.720  20.754  0.00  0.00    +0.000 A 
ATOM     14  C   UNL     1      -3.662  12.428  20.988  0.00  0.00    +0.000 A 
ATOM     15  C   UNL     1      -4.305  13.381  21.830  0.00  0.00    +0.000 A 
ATOM     16  C   UNL     1      -3.482  14.444  22.117  0.00  0.00    +0.000 A 
ATOM     17  S   UNL     1      -1.929  14.252  21.435  0.00  0.00    +0.000 S 
ENDBRANCH  11  13
BRANCH   1  18
ATOM     18  N   UNL     1       3.011   7.589  17.814  0.00  0.00    +0.000 N 
ATOM     19  H   UNL     1       3.147   7.744  16.818  0.00  0.00    +0.000 HD
BRANCH  18  20
ATOM     20  S   UNL     1       3.059   5.972  18.263  0.00  0.00    +0.000 S 
ATOM     21  O   UNL     1       1.750   5.383  18.108  0.00  0.00    +0.000 OA
ATOM     22  O   UNL     1       3.733   5.945  19.547  0.00  0.00    +0.000 OA
BRANCH  20  30
ATOM     23  C   UNL     1       3.782   2.821  17.834  0.00  0.00    +0.000 C 
ATOM     24  C   UNL     1       4.438   3.860  16.969  0.00  0.00    +0.000 A 
ATOM     25  C   UNL     1       5.369   3.421  16.007  0.00  0.00    +0.000 A 
ATOM     26  C   UNL     1       6.049   4.329  15.202  0.00  0.00    +0.000 A 
ATOM     27  F   UNL     1       6.933   3.879  14.302  0.00  0.00    +0.000 F 
ATOM     28  C   UNL     1       5.835   5.692  15.326  0.00  0.00    +0.000 A 
ATOM     29  C   UNL     1       4.909   6.153  16.262  0.00  0.00    +0.000 A 
ATOM     30  C   UNL     1       4.197   5.246  17.074  0.00  0.00    +0.000 A 
ENDBRANCH  20  30
ENDBRANCH  18  20
ENDBRANCH   1  18
TORSDOF 4
ENDMDL
MODEL 9
REMARK VINA RESULT:      -7.9      2.835      3.490
REMARK  Name = 
REMARK  5 active torsions:
REMARK  status: ('A' for Active; 'I' for Inactive)
REMARK    1  A    between atoms: C_1  and  C_2
REMARK    2  A    between atoms: C_8  and  S_9
REMARK    3  A    between atoms: S_9  and  N_12
REMARK    4  A    between atoms: N_12  and  C_13
REMARK    5  A    between atoms: C_23  and  C_25
REMARK                            x       y       z     vdW  Elec       q    Type
REMARK                         _______ _______ _______ _____ _____    ______ ____
ROOT
ATOM      1  C   UNL     1       1.769   8.011  20.097  0.00  0.00    +0.000 A 
ATOM      2  C   UNL     1       1.018   7.855  21.255  0.00  0.00    +0.000 A 
ATOM      3  C   UNL     1       0.153   8.874  21.672  0.00  0.00    +0.000 A 
ATOM      4  C   UNL     1       0.011  10.056  20.931  0.00  0.00    +0.000 A 
ATOM      5  C   UNL     1       0.739  10.176  19.722  0.00  0.00    +0.000 A 
ATOM      6  C   UNL     1       1.617   9.153  19.319  0.00  0.00    +0.000 A 
ATOM      7  C   UNL     1       0.618  11.382  18.821  0.00  0.00    +0.000 C 
ATOM      8  C   UNL     1      -0.140  12.532  19.469  0.00  0.00    +0.000 C 
ATOM      9  C   UNL     1      -1.329  11.958  20.219  0.00  0.00    +0.000 C 
ATOM     10  N   UNL     1      -0.843  11.145  21.345  0.00  0.00    +0.000 N 
ATOM     11  C   UNL     1      -1.121  11.410  22.713  0.00  0.00    +0.000 C 
ATOM     12  O   UNL     1      -0.753  10.648  23.610  0.00  0.00    +0.000 OA
ENDROOT
BRANCH  11  13
ATOM     13  C   UNL     1      -1.821  12.652  23.076  0.00  0.00    +0.000 A 
ATOM     14  C   UNL     1      -1.351  13.919  23.376  0.00  0.00    +0.000 A 
ATOM     15  C   UNL     1      -2.391  14.847  23.671  0.00  0.00    +0.000 A 
ATOM     16  C   UNL     1      -3.622  14.236  23.711  0.00  0.00    +0.000 A 
ATOM     17  S   UNL     1      -3.525  12.577  23.326  0.00  0.00    +0.000 S 
ENDBRANCH  11  13
BRANCH   1  18
ATOM     18  N   UNL     1       2.708   7.021  19.719  0.00  0.00    +0.000 N 
ATOM     19  H   UNL     1       3.578   6.962  20.241  0.00  0.00    +0.000 HD
BRANCH  18  20
ATOM     20  S   UNL     1       2.836   6.517  18.123  0.00  0.00    +0.000 S 
ATOM     21  O   UNL     1       3.948   7.184  17.488  0.00  0.00    +0.000 OA
ATOM     22  O   UNL     1       1.498   6.625  17.572  0.00  0.00    +0.000 OA
BRANCH  20  30
ATOM     23  C   UNL     1       5.505   5.088  19.338  0.00  0.00    +0.000 C 
ATOM     24  C   UNL     1       4.378   4.241  18.817  0.00  0.00    +0.000 A 
ATOM     25  C   UNL     1       4.536   2.842  18.858  0.00  0.00    +0.000 A 
ATOM     26  C   UNL     1       3.555   1.996  18.351  0.00  0.00    +0.000 A 
ATOM     27  F   UNL     1       3.739   0.670  18.399  0.00  0.00    +0.000 F 
ATOM     28  C   UNL     1       2.396   2.504  17.787  0.00  0.00    +0.000 A 
ATOM     29  C   UNL     1       2.209   3.885  17.745  0.00  0.00    +0.000 A 
ATOM     30  C   UNL     1       3.185   4.759  18.271  0.00  0.00    +0.000 A 
ENDBRANCH  20  30
ENDBRANCH  18  20
ENDBRANCH   1  18
TORSDOF 4
ENDMDL
