MODEL 1
REMARK VINA RESULT:      -7.1      0.000      0.000
REMARK  Name = 
REMARK  11 active torsions:
REMARK  status: ('A' for Active; 'I' for Inactive)
REMARK    1  A    between atoms: C_1  and  C_2
REMARK    2  A    between atoms: C_2  and  C_3
REMARK    3  A    between atoms: C_4  and  C_5
REMARK    4  A    between atoms: C_5  and  C_6
REMARK    5  A    between atoms: C_6  and  C_7
REMARK    6  A    between atoms: C_7  and  C_8
REMARK    7  A    between atoms: C_7  and  C_9
REMARK    8  A    between atoms: C_12  and  C_13
REMARK    9  A    between atoms: C_14  and  C_15
REMARK   10  A    between atoms: C_15  and  O_16
REMARK   11  A    between atoms: C_17  and  O_18
REMARK                            x       y       z     vdW  Elec       q    Type
REMARK                         _______ _______ _______ _____ _____    ______ ____
ROOT
ATOM      1  C   UNL     1       4.593   5.376  17.840  0.00  0.00    +0.000 A 
ATOM      2  C   UNL     1       4.583   6.539  17.063  0.00  0.00    +0.000 A 
ATOM      3  C   UNL     1       5.709   7.356  16.982  0.00  0.00    +0.000 A 
ATOM      4  C   UNL     1       6.876   7.052  17.696  0.00  0.00    +0.000 A 
ATOM      5  C   UNL     1       8.036   8.004  17.582  0.00  0.00    +0.000 C 
ATOM      6  C   UNL     1       6.925   5.880  18.486  0.00  0.00    +0.000 A 
ATOM      7  C   UNL     1       5.779   5.052  18.523  0.00  0.00    +0.000 A 
ENDROOT
BRANCH   1   8
ATOM      8  C   UNL     1       3.325   4.550  18.053  0.00  0.00    +0.000 C 
ATOM      9  C   UNL     1       2.128   5.508  17.949  0.00  0.00    +0.000 C 
BRANCH   8  10
ATOM     10  C   UNL     1       3.206   3.324  17.112  0.00  0.00    +0.000 C 
BRANCH  10  11
ATOM     11  C   UNL     1       2.645   2.084  17.817  0.00  0.00    +0.000 C 
BRANCH  11  15
ATOM     12  C   UNL     1       2.219   2.634  21.655  0.00  0.00    +0.000 C 
ATOM     13  C   UNL     1       1.888   2.529  20.192  0.00  0.00    +0.000 C 
ATOM     14  C   UNL     1       0.486   2.892  19.781  0.00  0.00    +0.000 C 
ATOM     15  C   UNL     1       2.826   2.126  19.310  0.00  0.00    +0.000 C 
ENDBRANCH  11  15
ENDBRANCH  10  11
ENDBRANCH   8  10
ENDBRANCH   1   8
BRANCH   7  16
ATOM     16  O   UNL     1       5.774   3.893  19.261  0.00  0.00    +0.000 OA
ATOM     17  H   UNL     1       5.021   3.342  18.959  0.00  0.00    +0.000 HD
ENDBRANCH   7  16
BRANCH   6  18
ATOM     18  C   UNL     1       8.194   5.499  19.211  0.00  0.00    +0.000 C 
BRANCH  18  19
ATOM     19  O   UNL     1       7.982   5.433  20.623  0.00  0.00    +0.000 OA
ATOM     20  H   UNL     1       8.468   4.644  20.930  0.00  0.00    +0.000 HD
ENDBRANCH  18  19
ENDBRANCH   6  18
TORSDOF 7
ENDMDL
MODEL 2
REMARK VINA RESULT:      -6.9      3.100      5.883
REMARK  Name = 
REMARK  11 active torsions:
REMARK  status: ('A' for Active; 'I' for Inactive)
REMARK    1  A    between atoms: C_1  and  C_2
REMARK    2  A    between atoms: C_2  and  C_3
REMARK    3  A    between atoms: C_4  and  C_5
REMARK    4  A    between atoms: C_5  and  C_6
REMARK    5  A    between atoms: C_6  and  C_7
REMARK    6  A    between atoms: C_7  and  C_8
REMARK    7  A    between atoms: C_7  and  C_9
REMARK    8  A    between atoms: C_12  and  C_13
REMARK    9  A    between atoms: C_14  and  C_15
REMARK   10  A    between atoms: C_15  and  O_16
REMARK   11  A    between atoms: C_17  and  O_18
REMARK                            x       y       z     vdW  Elec       q    Type
REMARK                         _______ _______ _______ _____ _____    ______ ____
ROOT
ATOM      1  C   UNL     1       4.079   4.566  17.504  0.00  0.00    +0.000 A 
ATOM      2  C   UNL     1       2.697   4.773  17.429  0.00  0.00    +0.000 A 
ATOM      3  C   UNL     1       1.836   4.202  18.365  0.00  0.00    +0.000 A 
ATOM      4  C   UNL     1       2.325   3.383  19.393  0.00  0.00    +0.000 A 
ATOM      5  C   UNL     1       1.326   2.777  20.341  0.00  0.00    +0.000 C 
ATOM      6  C   UNL     1       3.717   3.159  19.503  0.00  0.00    +0.000 A 
ATOM      7  C   UNL     1       4.570   3.778  18.560  0.00  0.00    +0.000 A 
ENDROOT
BRANCH   1   8
ATOM      8  C   UNL     1       5.018   5.065  16.405  0.00  0.00    +0.000 C 
ATOM      9  C   UNL     1       5.815   6.246  16.982  0.00  0.00    +0.000 C 
BRANCH   8  10
ATOM     10  C   UNL     1       5.920   3.960  15.800  0.00  0.00    +0.000 C 
BRANCH  10  11
ATOM     11  C   UNL     1       6.308   4.240  14.344  0.00  0.00    +0.000 C 
BRANCH  11  15
ATOM     12  C   UNL     1       4.180   3.205  11.243  0.00  0.00    +0.000 C 
ATOM     13  C   UNL     1       5.349   3.345  12.178  0.00  0.00    +0.000 C 
ATOM     14  C   UNL     1       6.667   2.787  11.711  0.00  0.00    +0.000 C 
ATOM     15  C   UNL     1       5.195   3.949  13.374  0.00  0.00    +0.000 C 
ENDBRANCH  11  15
ENDBRANCH  10  11
ENDBRANCH   8  10
ENDBRANCH   1   8
BRANCH   7  16
ATOM     16  O   UNL     1       5.932   3.610  18.628  0.00  0.00    +0.000 OA
ATOM     17  H   UNL     1       6.122   2.648  18.605  0.00  0.00    +0.000 HD
ENDBRANCH   7  16
BRANCH   6  18
ATOM     18  C   UNL     1       4.271   2.336  20.642  0.00  0.00    +0.000 C 
BRANCH  18  19
ATOM     19  O   UNL     1       5.241   1.396  20.174  0.00  0.00    +0.000 OA
ATOM     20  H   UNL     1       5.320   0.722  20.877  0.00  0.00    +0.000 HD
ENDBRANCH  18  19
ENDBRANCH   6  18
TORSDOF 7
ENDMDL
MODEL 3
REMARK VINA RESULT:      -6.8      1.940      5.009
REMARK  Name = 
REMARK  11 active torsions:
REMARK  status: ('A' for Active; 'I' for Inactive)
REMARK    1  A    between atoms: C_1  and  C_2
REMARK    2  A    between atoms: C_2  and  C_3
REMARK    3  A    between atoms: C_4  and  C_5
REMARK    4  A    between atoms: C_5  and  C_6
REMARK    5  A    between atoms: C_6  and  C_7
REMARK    6  A    between atoms: C_7  and  C_8
REMARK    7  A    between atoms: C_7  and  C_9
REMARK    8  A    between atoms: C_12  and  C_13
REMARK    9  A    between atoms: C_14  and  C_15
REMARK   10  A    between atoms: C_15  and  O_16
REMARK   11  A    between atoms: C_17  and  O_18
REMARK                            x       y       z     vdW  Elec       q    Type
REMARK                         _______ _______ _______ _____ _____    ______ ____
ROOT
ATOM      1  C   UNL     1       4.417   4.137  17.160  0.00  0.00    +0.000 A 
ATOM      2  C   UNL     1       3.093   3.991  16.733  0.00  0.00    +0.000 A 
ATOM      3  C   UNL     1       2.161   3.306  17.510  0.00  0.00    +0.000 A 
ATOM      4  C   UNL     1       2.527   2.721  18.731  0.00  0.00    +0.000 A 
ATOM      5  C   UNL     1       1.470   1.969  19.493  0.00  0.00    +0.000 C 
ATOM      6  C   UNL     1       3.855   2.856  19.198  0.00  0.00    +0.000 A 
ATOM      7  C   UNL     1       4.771   3.584  18.404  0.00  0.00    +0.000 A 
ENDROOT
BRANCH   1   8
ATOM      8  C   UNL     1       5.482   4.758  16.256  0.00  0.00    +0.000 C 
ATOM      9  C   UNL     1       5.455   3.995  14.922  0.00  0.00    +0.000 C 
BRANCH   8  10
ATOM     10  C   UNL     1       5.343   6.291  16.082  0.00  0.00    +0.000 C 
BRANCH  10  11
ATOM     11  C   UNL     1       5.051   7.016  17.401  0.00  0.00    +0.000 C 
BRANCH  11  15
ATOM     12  C   UNL     1       1.526   8.624  17.856  0.00  0.00    +0.000 C 
ATOM     13  C   UNL     1       2.729   7.753  18.092  0.00  0.00    +0.000 C 
ATOM     14  C   UNL     1       2.631   6.738  19.200  0.00  0.00    +0.000 C 
ATOM     15  C   UNL     1       3.832   7.896  17.329  0.00  0.00    +0.000 C 
ENDBRANCH  11  15
ENDBRANCH  10  11
ENDBRANCH   8  10
ENDBRANCH   1   8
BRANCH   7  16
ATOM     16  O   UNL     1       6.070   3.762  18.815  0.00  0.00    +0.000 OA
ATOM     17  H   UNL     1       6.071   3.859  19.791  0.00  0.00    +0.000 HD
ENDBRANCH   7  16
BRANCH   6  18
ATOM     18  C   UNL     1       4.255   2.291  20.541  0.00  0.00    +0.000 C 
BRANCH  18  19
ATOM     19  O   UNL     1       5.375   1.412  20.418  0.00  0.00    +0.000 OA
ATOM     20  H   UNL     1       5.020   0.574  20.063  0.00  0.00    +0.000 HD
ENDBRANCH  18  19
ENDBRANCH   6  18
TORSDOF 7
ENDMDL
MODEL 4
REMARK VINA RESULT:      -6.8      3.104      6.160
REMARK  Name = 
REMARK  11 active torsions:
REMARK  status: ('A' for Active; 'I' for Inactive)
REMARK    1  A    between atoms: C_1  and  C_2
REMARK    2  A    between atoms: C_2  and  C_3
REMARK    3  A    between atoms: C_4  and  C_5
REMARK    4  A    between atoms: C_5  and  C_6
REMARK    5  A    between atoms: C_6  and  C_7
REMARK    6  A    between atoms: C_7  and  C_8
REMARK    7  A    between atoms: C_7  and  C_9
REMARK    8  A    between atoms: C_12  and  C_13
REMARK    9  A    between atoms: C_14  and  C_15
REMARK   10  A    between atoms: C_15  and  O_16
REMARK   11  A    between atoms: C_17  and  O_18
REMARK                            x       y       z     vdW  Elec       q    Type
REMARK                         _______ _______ _______ _____ _____    ______ ____
ROOT
ATOM      1  C   UNL     1       4.317   4.689  17.698  0.00  0.00    +0.000 A 
ATOM      2  C   UNL     1       3.781   3.660  16.916  0.00  0.00    +0.000 A 
ATOM      3  C   UNL     1       2.704   2.900  17.371  0.00  0.00    +0.000 A 
ATOM      4  C   UNL     1       2.143   3.128  18.636  0.00  0.00    +0.000 A 
ATOM      5  C   UNL     1       1.005   2.242  19.067  0.00  0.00    +0.000 C 
ATOM      6  C   UNL     1       2.655   4.164  19.450  0.00  0.00    +0.000 A 
ATOM      7  C   UNL     1       3.726   4.940  18.949  0.00  0.00    +0.000 A 
ENDROOT
BRANCH   1   8
ATOM      8  C   UNL     1       5.585   5.431  17.275  0.00  0.00    +0.000 C 
ATOM      9  C   UNL     1       6.787   4.600  17.754  0.00  0.00    +0.000 C 
BRANCH   8  10
ATOM     10  C   UNL     1       5.642   5.769  15.764  0.00  0.00    +0.000 C 
BRANCH  10  11
ATOM     11  C   UNL     1       6.614   4.870  14.990  0.00  0.00    +0.000 C 
BRANCH  11  15
ATOM     12  C   UNL     1       5.415   2.881  11.855  0.00  0.00    +0.000 C 
ATOM     13  C   UNL     1       6.253   3.759  12.743  0.00  0.00    +0.000 C 
ATOM     14  C   UNL     1       7.458   4.411  12.118  0.00  0.00    +0.000 C 
ATOM     15  C   UNL     1       5.916   3.937  14.037  0.00  0.00    +0.000 C 
ENDBRANCH  11  15
ENDBRANCH  10  11
ENDBRANCH   8  10
ENDBRANCH   1   8
BRANCH   7  16
ATOM     16  O   UNL     1       4.253   5.971  19.688  0.00  0.00    +0.000 OA
ATOM     17  H   UNL     1       3.541   6.333  20.259  0.00  0.00    +0.000 HD
ENDBRANCH   7  16
BRANCH   6  18
ATOM     18  C   UNL     1       2.022   4.470  20.788  0.00  0.00    +0.000 C 
BRANCH  18  19
ATOM     19  O   UNL     1       1.759   5.868  20.926  0.00  0.00    +0.000 OA
ATOM     20  H   UNL     1       0.808   5.981  20.733  0.00  0.00    +0.000 HD
ENDBRANCH  18  19
ENDBRANCH   6  18
TORSDOF 7
ENDMDL
MODEL 5
REMARK VINA RESULT:      -6.8      2.043      5.216
REMARK  Name = 
REMARK  11 active torsions:
REMARK  status: ('A' for Active; 'I' for Inactive)
REMARK    1  A    between atoms: C_1  and  C_2
REMARK    2  A    between atoms: C_2  and  C_3
REMARK    3  A    between atoms: C_4  and  C_5
REMARK    4  A    between atoms: C_5  and  C_6
REMARK    5  A    between atoms: C_6  and  C_7
REMARK    6  A    between atoms: C_7  and  C_8
REMARK    7  A    between atoms: C_7  and  C_9
REMARK    8  A    between atoms: C_12  and  C_13
REMARK    9  A    between atoms: C_14  and  C_15
REMARK   10  A    between atoms: C_15  and  O_16
REMARK   11  A    between atoms: C_17  and  O_18
REMARK                            x       y       z     vdW  Elec       q    Type
REMARK                         _______ _______ _______ _____ _____    ______ ____
ROOT
ATOM      1  C   UNL     1       4.195   4.834  17.143  0.00  0.00    +0.000 A 
ATOM      2  C   UNL     1       3.833   6.066  17.700  0.00  0.00    +0.000 A 
ATOM      3  C   UNL     1       3.097   6.129  18.882  0.00  0.00    +0.000 A 
ATOM      4  C   UNL     1       2.674   4.961  19.534  0.00  0.00    +0.000 A 
ATOM      5  C   UNL     1       1.853   5.116  20.786  0.00  0.00    +0.000 C 
ATOM      6  C   UNL     1       3.028   3.699  19.003  0.00  0.00    +0.000 A 
ATOM      7  C   UNL     1       3.804   3.666  17.821  0.00  0.00    +0.000 A 
ENDROOT
BRANCH   1   8
ATOM      8  C   UNL     1       4.875   4.748  15.777  0.00  0.00    +0.000 C 
ATOM      9  C   UNL     1       5.166   6.185  15.316  0.00  0.00    +0.000 C 
BRANCH   8  10
ATOM     10  C   UNL     1       6.128   3.837  15.754  0.00  0.00    +0.000 C 
BRANCH  10  11
ATOM     11  C   UNL     1       7.406   4.571  16.177  0.00  0.00    +0.000 C 
BRANCH  11  15
ATOM     12  C   UNL     1       7.961   5.712  19.866  0.00  0.00    +0.000 C 
ATOM     13  C   UNL     1       7.680   5.771  18.390  0.00  0.00    +0.000 C 
ATOM     14  C   UNL     1       7.525   7.138  17.778  0.00  0.00    +0.000 C 
ATOM     15  C   UNL     1       7.578   4.635  17.671  0.00  0.00    +0.000 C 
ENDBRANCH  11  15
ENDBRANCH  10  11
ENDBRANCH   8  10
ENDBRANCH   1   8
BRANCH   7  16
ATOM     16  O   UNL     1       4.192   2.469  17.269  0.00  0.00    +0.000 OA
ATOM     17  H   UNL     1       3.441   1.841  17.343  0.00  0.00    +0.000 HD
ENDBRANCH   7  16
BRANCH   6  18
ATOM     18  C   UNL     1       2.641   2.430  19.725  0.00  0.00    +0.000 C 
BRANCH  18  19
ATOM     19  O   UNL     1       1.863   1.575  18.883  0.00  0.00    +0.000 OA
ATOM     20  H   UNL     1       0.939   1.677  19.181  0.00  0.00    +0.000 HD
ENDBRANCH  18  19
ENDBRANCH   6  18
TORSDOF 7
ENDMDL
MODEL 6
REMARK VINA RESULT:      -6.7      2.729      5.923
REMARK  Name = 
REMARK  11 active torsions:
REMARK  status: ('A' for Active; 'I' for Inactive)
REMARK    1  A    between atoms: C_1  and  C_2
REMARK    2  A    between atoms: C_2  and  C_3
REMARK    3  A    between atoms: C_4  and  C_5
REMARK    4  A    between atoms: C_5  and  C_6
REMARK    5  A    between atoms: C_6  and  C_7
REMARK    6  A    between atoms: C_7  and  C_8
REMARK    7  A    between atoms: C_7  and  C_9
REMARK    8  A    between atoms: C_12  and  C_13
REMARK    9  A    between atoms: C_14  and  C_15
REMARK   10  A    between atoms: C_15  and  O_16
REMARK   11  A    between atoms: C_17  and  O_18
REMARK                            x       y       z     vdW  Elec       q    Type
REMARK                         _______ _______ _______ _____ _____    ______ ____
ROOT
ATOM      1  C   UNL     1       2.339   5.792  18.858  0.00  0.00    +0.000 A 
ATOM      2  C   UNL     1       2.542   5.978  20.229  0.00  0.00    +0.000 A 
ATOM      3  C   UNL     1       2.267   4.959  21.140  0.00  0.00    +0.000 A 
ATOM      4  C   UNL     1       1.754   3.726  20.711  0.00  0.00    +0.000 A 
ATOM      5  C   UNL     1       1.451   2.691  21.760  0.00  0.00    +0.000 C 
ATOM      6  C   UNL     1       1.543   3.500  19.331  0.00  0.00    +0.000 A 
ATOM      7  C   UNL     1       1.863   4.540  18.428  0.00  0.00    +0.000 A 
ENDROOT
BRANCH   1   8
ATOM      8  C   UNL     1       2.499   6.944  17.866  0.00  0.00    +0.000 C 
ATOM      9  C   UNL     1       1.838   8.184  18.490  0.00  0.00    +0.000 C 
BRANCH   8  10
ATOM     10  C   UNL     1       3.962   7.193  17.421  0.00  0.00    +0.000 C 
BRANCH  10  11
ATOM     11  C   UNL     1       4.829   5.931  17.492  0.00  0.00    +0.000 C 
BRANCH  11  15
ATOM     12  C   UNL     1       6.170   4.096  14.322  0.00  0.00    +0.000 C 
ATOM     13  C   UNL     1       6.104   4.654  15.717  0.00  0.00    +0.000 C 
ATOM     14  C   UNL     1       7.341   4.516  16.566  0.00  0.00    +0.000 C 
ATOM     15  C   UNL     1       4.977   5.246  16.160  0.00  0.00    +0.000 C 
ENDBRANCH  11  15
ENDBRANCH  10  11
ENDBRANCH   8  10
ENDBRANCH   1   8
BRANCH   7  16
ATOM     16  O   UNL     1       1.694   4.372  17.075  0.00  0.00    +0.000 OA
ATOM     17  H   UNL     1       0.846   3.901  16.929  0.00  0.00    +0.000 HD
ENDBRANCH   7  16
BRANCH   6  18
ATOM     18  C   UNL     1       1.054   2.157  18.842  0.00  0.00    +0.000 C 
BRANCH  18  19
ATOM     19  O   UNL     1       1.996   1.561  17.947  0.00  0.00    +0.000 OA
ATOM     20  H   UNL     1       1.970   2.100  17.134  0.00  0.00    +0.000 HD
ENDBRANCH  18  19
ENDBRANCH   6  18
TORSDOF 7
ENDMDL
MODEL 7
REMARK VINA RESULT:      -6.6      2.366      5.874
REMARK  Name = 
REMARK  11 active torsions:
REMARK  status: ('A' for Active; 'I' for Inactive)
REMARK    1  A    between atoms: C_1  and  C_2
REMARK    2  A    between atoms: C_2  and  C_3
REMARK    3  A    between atoms: C_4  and  C_5
REMARK    4  A    between atoms: C_5  and  C_6
REMARK    5  A    between atoms: C_6  and  C_7
REMARK    6  A    between atoms: C_7  and  C_8
REMARK    7  A    between atoms: C_7  and  C_9
REMARK    8  A    between atoms: C_12  and  C_13
REMARK    9  A    between atoms: C_14  and  C_15
REMARK   10  A    between atoms: C_15  and  O_16
REMARK   11  A    between atoms: C_17  and  O_18
REMARK                            x       y       z     vdW  Elec       q    Type
REMARK                         _______ _______ _______ _____ _____    ______ ____
ROOT
ATOM      1  C   UNL     1       2.364   5.803  18.787  0.00  0.00    +0.000 A 
ATOM      2  C   UNL     1       2.563   6.010  20.156  0.00  0.00    +0.000 A 
ATOM      3  C   UNL     1       2.256   5.016  21.083  0.00  0.00    +0.000 A 
ATOM      4  C   UNL     1       1.715   3.788  20.675  0.00  0.00    +0.000 A 
ATOM      5  C   UNL     1       1.379   2.781  21.741  0.00  0.00    +0.000 C 
ATOM      6  C   UNL     1       1.507   3.542  19.298  0.00  0.00    +0.000 A 
ATOM      7  C   UNL     1       1.859   4.556  18.377  0.00  0.00    +0.000 A 
ENDROOT
BRANCH   1   8
ATOM      8  C   UNL     1       2.559   6.932  17.775  0.00  0.00    +0.000 C 
ATOM      9  C   UNL     1       1.805   8.162  18.305  0.00  0.00    +0.000 C 
BRANCH   8  10
ATOM     10  C   UNL     1       4.043   7.226  17.439  0.00  0.00    +0.000 C 
BRANCH  10  11
ATOM     11  C   UNL     1       4.843   5.959  17.116  0.00  0.00    +0.000 C 
BRANCH  11  15
ATOM     12  C   UNL     1       8.003   5.654  19.382  0.00  0.00    +0.000 C 
ATOM     13  C   UNL     1       7.051   6.168  18.338  0.00  0.00    +0.000 C 
ATOM     14  C   UNL     1       7.523   7.319  17.490  0.00  0.00    +0.000 C 
ATOM     15  C   UNL     1       5.835   5.602  18.190  0.00  0.00    +0.000 C 
ENDBRANCH  11  15
ENDBRANCH  10  11
ENDBRANCH   8  10
ENDBRANCH   1   8
BRANCH   7  16
ATOM     16  O   UNL     1       1.695   4.366  17.026  0.00  0.00    +0.000 OA
ATOM     17  H   UNL     1       1.042   3.646  16.897  0.00  0.00    +0.000 HD
ENDBRANCH   7  16
BRANCH   6  18
ATOM     18  C   UNL     1       0.988   2.202  18.831  0.00  0.00    +0.000 C 
BRANCH  18  19
ATOM     19  O   UNL     1       1.974   1.505  18.066  0.00  0.00    +0.000 OA
ATOM     20  H   UNL     1       1.951   0.581  18.380  0.00  0.00    +0.000 HD
ENDBRANCH  18  19
ENDBRANCH   6  18
TORSDOF 7
ENDMDL
MODEL 8
REMARK VINA RESULT:      -6.6      3.165      6.031
REMARK  Name = 
REMARK  11 active torsions:
REMARK  status: ('A' for Active; 'I' for Inactive)
REMARK    1  A    between atoms: C_1  and  C_2
REMARK    2  A    between atoms: C_2  and  C_3
REMARK    3  A    between atoms: C_4  and  C_5
REMARK    4  A    between atoms: C_5  and  C_6
REMARK    5  A    between atoms: C_6  and  C_7
REMARK    6  A    between atoms: C_7  and  C_8
REMARK    7  A    between atoms: C_7  and  C_9
REMARK    8  A    between atoms: C_12  and  C_13
REMARK    9  A    between atoms: C_14  and  C_15
REMARK   10  A    between atoms: C_15  and  O_16
REMARK   11  A    between atoms: C_17  and  O_18
REMARK                            x       y       z     vdW  Elec       q    Type
REMARK                         _______ _______ _______ _____ _____    ______ ____
ROOT
ATOM      1  C   UNL     1       4.154   5.090  17.477  0.00  0.00    +0.000 A 
ATOM      2  C   UNL     1       3.596   6.142  18.213  0.00  0.00    +0.000 A 
ATOM      3  C   UNL     1       2.692   5.893  19.245  0.00  0.00    +0.000 A 
ATOM      4  C   UNL     1       2.296   4.585  19.560  0.00  0.00    +0.000 A 
ATOM      5  C   UNL     1       1.290   4.404  20.665  0.00  0.00    +0.000 C 
ATOM      6  C   UNL     1       2.846   3.498  18.842  0.00  0.00    +0.000 A 
ATOM      7  C   UNL     1       3.786   3.778  17.823  0.00  0.00    +0.000 A 
ENDROOT
BRANCH   1   8
ATOM      8  C   UNL     1       5.031   5.354  16.253  0.00  0.00    +0.000 C 
ATOM      9  C   UNL     1       4.919   6.850  15.919  0.00  0.00    +0.000 C 
BRANCH   8  10
ATOM     10  C   UNL     1       6.496   4.875  16.415  0.00  0.00    +0.000 C 
BRANCH  10  11
ATOM     11  C   UNL     1       7.128   4.436  15.089  0.00  0.00    +0.000 C 
BRANCH  11  15
ATOM     12  C   UNL     1       5.105   3.195  11.993  0.00  0.00    +0.000 C 
ATOM     13  C   UNL     1       6.204   3.806  12.817  0.00  0.00    +0.000 C 
ATOM     14  C   UNL     1       7.343   4.446  12.068  0.00  0.00    +0.000 C 
ATOM     15  C   UNL     1       6.146   3.769  14.164  0.00  0.00    +0.000 C 
ENDBRANCH  11  15
ENDBRANCH  10  11
ENDBRANCH   8  10
ENDBRANCH   1   8
BRANCH   7  16
ATOM     16  O   UNL     1       4.366   2.761  17.103  0.00  0.00    +0.000 OA
ATOM     17  H   UNL     1       3.740   2.005  17.085  0.00  0.00    +0.000 HD
ENDBRANCH   7  16
BRANCH   6  18
ATOM     18  C   UNL     1       2.484   2.078  19.209  0.00  0.00    +0.000 C 
BRANCH  18  19
ATOM     19  O   UNL     1       1.336   1.634  18.483  0.00  0.00    +0.000 OA
ATOM     20  H   UNL     1       0.599   1.633  19.124  0.00  0.00    +0.000 HD
ENDBRANCH  18  19
ENDBRANCH   6  18
TORSDOF 7
ENDMDL
MODEL 9
REMARK VINA RESULT:      -6.6      2.958      5.738
REMARK  Name = 
REMARK  11 active torsions:
REMARK  status: ('A' for Active; 'I' for Inactive)
REMARK    1  A    between atoms: C_1  and  C_2
REMARK    2  A    between atoms: C_2  and  C_3
REMARK    3  A    between atoms: C_4  and  C_5
REMARK    4  A    between atoms: C_5  and  C_6
REMARK    5  A    between atoms: C_6  and  C_7
REMARK    6  A    between atoms: C_7  and  C_8
REMARK    7  A    between atoms: C_7  and  C_9
REMARK    8  A    between atoms: C_12  and  C_13
REMARK    9  A    between atoms: C_14  and  C_15
REMARK   10  A    between atoms: C_15  and  O_16
REMARK   11  A    between atoms: C_17  and  O_18
REMARK                            x       y       z     vdW  Elec       q    Type
REMARK                         _______ _______ _______ _____ _____    ______ ____
ROOT
ATOM      1  C   UNL     1       5.123   5.545  17.654  0.00  0.00    +0.000 A 
ATOM      2  C   UNL     1       3.905   6.217  17.509  0.00  0.00    +0.000 A 
ATOM      3  C   UNL     1       2.759   5.773  18.166  0.00  0.00    +0.000 A 
ATOM      4  C   UNL     1       2.786   4.625  18.970  0.00  0.00    +0.000 A 
ATOM      5  C   UNL     1       1.498   4.191  19.617  0.00  0.00    +0.000 C 
ATOM      6  C   UNL     1       4.002   3.925  19.145  0.00  0.00    +0.000 A 
ATOM      7  C   UNL     1       5.156   4.417  18.494  0.00  0.00    +0.000 A 
ENDROOT
BRANCH   1   8
ATOM      8  C   UNL     1       6.350   5.934  16.829  0.00  0.00    +0.000 C 
ATOM      9  C   UNL     1       7.302   6.708  17.755  0.00  0.00    +0.000 C 
BRANCH   8  10
ATOM     10  C   UNL     1       7.033   4.740  16.115  0.00  0.00    +0.000 C 
BRANCH  10  11
ATOM     11  C   UNL     1       7.062   4.896  14.590  0.00  0.00    +0.000 C 
BRANCH  11  15
ATOM     12  C   UNL     1       4.758   3.094  12.010  0.00  0.00    +0.000 C 
ATOM     13  C   UNL     1       5.975   3.730  12.624  0.00  0.00    +0.000 C 
ATOM     14  C   UNL     1       7.191   3.865  11.746  0.00  0.00    +0.000 C 
ATOM     15  C   UNL     1       5.948   4.153  13.904  0.00  0.00    +0.000 C 
ENDBRANCH  11  15
ENDBRANCH  10  11
ENDBRANCH   8  10
ENDBRANCH   1   8
BRANCH   7  16
ATOM     16  O   UNL     1       6.369   3.788  18.641  0.00  0.00    +0.000 OA
ATOM     17  H   UNL     1       6.748   4.054  19.505  0.00  0.00    +0.000 HD
ENDBRANCH   7  16
BRANCH   6  18
ATOM     18  C   UNL     1       4.069   2.724  20.061  0.00  0.00    +0.000 C 
BRANCH  18  19
ATOM     19  O   UNL     1       4.521   1.565  19.358  0.00  0.00    +0.000 OA
ATOM     20  H   UNL     1       4.256   0.801  19.906  0.00  0.00    +0.000 HD
ENDBRANCH  18  19
ENDBRANCH   6  18
TORSDOF 7
ENDMDL
