MODEL 1
REMARK VINA RESULT:      -7.4      0.000      0.000
REMARK  Name = 
REMARK  12 active torsions:
REMARK  status: ('A' for Active; 'I' for Inactive)
REMARK    1  A    between atoms: C_1  and  N_2
REMARK    2  A    between atoms: N_2  and  C_3
REMARK    3  A    between atoms: N_2  and  C_4
REMARK    4  A    between atoms: C_4  and  C_5
REMARK    5  A    between atoms: C_5  and  C_6
REMARK    6  A    between atoms: N_8  and  C_9
REMARK    7  A    between atoms: C_21  and  N_22
REMARK    8  A    between atoms: C_23  and  C_25
REMARK    9  A    between atoms: C_25  and  C_26
REMARK   10  A    between atoms: C_26  and  N_27
REMARK   11  A    between atoms: N_27  and  C_28
REMARK   12  A    between atoms: N_27  and  C_29
REMARK                            x       y       z     vdW  Elec       q    Type
REMARK                         _______ _______ _______ _____ _____    ______ ____
ROOT
ATOM      1  C   UNL     1       0.568  11.053  20.424  0.00  0.00    +0.000 A 
ATOM      2  C   UNL     1       0.727  12.214  19.656  0.00  0.00    +0.000 A 
ATOM      3  C   UNL     1       1.466  12.177  18.479  0.00  0.00    +0.000 A 
ATOM      4  C   UNL     1       2.015  10.970  18.046  0.00  0.00    +0.000 A 
ATOM      5  C   UNL     1       1.787   9.794  18.776  0.00  0.00    +0.000 A 
ATOM      6  C   UNL     1       1.044   9.820  19.950  0.00  0.00    +0.000 A 
ATOM      7  C   UNL     1       0.671   8.523  20.570  0.00  0.00    +0.000 C 
ATOM      8  O   UNL     1      -0.334   8.394  21.258  0.00  0.00    +0.000 OA
ATOM      9  C   UNL     1       1.508   7.340  20.279  0.00  0.00    +0.000 A 
ATOM     10  C   UNL     1       1.395   6.205  21.086  0.00  0.00    +0.000 A 
ATOM     11  C   UNL     1       2.191   5.096  20.826  0.00  0.00    +0.000 A 
ATOM     12  C   UNL     1       3.104   5.120  19.770  0.00  0.00    +0.000 A 
ATOM     13  C   UNL     1       3.213   6.239  18.936  0.00  0.00    +0.000 A 
ATOM     14  C   UNL     1       2.383   7.351  19.192  0.00  0.00    +0.000 A 
ATOM     15  C   UNL     1       2.319   8.517  18.281  0.00  0.00    +0.000 C 
ATOM     16  O   UNL     1       2.673   8.422  17.114  0.00  0.00    +0.000 OA
ENDROOT
BRANCH   1  19
ATOM     17  C   UNL     1      -1.300  11.709  21.839  0.00  0.00    +0.000 C 
ATOM     18  O   UNL     1      -2.043  12.032  20.913  0.00  0.00    +0.000 OA
ATOM     19  N   UNL     1      -0.016  11.214  21.686  0.00  0.00    +0.000 N 
ATOM     20  H   UNL     1       0.271  10.578  22.434  0.00  0.00    +0.000 HD
BRANCH  17  21
ATOM     21  C   UNL     1      -1.735  11.817  23.285  0.00  0.00    +0.000 C 
BRANCH  21  22
ATOM     22  C   UNL     1      -2.855  12.840  23.514  0.00  0.00    +0.000 C 
BRANCH  22  24
ATOM     23  C   UNL     1      -4.849  12.310  24.833  0.00  0.00    +0.000 C 
ATOM     24  N   UNL     1      -4.227  12.274  23.502  0.00  0.00    +0.000 NA
ATOM     25  C   UNL     1      -5.064  13.009  22.548  0.00  0.00    +0.000 C 
ENDBRANCH  22  24
ENDBRANCH  21  22
ENDBRANCH  17  21
ENDBRANCH   1  19
BRANCH  13  26
ATOM     26  N   UNL     1       4.162   6.295  17.892  0.00  0.00    +0.000 N 
ATOM     27  C   UNL     1       4.468   5.330  16.955  0.00  0.00    +0.000 C 
ATOM     28  O   UNL     1       3.915   4.236  16.856  0.00  0.00    +0.000 OA
ATOM     29  H   UNL     1       4.618   7.207  17.754  0.00  0.00    +0.000 HD
BRANCH  27  30
ATOM     30  C   UNL     1       5.634   5.662  16.035  0.00  0.00    +0.000 C 
BRANCH  30  31
ATOM     31  C   UNL     1       7.023   5.701  16.678  0.00  0.00    +0.000 C 
BRANCH  31  32
ATOM     32  N   UNL     1       7.097   6.534  17.893  0.00  0.00    +0.000 NA
ATOM     33  C   UNL     1       7.806   5.891  18.998  0.00  0.00    +0.000 C 
ATOM     34  C   UNL     1       7.706   7.832  17.586  0.00  0.00    +0.000 C 
ENDBRANCH  31  32
ENDBRANCH  30  31
ENDBRANCH  27  30
ENDBRANCH  13  26
TORSDOF 8
ENDMDL
MODEL 2
REMARK VINA RESULT:      -7.1      2.139      3.121
REMARK  Name = 
REMARK  12 active torsions:
REMARK  status: ('A' for Active; 'I' for Inactive)
REMARK    1  A    between atoms: C_1  and  N_2
REMARK    2  A    between atoms: N_2  and  C_3
REMARK    3  A    between atoms: N_2  and  C_4
REMARK    4  A    between atoms: C_4  and  C_5
REMARK    5  A    between atoms: C_5  and  C_6
REMARK    6  A    between atoms: N_8  and  C_9
REMARK    7  A    between atoms: C_21  and  N_22
REMARK    8  A    between atoms: C_23  and  C_25
REMARK    9  A    between atoms: C_25  and  C_26
REMARK   10  A    between atoms: C_26  and  N_27
REMARK   11  A    between atoms: N_27  and  C_28
REMARK   12  A    between atoms: N_27  and  C_29
REMARK                            x       y       z     vdW  Elec       q    Type
REMARK                         _______ _______ _______ _____ _____    ______ ____
ROOT
ATOM      1  C   UNL     1       1.071   8.755  19.918  0.00  0.00    +0.000 A 
ATOM      2  C   UNL     1       1.282   9.831  19.046  0.00  0.00    +0.000 A 
ATOM      3  C   UNL     1       2.191   9.716  18.001  0.00  0.00    +0.000 A 
ATOM      4  C   UNL     1       2.864   8.510  17.802  0.00  0.00    +0.000 A 
ATOM      5  C   UNL     1       2.592   7.410  18.629  0.00  0.00    +0.000 A 
ATOM      6  C   UNL     1       1.679   7.514  19.672  0.00  0.00    +0.000 A 
ATOM      7  C   UNL     1       1.286   6.271  20.384  0.00  0.00    +0.000 C 
ATOM      8  O   UNL     1       0.196   6.149  20.930  0.00  0.00    +0.000 OA
ATOM      9  C   UNL     1       2.220   5.126  20.363  0.00  0.00    +0.000 A 
ATOM     10  C   UNL     1       2.047   4.084  21.278  0.00  0.00    +0.000 A 
ATOM     11  C   UNL     1       2.931   3.012  21.272  0.00  0.00    +0.000 A 
ATOM     12  C   UNL     1       3.992   2.982  20.364  0.00  0.00    +0.000 A 
ATOM     13  C   UNL     1       4.166   4.006  19.425  0.00  0.00    +0.000 A 
ATOM     14  C   UNL     1       3.248   5.077  19.420  0.00  0.00    +0.000 A 
ATOM     15  C   UNL     1       3.261   6.126  18.375  0.00  0.00    +0.000 C 
ATOM     16  O   UNL     1       3.792   5.926  17.292  0.00  0.00    +0.000 OA
ENDROOT
BRANCH   1  19
ATOM     17  C   UNL     1       0.868   9.341  22.271  0.00  0.00    +0.000 C 
ATOM     18  O   UNL     1       2.077   9.450  22.472  0.00  0.00    +0.000 OA
ATOM     19  N   UNL     1       0.294   9.015  21.054  0.00  0.00    +0.000 N 
ATOM     20  H   UNL     1      -0.638   9.412  20.920  0.00  0.00    +0.000 HD
BRANCH  17  21
ATOM     21  C   UNL     1      -0.146   9.569  23.373  0.00  0.00    +0.000 C 
BRANCH  21  22
ATOM     22  C   UNL     1      -1.179  10.653  23.041  0.00  0.00    +0.000 C 
BRANCH  22  24
ATOM     23  C   UNL     1      -0.659  12.217  21.229  0.00  0.00    +0.000 C 
ATOM     24  N   UNL     1      -0.602  11.972  22.677  0.00  0.00    +0.000 NA
ATOM     25  C   UNL     1      -1.312  13.041  23.386  0.00  0.00    +0.000 C 
ENDBRANCH  22  24
ENDBRANCH  21  22
ENDBRANCH  17  21
ENDBRANCH   1  19
BRANCH  13  26
ATOM     26  N   UNL     1       5.258   4.012  18.529  0.00  0.00    +0.000 N 
ATOM     27  C   UNL     1       6.511   4.560  18.706  0.00  0.00    +0.000 C 
ATOM     28  O   UNL     1       6.903   5.122  19.726  0.00  0.00    +0.000 OA
ATOM     29  H   UNL     1       5.133   3.457  17.672  0.00  0.00    +0.000 HD
BRANCH  27  30
ATOM     30  C   UNL     1       7.425   4.500  17.490  0.00  0.00    +0.000 C 
BRANCH  30  31
ATOM     31  C   UNL     1       7.099   5.458  16.341  0.00  0.00    +0.000 C 
BRANCH  31  32
ATOM     32  N   UNL     1       6.043   4.970  15.435  0.00  0.00    +0.000 NA
ATOM     33  C   UNL     1       5.336   6.040  14.733  0.00  0.00    +0.000 C 
ATOM     34  C   UNL     1       6.598   4.012  14.473  0.00  0.00    +0.000 C 
ENDBRANCH  31  32
ENDBRANCH  30  31
ENDBRANCH  27  30
ENDBRANCH  13  26
TORSDOF 8
ENDMDL
MODEL 3
REMARK VINA RESULT:      -6.9      2.094      9.358
REMARK  Name = 
REMARK  12 active torsions:
REMARK  status: ('A' for Active; 'I' for Inactive)
REMARK    1  A    between atoms: C_1  and  N_2
REMARK    2  A    between atoms: N_2  and  C_3
REMARK    3  A    between atoms: N_2  and  C_4
REMARK    4  A    between atoms: C_4  and  C_5
REMARK    5  A    between atoms: C_5  and  C_6
REMARK    6  A    between atoms: N_8  and  C_9
REMARK    7  A    between atoms: C_21  and  N_22
REMARK    8  A    between atoms: C_23  and  C_25
REMARK    9  A    between atoms: C_25  and  C_26
REMARK   10  A    between atoms: C_26  and  N_27
REMARK   11  A    between atoms: N_27  and  C_28
REMARK   12  A    between atoms: N_27  and  C_29
REMARK                            x       y       z     vdW  Elec       q    Type
REMARK                         _______ _______ _______ _____ _____    ______ ____
ROOT
ATOM      1  C   UNL     1       4.070   4.399  19.180  0.00  0.00    +0.000 A 
ATOM      2  C   UNL     1       3.885   3.344  20.083  0.00  0.00    +0.000 A 
ATOM      3  C   UNL     1       2.917   3.437  21.076  0.00  0.00    +0.000 A 
ATOM      4  C   UNL     1       2.104   4.568  21.145  0.00  0.00    +0.000 A 
ATOM      5  C   UNL     1       2.240   5.588  20.190  0.00  0.00    +0.000 A 
ATOM      6  C   UNL     1       3.200   5.501  19.190  0.00  0.00    +0.000 A 
ATOM      7  C   UNL     1       3.166   6.507  18.098  0.00  0.00    +0.000 C 
ATOM      8  O   UNL     1       3.588   6.265  16.974  0.00  0.00    +0.000 OA
ATOM      9  C   UNL     1       2.532   7.814  18.369  0.00  0.00    +0.000 A 
ATOM     10  C   UNL     1       2.770   8.885  17.502  0.00  0.00    +0.000 A 
ATOM     11  C   UNL     1       2.189  10.120  17.761  0.00  0.00    +0.000 A 
ATOM     12  C   UNL     1       1.379  10.292  18.886  0.00  0.00    +0.000 A 
ATOM     13  C   UNL     1       1.110   9.225  19.751  0.00  0.00    +0.000 A 
ATOM     14  C   UNL     1       1.683   7.968  19.466  0.00  0.00    +0.000 A 
ATOM     15  C   UNL     1       1.340   6.749  20.235  0.00  0.00    +0.000 C 
ATOM     16  O   UNL     1       0.302   6.684  20.878  0.00  0.00    +0.000 OA
ENDROOT
BRANCH   1  19
ATOM     17  C   UNL     1       6.411   4.860  18.699  0.00  0.00    +0.000 C 
ATOM     18  O   UNL     1       6.639   5.440  19.760  0.00  0.00    +0.000 OA
ATOM     19  N   UNL     1       5.189   4.315  18.342  0.00  0.00    +0.000 N 
ATOM     20  H   UNL     1       5.265   3.507  17.720  0.00  0.00    +0.000 HD
BRANCH  17  21
ATOM     21  C   UNL     1       7.484   4.672  17.647  0.00  0.00    +0.000 C 
BRANCH  21  22
ATOM     22  C   UNL     1       6.970   4.019  16.357  0.00  0.00    +0.000 C 
BRANCH  22  24
ATOM     23  C   UNL     1       7.481   5.198  14.273  0.00  0.00    +0.000 C 
ATOM     24  N   UNL     1       6.483   4.971  15.328  0.00  0.00    +0.000 NA
ATOM     25  C   UNL     1       5.240   4.471  14.731  0.00  0.00    +0.000 C 
ENDBRANCH  22  24
ENDBRANCH  21  22
ENDBRANCH  17  21
ENDBRANCH   1  19
BRANCH  13  26
ATOM     26  N   UNL     1       0.329   9.394  20.916  0.00  0.00    +0.000 N 
ATOM     27  C   UNL     1       0.752   9.606  22.211  0.00  0.00    +0.000 C 
ATOM     28  O   UNL     1       1.924   9.720  22.566  0.00  0.00    +0.000 OA
ATOM     29  H   UNL     1      -0.686   9.459  20.764  0.00  0.00    +0.000 HD
BRANCH  27  30
ATOM     30  C   UNL     1      -0.350   9.625  23.261  0.00  0.00    +0.000 C 
BRANCH  30  31
ATOM     31  C   UNL     1      -1.244  10.868  23.291  0.00  0.00    +0.000 C 
BRANCH  31  32
ATOM     32  N   UNL     1      -1.179  11.683  22.064  0.00  0.00    +0.000 NA
ATOM     33  C   UNL     1      -2.490  11.973  21.486  0.00  0.00    +0.000 C 
ATOM     34  C   UNL     1      -0.449  12.929  22.317  0.00  0.00    +0.000 C 
ENDBRANCH  31  32
ENDBRANCH  30  31
ENDBRANCH  27  30
ENDBRANCH  13  26
TORSDOF 8
ENDMDL
MODEL 4
REMARK VINA RESULT:      -6.7      0.868      9.616
REMARK  Name = 
REMARK  12 active torsions:
REMARK  status: ('A' for Active; 'I' for Inactive)
REMARK    1  A    between atoms: C_1  and  N_2
REMARK    2  A    between atoms: N_2  and  C_3
REMARK    3  A    between atoms: N_2  and  C_4
REMARK    4  A    between atoms: C_4  and  C_5
REMARK    5  A    between atoms: C_5  and  C_6
REMARK    6  A    between atoms: N_8  and  C_9
REMARK    7  A    between atoms: C_21  and  N_22
REMARK    8  A    between atoms: C_23  and  C_25
REMARK    9  A    between atoms: C_25  and  C_26
REMARK   10  A    between atoms: C_26  and  N_27
REMARK   11  A    between atoms: N_27  and  C_28
REMARK   12  A    between atoms: N_27  and  C_29
REMARK                            x       y       z     vdW  Elec       q    Type
REMARK                         _______ _______ _______ _____ _____    ______ ____
ROOT
ATOM      1  C   UNL     1       2.966   6.584  18.989  0.00  0.00    +0.000 A 
ATOM      2  C   UNL     1       2.699   5.465  19.789  0.00  0.00    +0.000 A 
ATOM      3  C   UNL     1       1.807   5.562  20.850  0.00  0.00    +0.000 A 
ATOM      4  C   UNL     1       1.149   6.768  21.091  0.00  0.00    +0.000 A 
ATOM      5  C   UNL     1       1.359   7.864  20.241  0.00  0.00    +0.000 A 
ATOM      6  C   UNL     1       2.244   7.774  19.173  0.00  0.00    +0.000 A 
ATOM      7  C   UNL     1       2.276   8.893  18.196  0.00  0.00    +0.000 C 
ATOM      8  O   UNL     1       2.602   8.728  17.027  0.00  0.00    +0.000 OA
ATOM      9  C   UNL     1       1.829  10.228  18.644  0.00  0.00    +0.000 A 
ATOM     10  C   UNL     1       2.152  11.352  17.878  0.00  0.00    +0.000 A 
ATOM     11  C   UNL     1       1.747  12.611  18.303  0.00  0.00    +0.000 A 
ATOM     12  C   UNL     1       1.029  12.753  19.492  0.00  0.00    +0.000 A 
ATOM     13  C   UNL     1       0.676  11.636  20.259  0.00  0.00    +0.000 A 
ATOM     14  C   UNL     1       1.069  10.359  19.807  0.00  0.00    +0.000 A 
ATOM     15  C   UNL     1       0.617   9.112  20.467  0.00  0.00    +0.000 C 
ATOM     16  O   UNL     1      -0.383   9.101  21.170  0.00  0.00    +0.000 OA
ENDROOT
BRANCH   1  19
ATOM     17  C   UNL     1       4.129   5.364  17.234  0.00  0.00    +0.000 C 
ATOM     18  O   UNL     1       3.336   4.423  17.197  0.00  0.00    +0.000 OA
ATOM     19  N   UNL     1       4.016   6.460  18.072  0.00  0.00    +0.000 N 
ATOM     20  H   UNL     1       4.422   7.316  17.686  0.00  0.00    +0.000 HD
BRANCH  17  21
ATOM     21  C   UNL     1       5.343   5.419  16.331  0.00  0.00    +0.000 C 
BRANCH  21  22
ATOM     22  C   UNL     1       6.671   5.238  17.078  0.00  0.00    +0.000 C 
BRANCH  22  24
ATOM     23  C   UNL     1       7.821   5.752  19.177  0.00  0.00    +0.000 C 
ATOM     24  N   UNL     1       6.949   6.266  18.111  0.00  0.00    +0.000 NA
ATOM     25  C   UNL     1       7.568   7.443  17.493  0.00  0.00    +0.000 C 
ENDBRANCH  22  24
ENDBRANCH  21  22
ENDBRANCH  17  21
ENDBRANCH   1  19
BRANCH  13  26
ATOM     26  N   UNL     1      -0.012  11.767  21.485  0.00  0.00    +0.000 N 
ATOM     27  C   UNL     1      -1.332  12.103  21.699  0.00  0.00    +0.000 C 
ATOM     28  O   UNL     1      -2.163  12.317  20.818  0.00  0.00    +0.000 OA
ATOM     29  H   UNL     1       0.515  11.486  22.322  0.00  0.00    +0.000 HD
BRANCH  27  30
ATOM     30  C   UNL     1      -1.732  12.278  23.158  0.00  0.00    +0.000 C 
BRANCH  30  31
ATOM     31  C   UNL     1      -1.925  13.717  23.646  0.00  0.00    +0.000 C 
BRANCH  31  32
ATOM     32  N   UNL     1      -3.144  13.918  24.450  0.00  0.00    +0.000 NA
ATOM     33  C   UNL     1      -3.298  15.285  24.944  0.00  0.00    +0.000 C 
ATOM     34  C   UNL     1      -4.330  13.517  23.687  0.00  0.00    +0.000 C 
ENDBRANCH  31  32
ENDBRANCH  30  31
ENDBRANCH  27  30
ENDBRANCH  13  26
TORSDOF 8
ENDMDL
MODEL 5
REMARK VINA RESULT:      -6.7      1.988      2.933
REMARK  Name = 
REMARK  12 active torsions:
REMARK  status: ('A' for Active; 'I' for Inactive)
REMARK    1  A    between atoms: C_1  and  N_2
REMARK    2  A    between atoms: N_2  and  C_3
REMARK    3  A    between atoms: N_2  and  C_4
REMARK    4  A    between atoms: C_4  and  C_5
REMARK    5  A    between atoms: C_5  and  C_6
REMARK    6  A    between atoms: N_8  and  C_9
REMARK    7  A    between atoms: C_21  and  N_22
REMARK    8  A    between atoms: C_23  and  C_25
REMARK    9  A    between atoms: C_25  and  C_26
REMARK   10  A    between atoms: C_26  and  N_27
REMARK   11  A    between atoms: N_27  and  C_28
REMARK   12  A    between atoms: N_27  and  C_29
REMARK                            x       y       z     vdW  Elec       q    Type
REMARK                         _______ _______ _______ _____ _____    ______ ____
ROOT
ATOM      1  C   UNL     1       1.002   8.730  19.812  0.00  0.00    +0.000 A 
ATOM      2  C   UNL     1       1.203   9.805  18.937  0.00  0.00    +0.000 A 
ATOM      3  C   UNL     1       2.122   9.700  17.900  0.00  0.00    +0.000 A 
ATOM      4  C   UNL     1       2.814   8.504  17.710  0.00  0.00    +0.000 A 
ATOM      5  C   UNL     1       2.553   7.403  18.540  0.00  0.00    +0.000 A 
ATOM      6  C   UNL     1       1.630   7.497  19.575  0.00  0.00    +0.000 A 
ATOM      7  C   UNL     1       1.252   6.251  20.289  0.00  0.00    +0.000 C 
ATOM      8  O   UNL     1       0.160   6.114  20.828  0.00  0.00    +0.000 OA
ATOM      9  C   UNL     1       2.203   5.120  20.279  0.00  0.00    +0.000 A 
ATOM     10  C   UNL     1       2.040   4.079  21.196  0.00  0.00    +0.000 A 
ATOM     11  C   UNL     1       2.940   3.020  21.201  0.00  0.00    +0.000 A 
ATOM     12  C   UNL     1       4.008   3.004  20.301  0.00  0.00    +0.000 A 
ATOM     13  C   UNL     1       4.173   4.027  19.359  0.00  0.00    +0.000 A 
ATOM     14  C   UNL     1       3.239   5.083  19.344  0.00  0.00    +0.000 A 
ATOM     15  C   UNL     1       3.243   6.129  18.295  0.00  0.00    +0.000 C 
ATOM     16  O   UNL     1       3.786   5.933  17.217  0.00  0.00    +0.000 OA
ENDROOT
BRANCH   1  19
ATOM     17  C   UNL     1       0.765   9.417  22.135  0.00  0.00    +0.000 C 
ATOM     18  O   UNL     1       1.962   9.637  22.317  0.00  0.00    +0.000 OA
ATOM     19  N   UNL     1       0.213   8.981  20.941  0.00  0.00    +0.000 N 
ATOM     20  H   UNL     1      -0.750   9.291  20.797  0.00  0.00    +0.000 HD
BRANCH  17  21
ATOM     21  C   UNL     1      -0.258   9.615  23.233  0.00  0.00    +0.000 C 
BRANCH  21  22
ATOM     22  C   UNL     1      -0.758  11.060  23.353  0.00  0.00    +0.000 C 
BRANCH  22  24
ATOM     23  C   UNL     1      -2.961  12.128  23.320  0.00  0.00    +0.000 C 
ATOM     24  N   UNL     1      -1.965  11.371  22.548  0.00  0.00    +0.000 NA
ATOM     25  C   UNL     1      -1.587  12.131  21.352  0.00  0.00    +0.000 C 
ENDBRANCH  22  24
ENDBRANCH  21  22
ENDBRANCH  17  21
ENDBRANCH   1  19
BRANCH  13  26
ATOM     26  N   UNL     1       5.271   4.046  18.472  0.00  0.00    +0.000 N 
ATOM     27  C   UNL     1       6.498   4.656  18.635  0.00  0.00    +0.000 C 
ATOM     28  O   UNL     1       6.856   5.275  19.635  0.00  0.00    +0.000 OA
ATOM     29  H   UNL     1       5.178   3.453  17.637  0.00  0.00    +0.000 HD
BRANCH  27  30
ATOM     30  C   UNL     1       7.424   4.588  17.429  0.00  0.00    +0.000 C 
BRANCH  30  31
ATOM     31  C   UNL     1       6.873   3.890  16.182  0.00  0.00    +0.000 C 
BRANCH  31  32
ATOM     32  N   UNL     1       6.878   4.732  14.972  0.00  0.00    +0.000 NA
ATOM     33  C   UNL     1       6.465   4.020  13.764  0.00  0.00    +0.000 C 
ATOM     34  C   UNL     1       6.041   5.919  15.173  0.00  0.00    +0.000 C 
ENDBRANCH  31  32
ENDBRANCH  30  31
ENDBRANCH  27  30
ENDBRANCH  13  26
TORSDOF 8
ENDMDL
MODEL 6
REMARK VINA RESULT:      -6.7      1.082      9.591
REMARK  Name = 
REMARK  12 active torsions:
REMARK  status: ('A' for Active; 'I' for Inactive)
REMARK    1  A    between atoms: C_1  and  N_2
REMARK    2  A    between atoms: N_2  and  C_3
REMARK    3  A    between atoms: N_2  and  C_4
REMARK    4  A    between atoms: C_4  and  C_5
REMARK    5  A    between atoms: C_5  and  C_6
REMARK    6  A    between atoms: N_8  and  C_9
REMARK    7  A    between atoms: C_21  and  N_22
REMARK    8  A    between atoms: C_23  and  C_25
REMARK    9  A    between atoms: C_25  and  C_26
REMARK   10  A    between atoms: C_26  and  N_27
REMARK   11  A    between atoms: N_27  and  C_28
REMARK   12  A    between atoms: N_27  and  C_29
REMARK                            x       y       z     vdW  Elec       q    Type
REMARK                         _______ _______ _______ _____ _____    ______ ____
ROOT
ATOM      1  C   UNL     1       3.472   4.857  19.266  0.00  0.00    +0.000 A 
ATOM      2  C   UNL     1       3.246   3.808  20.167  0.00  0.00    +0.000 A 
ATOM      3  C   UNL     1       2.357   3.973  21.222  0.00  0.00    +0.000 A 
ATOM      4  C   UNL     1       1.660   5.174  21.358  0.00  0.00    +0.000 A 
ATOM      5  C   UNL     1       1.830   6.194  20.409  0.00  0.00    +0.000 A 
ATOM      6  C   UNL     1       2.712   6.035  19.346  0.00  0.00    +0.000 A 
ATOM      7  C   UNL     1       2.702   7.060  18.271  0.00  0.00    +0.000 C 
ATOM      8  O   UNL     1       3.027   6.800  17.119  0.00  0.00    +0.000 OA
ATOM      9  C   UNL     1       2.213   8.415  18.599  0.00  0.00    +0.000 A 
ATOM     10  C   UNL     1       2.495   9.474  17.732  0.00  0.00    +0.000 A 
ATOM     11  C   UNL     1       2.051  10.754  18.043  0.00  0.00    +0.000 A 
ATOM     12  C   UNL     1       1.335  10.981  19.220  0.00  0.00    +0.000 A 
ATOM     13  C   UNL     1       1.022   9.927  20.088  0.00  0.00    +0.000 A 
ATOM     14  C   UNL     1       1.455   8.628  19.751  0.00  0.00    +0.000 A 
ATOM     15  C   UNL     1       1.048   7.432  20.526  0.00  0.00    +0.000 C 
ATOM     16  O   UNL     1       0.053   7.453  21.235  0.00  0.00    +0.000 OA
ENDROOT
BRANCH   1  19
ATOM     17  C   UNL     1       4.362   3.956  17.188  0.00  0.00    +0.000 C 
ATOM     18  O   UNL     1       3.315   3.416  16.833  0.00  0.00    +0.000 OA
ATOM     19  N   UNL     1       4.521   4.684  18.355  0.00  0.00    +0.000 N 
ATOM     20  H   UNL     1       5.225   5.422  18.286  0.00  0.00    +0.000 HD
BRANCH  17  21
ATOM     21  C   UNL     1       5.622   3.879  16.352  0.00  0.00    +0.000 C 
BRANCH  21  22
ATOM     22  C   UNL     1       6.177   5.251  15.950  0.00  0.00    +0.000 C 
BRANCH  22  24
ATOM     23  C   UNL     1       7.096   6.946  17.461  0.00  0.00    +0.000 C 
ATOM     24  N   UNL     1       7.358   5.698  16.730  0.00  0.00    +0.000 NA
ATOM     25  C   UNL     1       7.762   4.650  17.673  0.00  0.00    +0.000 C 
ENDBRANCH  22  24
ENDBRANCH  21  22
ENDBRANCH  17  21
ENDBRANCH   1  19
BRANCH  13  26
ATOM     26  N   UNL     1       0.337  10.147  21.303  0.00  0.00    +0.000 N 
ATOM     27  C   UNL     1      -0.761  10.948  21.538  0.00  0.00    +0.000 C 
ATOM     28  O   UNL     1      -1.363  11.596  20.685  0.00  0.00    +0.000 OA
ATOM     29  H   UNL     1       0.639   9.565  22.096  0.00  0.00    +0.000 HD
BRANCH  27  30
ATOM     30  C   UNL     1      -1.185  11.060  22.996  0.00  0.00    +0.000 C 
BRANCH  30  31
ATOM     31  C   UNL     1      -2.021  12.287  23.372  0.00  0.00    +0.000 C 
BRANCH  31  32
ATOM     32  N   UNL     1      -3.475  12.045  23.368  0.00  0.00    +0.000 NA
ATOM     33  C   UNL     1      -4.140  12.463  24.601  0.00  0.00    +0.000 C 
ATOM     34  C   UNL     1      -4.097  12.695  22.210  0.00  0.00    +0.000 C 
ENDBRANCH  31  32
ENDBRANCH  30  31
ENDBRANCH  27  30
ENDBRANCH  13  26
TORSDOF 8
ENDMDL
MODEL 7
REMARK VINA RESULT:      -6.7      2.060      3.106
REMARK  Name = 
REMARK  12 active torsions:
REMARK  status: ('A' for Active; 'I' for Inactive)
REMARK    1  A    between atoms: C_1  and  N_2
REMARK    2  A    between atoms: N_2  and  C_3
REMARK    3  A    between atoms: N_2  and  C_4
REMARK    4  A    between atoms: C_4  and  C_5
REMARK    5  A    between atoms: C_5  and  C_6
REMARK    6  A    between atoms: N_8  and  C_9
REMARK    7  A    between atoms: C_21  and  N_22
REMARK    8  A    between atoms: C_23  and  C_25
REMARK    9  A    between atoms: C_25  and  C_26
REMARK   10  A    between atoms: C_26  and  N_27
REMARK   11  A    between atoms: N_27  and  C_28
REMARK   12  A    between atoms: N_27  and  C_29
REMARK                            x       y       z     vdW  Elec       q    Type
REMARK                         _______ _______ _______ _____ _____    ______ ____
ROOT
ATOM      1  C   UNL     1       1.531   8.752  19.890  0.00  0.00    +0.000 A 
ATOM      2  C   UNL     1       1.683   9.803  18.977  0.00  0.00    +0.000 A 
ATOM      3  C   UNL     1       2.445   9.626  17.829  0.00  0.00    +0.000 A 
ATOM      4  C   UNL     1       3.026   8.384  17.570  0.00  0.00    +0.000 A 
ATOM      5  C   UNL     1       2.806   7.311  18.447  0.00  0.00    +0.000 A 
ATOM      6  C   UNL     1       2.039   7.477  19.594  0.00  0.00    +0.000 A 
ATOM      7  C   UNL     1       1.679   6.267  20.375  0.00  0.00    +0.000 C 
ATOM      8  O   UNL     1       0.663   6.209  21.057  0.00  0.00    +0.000 OA
ATOM      9  C   UNL     1       2.543   5.074  20.259  0.00  0.00    +0.000 A 
ATOM     10  C   UNL     1       2.436   4.054  21.209  0.00  0.00    +0.000 A 
ATOM     11  C   UNL     1       3.258   2.938  21.113  0.00  0.00    +0.000 A 
ATOM     12  C   UNL     1       4.192   2.840  20.079  0.00  0.00    +0.000 A 
ATOM     13  C   UNL     1       4.296   3.841  19.105  0.00  0.00    +0.000 A 
ATOM     14  C   UNL     1       3.440   4.958  19.195  0.00  0.00    +0.000 A 
ATOM     15  C   UNL     1       3.372   5.991  18.136  0.00  0.00    +0.000 C 
ATOM     16  O   UNL     1       3.751   5.749  16.999  0.00  0.00    +0.000 OA
ENDROOT
BRANCH   1  19
ATOM     17  C   UNL     1      -0.249   9.808  21.171  0.00  0.00    +0.000 C 
ATOM     18  O   UNL     1      -0.860  10.239  20.193  0.00  0.00    +0.000 OA
ATOM     19  N   UNL     1       0.919   9.067  21.110  0.00  0.00    +0.000 N 
ATOM     20  H   UNL     1       1.032   8.414  21.888  0.00  0.00    +0.000 HD
BRANCH  17  21
ATOM     21  C   UNL     1      -0.736  10.049  22.584  0.00  0.00    +0.000 C 
BRANCH  21  22
ATOM     22  C   UNL     1      -1.536  11.348  22.744  0.00  0.00    +0.000 C 
BRANCH  22  24
ATOM     23  C   UNL     1      -0.122  13.127  21.832  0.00  0.00    +0.000 C 
ATOM     24  N   UNL     1      -0.720  12.550  23.045  0.00  0.00    +0.000 NA
ATOM     25  C   UNL     1      -1.545  13.561  23.715  0.00  0.00    +0.000 C 
ENDBRANCH  22  24
ENDBRANCH  21  22
ENDBRANCH  17  21
ENDBRANCH   1  19
BRANCH  13  26
ATOM     26  N   UNL     1       5.264   3.778  18.079  0.00  0.00    +0.000 N 
ATOM     27  C   UNL     1       6.501   4.385  18.026  0.00  0.00    +0.000 C 
ATOM     28  O   UNL     1       6.992   5.077  18.916  0.00  0.00    +0.000 OA
ATOM     29  H   UNL     1       5.059   3.122  17.314  0.00  0.00    +0.000 HD
BRANCH  27  30
ATOM     30  C   UNL     1       7.256   4.212  16.715  0.00  0.00    +0.000 C 
BRANCH  30  31
ATOM     31  C   UNL     1       6.793   5.078  15.540  0.00  0.00    +0.000 C 
BRANCH  31  32
ATOM     32  N   UNL     1       6.808   4.383  14.240  0.00  0.00    +0.000 NA
ATOM     33  C   UNL     1       5.475   4.055  13.738  0.00  0.00    +0.000 C 
ATOM     34  C   UNL     1       7.545   5.173  13.248  0.00  0.00    +0.000 C 
ENDBRANCH  31  32
ENDBRANCH  30  31
ENDBRANCH  27  30
ENDBRANCH  13  26
TORSDOF 8
ENDMDL
MODEL 8
REMARK VINA RESULT:      -6.7      1.319      9.427
REMARK  Name = 
REMARK  12 active torsions:
REMARK  status: ('A' for Active; 'I' for Inactive)
REMARK    1  A    between atoms: C_1  and  N_2
REMARK    2  A    between atoms: N_2  and  C_3
REMARK    3  A    between atoms: N_2  and  C_4
REMARK    4  A    between atoms: C_4  and  C_5
REMARK    5  A    between atoms: C_5  and  C_6
REMARK    6  A    between atoms: N_8  and  C_9
REMARK    7  A    between atoms: C_21  and  N_22
REMARK    8  A    between atoms: C_23  and  C_25
REMARK    9  A    between atoms: C_25  and  C_26
REMARK   10  A    between atoms: C_26  and  N_27
REMARK   11  A    between atoms: N_27  and  C_28
REMARK   12  A    between atoms: N_27  and  C_29
REMARK                            x       y       z     vdW  Elec       q    Type
REMARK                         _______ _______ _______ _____ _____    ______ ____
ROOT
ATOM      1  C   UNL     1       2.869   6.469  19.059  0.00  0.00    +0.000 A 
ATOM      2  C   UNL     1       2.564   5.381  19.888  0.00  0.00    +0.000 A 
ATOM      3  C   UNL     1       1.698   5.543  20.962  0.00  0.00    +0.000 A 
ATOM      4  C   UNL     1       1.102   6.784  21.188  0.00  0.00    +0.000 A 
ATOM      5  C   UNL     1       1.349   7.851  20.309  0.00  0.00    +0.000 A 
ATOM      6  C   UNL     1       2.208   7.695  19.228  0.00  0.00    +0.000 A 
ATOM      7  C   UNL     1       2.276   8.790  18.227  0.00  0.00    +0.000 C 
ATOM      8  O   UNL     1       2.571   8.585  17.055  0.00  0.00    +0.000 OA
ATOM      9  C   UNL     1       1.900  10.154  18.652  0.00  0.00    +0.000 A 
ATOM     10  C   UNL     1       2.263  11.245  17.856  0.00  0.00    +0.000 A 
ATOM     11  C   UNL     1       1.925  12.531  18.259  0.00  0.00    +0.000 A 
ATOM     12  C   UNL     1       1.237  12.733  19.458  0.00  0.00    +0.000 A 
ATOM     13  C   UNL     1       0.845  11.650  20.255  0.00  0.00    +0.000 A 
ATOM     14  C   UNL     1       1.169  10.347  19.825  0.00  0.00    +0.000 A 
ATOM     15  C   UNL     1       0.671   9.137  20.520  0.00  0.00    +0.000 C 
ATOM     16  O   UNL     1      -0.316   9.189  21.241  0.00  0.00    +0.000 OA
ENDROOT
BRANCH   1  19
ATOM     17  C   UNL     1       3.904   5.191  17.264  0.00  0.00    +0.000 C 
ATOM     18  O   UNL     1       3.033   4.323  17.217  0.00  0.00    +0.000 OA
ATOM     19  N   UNL     1       3.896   6.275  18.126  0.00  0.00    +0.000 N 
ATOM     20  H   UNL     1       4.369   7.100  17.753  0.00  0.00    +0.000 HD
BRANCH  17  21
ATOM     21  C   UNL     1       5.109   5.161  16.348  0.00  0.00    +0.000 C 
BRANCH  21  22
ATOM     22  C   UNL     1       6.024   6.383  16.497  0.00  0.00    +0.000 C 
BRANCH  22  24
ATOM     23  C   UNL     1       7.561   5.185  17.980  0.00  0.00    +0.000 C 
ATOM     24  N   UNL     1       6.805   6.426  17.759  0.00  0.00    +0.000 NA
ATOM     25  C   UNL     1       7.726   7.567  17.739  0.00  0.00    +0.000 C 
ENDBRANCH  22  24
ENDBRANCH  21  22
ENDBRANCH  17  21
ENDBRANCH   1  19
BRANCH  13  26
ATOM     26  N   UNL     1       0.188  11.840  21.490  0.00  0.00    +0.000 N 
ATOM     27  C   UNL     1      -1.117  12.223  21.720  0.00  0.00    +0.000 C 
ATOM     28  O   UNL     1      -1.959  12.435  20.849  0.00  0.00    +0.000 OA
ATOM     29  H   UNL     1       0.723  11.569  22.325  0.00  0.00    +0.000 HD
BRANCH  27  30
ATOM     30  C   UNL     1      -1.481  12.455  23.179  0.00  0.00    +0.000 C 
BRANCH  30  31
ATOM     31  C   UNL     1      -1.995  13.852  23.542  0.00  0.00    +0.000 C 
BRANCH  31  32
ATOM     32  N   UNL     1      -0.996  14.701  24.218  0.00  0.00    +0.000 NA
ATOM     33  C   UNL     1      -0.393  15.703  23.340  0.00  0.00    +0.000 C 
ATOM     34  C   UNL     1      -1.587  15.346  25.394  0.00  0.00    +0.000 C 
ENDBRANCH  31  32
ENDBRANCH  30  31
ENDBRANCH  27  30
ENDBRANCH  13  26
TORSDOF 8
ENDMDL
MODEL 9
REMARK VINA RESULT:      -6.7      1.436      9.591
REMARK  Name = 
REMARK  12 active torsions:
REMARK  status: ('A' for Active; 'I' for Inactive)
REMARK    1  A    between atoms: C_1  and  N_2
REMARK    2  A    between atoms: N_2  and  C_3
REMARK    3  A    between atoms: N_2  and  C_4
REMARK    4  A    between atoms: C_4  and  C_5
REMARK    5  A    between atoms: C_5  and  C_6
REMARK    6  A    between atoms: N_8  and  C_9
REMARK    7  A    between atoms: C_21  and  N_22
REMARK    8  A    between atoms: C_23  and  C_25
REMARK    9  A    between atoms: C_25  and  C_26
REMARK   10  A    between atoms: C_26  and  N_27
REMARK   11  A    between atoms: N_27  and  C_28
REMARK   12  A    between atoms: N_27  and  C_29
REMARK                            x       y       z     vdW  Elec       q    Type
REMARK                         _______ _______ _______ _____ _____    ______ ____
ROOT
ATOM      1  C   UNL     1       3.597   4.681  19.299  0.00  0.00    +0.000 A 
ATOM      2  C   UNL     1       3.379   3.641  20.212  0.00  0.00    +0.000 A 
ATOM      3  C   UNL     1       2.484   3.808  21.262  0.00  0.00    +0.000 A 
ATOM      4  C   UNL     1       1.774   5.003  21.380  0.00  0.00    +0.000 A 
ATOM      5  C   UNL     1       1.937   6.013  20.419  0.00  0.00    +0.000 A 
ATOM      6  C   UNL     1       2.824   5.851  19.362  0.00  0.00    +0.000 A 
ATOM      7  C   UNL     1       2.808   6.863  18.275  0.00  0.00    +0.000 C 
ATOM      8  O   UNL     1       3.140   6.592  17.127  0.00  0.00    +0.000 OA
ATOM      9  C   UNL     1       2.302   8.217  18.584  0.00  0.00    +0.000 A 
ATOM     10  C   UNL     1       2.577   9.268  17.705  0.00  0.00    +0.000 A 
ATOM     11  C   UNL     1       2.117  10.546  17.999  0.00  0.00    +0.000 A 
ATOM     12  C   UNL     1       1.394  10.780  19.170  0.00  0.00    +0.000 A 
ATOM     13  C   UNL     1       1.089   9.733  20.050  0.00  0.00    +0.000 A 
ATOM     14  C   UNL     1       1.537   8.435  19.731  0.00  0.00    +0.000 A 
ATOM     15  C   UNL     1       1.141   7.245  20.518  0.00  0.00    +0.000 C 
ATOM     16  O   UNL     1       0.142   7.263  21.224  0.00  0.00    +0.000 OA
ENDROOT
BRANCH   1  19
ATOM     17  C   UNL     1       5.959   4.820  18.730  0.00  0.00    +0.000 C 
ATOM     18  O   UNL     1       6.321   5.251  19.825  0.00  0.00    +0.000 OA
ATOM     19  N   UNL     1       4.652   4.509  18.395  0.00  0.00    +0.000 N 
ATOM     20  H   UNL     1       4.573   3.764  17.699  0.00  0.00    +0.000 HD
BRANCH  17  21
ATOM     21  C   UNL     1       6.943   4.574  17.606  0.00  0.00    +0.000 C 
BRANCH  21  22
ATOM     22  C   UNL     1       7.139   5.786  16.686  0.00  0.00    +0.000 C 
BRANCH  22  24
ATOM     23  C   UNL     1       6.578   4.163  14.940  0.00  0.00    +0.000 C 
ATOM     24  N   UNL     1       6.681   5.587  15.288  0.00  0.00    +0.000 NA
ATOM     25  C   UNL     1       5.383   6.239  15.089  0.00  0.00    +0.000 C 
ENDBRANCH  22  24
ENDBRANCH  21  22
ENDBRANCH  17  21
ENDBRANCH   1  19
BRANCH  13  26
ATOM     26  N   UNL     1       0.397   9.961  21.260  0.00  0.00    +0.000 N 
ATOM     27  C   UNL     1      -0.746  10.703  21.470  0.00  0.00    +0.000 C 
ATOM     28  O   UNL     1      -1.390  11.279  20.595  0.00  0.00    +0.000 OA
ATOM     29  H   UNL     1       0.737   9.430  22.073  0.00  0.00    +0.000 HD
BRANCH  27  30
ATOM     30  C   UNL     1      -1.170  10.849  22.925  0.00  0.00    +0.000 C 
BRANCH  30  31
ATOM     31  C   UNL     1      -1.884  12.150  23.302  0.00  0.00    +0.000 C 
BRANCH  31  32
ATOM     32  N   UNL     1      -3.355  12.052  23.286  0.00  0.00    +0.000 NA
ATOM     33  C   UNL     1      -3.980  12.444  24.548  0.00  0.00    +0.000 C 
ATOM     34  C   UNL     1      -3.907  12.840  22.180  0.00  0.00    +0.000 C 
ENDBRANCH  31  32
ENDBRANCH  30  31
ENDBRANCH  27  30
ENDBRANCH  13  26
TORSDOF 8
ENDMDL
