MODEL 1
REMARK VINA RESULT:      -8.6      0.000      0.000
REMARK  Name = 
REMARK  10 active torsions:
REMARK  status: ('A' for Active; 'I' for Inactive)
REMARK    1  A    between atoms: C_1  and  C_2
REMARK    2  A    between atoms: C_4  and  C_5
REMARK    3  A    between atoms: C_12  and  C_13
REMARK    4  A    between atoms: C_13  and  C_14
REMARK    5  A    between atoms: C_14  and  O_15
REMARK    6  A    between atoms: O_15  and  C_16
REMARK    7  A    between atoms: C_23  and  C_24
REMARK    8  A    between atoms: C_25  and  C_26
REMARK    9  A    between atoms: C_26  and  C_27
REMARK   10  A    between atoms: C_27  and  O_29
REMARK                            x       y       z     vdW  Elec       q    Type
REMARK                         _______ _______ _______ _____ _____    ______ ____
ROOT
ATOM      1  O   UNL     1       7.940   7.970  16.991  0.00  0.00    +0.000 OA
ENDROOT
BRANCH   1   2
ATOM      2  C   UNL     1       7.333   6.818  17.459  0.00  0.00    +0.000 A 
ATOM      3  C   UNL     1       7.689   6.335  18.731  0.00  0.00    +0.000 A 
ATOM      4  C   UNL     1       6.872   5.396  19.420  0.00  0.00    +0.000 A 
ATOM      5  C   UNL     1       5.717   4.930  18.793  0.00  0.00    +0.000 A 
ATOM      6  C   UNL     1       5.577   5.181  17.422  0.00  0.00    +0.000 A 
ATOM      7  C   UNL     1       6.323   6.158  16.773  0.00  0.00    +0.000 A 
ATOM      8  C   UNL     1       4.218   4.800  16.957  0.00  0.00    +0.000 C 
ATOM      9  C   UNL     1       3.504   5.428  18.154  0.00  0.00    +0.000 C 
ATOM     10  C   UNL     1       2.008   5.295  17.966  0.00  0.00    +0.000 C 
ATOM     11  C   UNL     1       4.285   4.813  19.400  0.00  0.00    +0.000 C 
BRANCH  11  12
ATOM     12  C   UNL     1       3.614   3.487  19.782  0.00  0.00    +0.000 C 
BRANCH  12  13
ATOM     13  C   UNL     1       4.385   2.203  19.677  0.00  0.00    +0.000 C 
ATOM     14  O   UNL     1       5.096   1.770  20.579  0.00  0.00    +0.000 OA
BRANCH  13  15
ATOM     15  O   UNL     1       4.100   1.477  18.580  0.00  0.00    +0.000 OA
ATOM     16  H   UNL     1       3.281   0.953  18.658  0.00  0.00    +0.000 HD
ENDBRANCH  13  15
ENDBRANCH  12  13
ENDBRANCH  11  12
ENDBRANCH   1   2
BRANCH   1  17
ATOM     17  C   UNL     1       7.816   9.114  17.877  0.00  0.00    +0.000 C 
BRANCH  17  18
ATOM     18  C   UNL     1       9.069   9.364  18.708  0.00  0.00    +0.000 C 
BRANCH  18  24
ATOM     19  C   UNL     1       8.937  11.154  21.596  0.00  0.00    +0.000 C 
ATOM     20  C   UNL     1       9.204  11.509  20.198  0.00  0.00    +0.000 A 
ATOM     21  O   UNL     1       9.484  12.825  19.947  0.00  0.00    +0.000 OA
ATOM     22  C   UNL     1       9.680  12.891  18.589  0.00  0.00    +0.000 A 
ATOM     23  N   UNL     1       9.578  11.717  17.986  0.00  0.00    +0.000 NA
ATOM     24  C   UNL     1       9.275  10.821  18.998  0.00  0.00    +0.000 A 
BRANCH  22  25
ATOM     25  C   UNL     1       9.943  14.218  18.030  0.00  0.00    +0.000 A 
ATOM     26  C   UNL     1       9.084  15.310  18.253  0.00  0.00    +0.000 A 
ATOM     27  C   UNL     1       9.357  16.564  17.692  0.00  0.00    +0.000 A 
ATOM     28  C   UNL     1      10.499  16.754  16.917  0.00  0.00    +0.000 A 
ATOM     29  C   UNL     1      11.369  15.689  16.704  0.00  0.00    +0.000 A 
ATOM     30  C   UNL     1      11.090  14.437  17.257  0.00  0.00    +0.000 A 
ENDBRANCH  22  25
ENDBRANCH  18  24
ENDBRANCH  17  18
ENDBRANCH   1  17
TORSDOF 8
ENDMDL
MODEL 2
REMARK VINA RESULT:      -8.4      5.732      9.092
REMARK  Name = 
REMARK  10 active torsions:
REMARK  status: ('A' for Active; 'I' for Inactive)
REMARK    1  A    between atoms: C_1  and  C_2
REMARK    2  A    between atoms: C_4  and  C_5
REMARK    3  A    between atoms: C_12  and  C_13
REMARK    4  A    between atoms: C_13  and  C_14
REMARK    5  A    between atoms: C_14  and  O_15
REMARK    6  A    between atoms: O_15  and  C_16
REMARK    7  A    between atoms: C_23  and  C_24
REMARK    8  A    between atoms: C_25  and  C_26
REMARK    9  A    between atoms: C_26  and  C_27
REMARK   10  A    between atoms: C_27  and  O_29
REMARK                            x       y       z     vdW  Elec       q    Type
REMARK                         _______ _______ _______ _____ _____    ______ ____
ROOT
ATOM      1  O   UNL     1       3.161   7.570  18.161  0.00  0.00    +0.000 OA
ENDROOT
BRANCH   1   2
ATOM      2  C   UNL     1       2.121   8.192  18.827  0.00  0.00    +0.000 A 
ATOM      3  C   UNL     1       1.843   7.813  20.153  0.00  0.00    +0.000 A 
ATOM      4  C   UNL     1       1.055   8.635  21.006  0.00  0.00    +0.000 A 
ATOM      5  C   UNL     1       0.527   9.818  20.491  0.00  0.00    +0.000 A 
ATOM      6  C   UNL     1       0.553   9.990  19.101  0.00  0.00    +0.000 A 
ATOM      7  C   UNL     1       1.387   9.237  18.283  0.00  0.00    +0.000 A 
ATOM      8  C   UNL     1       0.141  11.370  18.737  0.00  0.00    +0.000 C 
ATOM      9  C   UNL     1       0.978  12.034  19.830  0.00  0.00    +0.000 C 
ATOM     10  C   UNL     1       0.860  13.538  19.701  0.00  0.00    +0.000 C 
ATOM     11  C   UNL     1       0.554  11.236  21.142  0.00  0.00    +0.000 C 
BRANCH  11  12
ATOM     12  C   UNL     1      -0.671  11.929  21.753  0.00  0.00    +0.000 C 
BRANCH  12  13
ATOM     13  C   UNL     1      -1.314  11.361  22.986  0.00  0.00    +0.000 C 
ATOM     14  O   UNL     1      -2.445  11.661  23.353  0.00  0.00    +0.000 OA
BRANCH  13  15
ATOM     15  O   UNL     1      -0.615  10.366  23.563  0.00  0.00    +0.000 OA
ATOM     16  H   UNL     1      -0.945  10.115  24.445  0.00  0.00    +0.000 HD
ENDBRANCH  13  15
ENDBRANCH  12  13
ENDBRANCH  11  12
ENDBRANCH   1   2
BRANCH   1  17
ATOM     17  C   UNL     1       3.157   6.121  18.265  0.00  0.00    +0.000 C 
BRANCH  17  18
ATOM     18  C   UNL     1       4.453   5.560  18.837  0.00  0.00    +0.000 C 
BRANCH  18  24
ATOM     19  C   UNL     1       7.832   5.930  18.927  0.00  0.00    +0.000 C 
ATOM     20  C   UNL     1       6.883   5.564  17.870  0.00  0.00    +0.000 A 
ATOM     21  O   UNL     1       7.419   5.283  16.642  0.00  0.00    +0.000 OA
ATOM     22  C   UNL     1       6.339   4.987  15.846  0.00  0.00    +0.000 A 
ATOM     23  N   UNL     1       5.184   5.028  16.491  0.00  0.00    +0.000 NA
ATOM     24  C   UNL     1       5.511   5.395  17.787  0.00  0.00    +0.000 A 
BRANCH  22  25
ATOM     25  C   UNL     1       6.623   4.699  14.439  0.00  0.00    +0.000 A 
ATOM     26  C   UNL     1       7.623   5.380  13.721  0.00  0.00    +0.000 A 
ATOM     27  C   UNL     1       7.861   5.092  12.372  0.00  0.00    +0.000 A 
ATOM     28  C   UNL     1       7.119   4.107  11.722  0.00  0.00    +0.000 A 
ATOM     29  C   UNL     1       6.139   3.411  12.424  0.00  0.00    +0.000 A 
ATOM     30  C   UNL     1       5.898   3.706  13.768  0.00  0.00    +0.000 A 
ENDBRANCH  22  25
ENDBRANCH  18  24
ENDBRANCH  17  18
ENDBRANCH   1  17
TORSDOF 8
ENDMDL
MODEL 3
REMARK VINA RESULT:      -8.3      5.715      8.890
REMARK  Name = 
REMARK  10 active torsions:
REMARK  status: ('A' for Active; 'I' for Inactive)
REMARK    1  A    between atoms: C_1  and  C_2
REMARK    2  A    between atoms: C_4  and  C_5
REMARK    3  A    between atoms: C_12  and  C_13
REMARK    4  A    between atoms: C_13  and  C_14
REMARK    5  A    between atoms: C_14  and  O_15
REMARK    6  A    between atoms: O_15  and  C_16
REMARK    7  A    between atoms: C_23  and  C_24
REMARK    8  A    between atoms: C_25  and  C_26
REMARK    9  A    between atoms: C_26  and  C_27
REMARK   10  A    between atoms: C_27  and  O_29
REMARK                            x       y       z     vdW  Elec       q    Type
REMARK                         _______ _______ _______ _____ _____    ______ ____
ROOT
ATOM      1  O   UNL     1       1.495   6.272  20.091  0.00  0.00    +0.000 OA
ENDROOT
BRANCH   1   2
ATOM      2  C   UNL     1       2.455   5.546  19.410  0.00  0.00    +0.000 A 
ATOM      3  C   UNL     1       2.075   4.842  18.253  0.00  0.00    +0.000 A 
ATOM      4  C   UNL     1       3.043   4.386  17.315  0.00  0.00    +0.000 A 
ATOM      5  C   UNL     1       4.391   4.619  17.581  0.00  0.00    +0.000 A 
ATOM      6  C   UNL     1       4.737   5.023  18.876  0.00  0.00    +0.000 A 
ATOM      7  C   UNL     1       3.798   5.545  19.759  0.00  0.00    +0.000 A 
ATOM      8  C   UNL     1       6.168   5.418  18.937  0.00  0.00    +0.000 C 
ATOM      9  C   UNL     1       6.125   6.214  17.633  0.00  0.00    +0.000 C 
ATOM     10  C   UNL     1       7.472   6.867  17.405  0.00  0.00    +0.000 C 
ATOM     11  C   UNL     1       5.470   5.186  16.606  0.00  0.00    +0.000 C 
BRANCH  11  12
ATOM     12  C   UNL     1       6.593   4.349  15.980  0.00  0.00    +0.000 C 
BRANCH  12  13
ATOM     13  C   UNL     1       6.930   4.520  14.526  0.00  0.00    +0.000 C 
ATOM     14  O   UNL     1       7.689   5.389  14.109  0.00  0.00    +0.000 OA
BRANCH  13  15
ATOM     15  O   UNL     1       6.466   3.536  13.734  0.00  0.00    +0.000 OA
ATOM     16  H   UNL     1       5.497   3.546  13.624  0.00  0.00    +0.000 HD
ENDBRANCH  13  15
ENDBRANCH  12  13
ENDBRANCH  11  12
ENDBRANCH   1   2
BRANCH   1  17
ATOM     17  C   UNL     1       1.923   7.601  20.492  0.00  0.00    +0.000 C 
BRANCH  17  18
ATOM     18  C   UNL     1       1.917   8.602  19.343  0.00  0.00    +0.000 C 
BRANCH  18  24
ATOM     19  C   UNL     1       0.386  10.528  21.690  0.00  0.00    +0.000 C 
ATOM     20  C   UNL     1       0.069  10.187  20.299  0.00  0.00    +0.000 A 
ATOM     21  O   UNL     1      -1.063  10.751  19.777  0.00  0.00    +0.000 OA
ATOM     22  C   UNL     1      -1.136  10.271  18.492  0.00  0.00    +0.000 A 
ATOM     23  N   UNL     1      -0.122   9.485  18.167  0.00  0.00    +0.000 NA
ATOM     24  C   UNL     1       0.660   9.419  19.309  0.00  0.00    +0.000 A 
BRANCH  22  25
ATOM     25  C   UNL     1      -2.303  10.676  17.708  0.00  0.00    +0.000 A 
ATOM     26  C   UNL     1      -3.383  11.376  18.277  0.00  0.00    +0.000 A 
ATOM     27  C   UNL     1      -4.493  11.737  17.503  0.00  0.00    +0.000 A 
ATOM     28  C   UNL     1      -4.535  11.423  16.146  0.00  0.00    +0.000 A 
ATOM     29  C   UNL     1      -3.466  10.749  15.563  0.00  0.00    +0.000 A 
ATOM     30  C   UNL     1      -2.364  10.383  16.340  0.00  0.00    +0.000 A 
ENDBRANCH  22  25
ENDBRANCH  18  24
ENDBRANCH  17  18
ENDBRANCH   1  17
TORSDOF 8
ENDMDL
MODEL 4
REMARK VINA RESULT:      -8.3      5.816      9.019
REMARK  Name = 
REMARK  10 active torsions:
REMARK  status: ('A' for Active; 'I' for Inactive)
REMARK    1  A    between atoms: C_1  and  C_2
REMARK    2  A    between atoms: C_4  and  C_5
REMARK    3  A    between atoms: C_12  and  C_13
REMARK    4  A    between atoms: C_13  and  C_14
REMARK    5  A    between atoms: C_14  and  O_15
REMARK    6  A    between atoms: O_15  and  C_16
REMARK    7  A    between atoms: C_23  and  C_24
REMARK    8  A    between atoms: C_25  and  C_26
REMARK    9  A    between atoms: C_26  and  C_27
REMARK   10  A    between atoms: C_27  and  O_29
REMARK                            x       y       z     vdW  Elec       q    Type
REMARK                         _______ _______ _______ _____ _____    ______ ____
ROOT
ATOM      1  O   UNL     1       1.557   6.661  20.402  0.00  0.00    +0.000 OA
ENDROOT
BRANCH   1   2
ATOM      2  C   UNL     1       2.419   5.846  19.691  0.00  0.00    +0.000 A 
ATOM      3  C   UNL     1       1.941   5.198  18.537  0.00  0.00    +0.000 A 
ATOM      4  C   UNL     1       2.833   4.654  17.573  0.00  0.00    +0.000 A 
ATOM      5  C   UNL     1       4.204   4.741  17.807  0.00  0.00    +0.000 A 
ATOM      6  C   UNL     1       4.621   5.092  19.098  0.00  0.00    +0.000 A 
ATOM      7  C   UNL     1       3.762   5.700  20.008  0.00  0.00    +0.000 A 
ATOM      8  C   UNL     1       6.086   5.334  19.127  0.00  0.00    +0.000 C 
ATOM      9  C   UNL     1       6.097   6.145  17.831  0.00  0.00    +0.000 C 
ATOM     10  C   UNL     1       7.499   6.657  17.577  0.00  0.00    +0.000 C 
ATOM     11  C   UNL     1       5.314   5.203  16.812  0.00  0.00    +0.000 C 
BRANCH  11  12
ATOM     12  C   UNL     1       6.328   4.261  16.151  0.00  0.00    +0.000 C 
BRANCH  12  13
ATOM     13  C   UNL     1       6.656   4.419  14.694  0.00  0.00    +0.000 C 
ATOM     14  O   UNL     1       5.998   3.902  13.796  0.00  0.00    +0.000 OA
BRANCH  13  15
ATOM     15  O   UNL     1       7.630   5.312  14.443  0.00  0.00    +0.000 OA
ATOM     16  H   UNL     1       7.328   6.092  13.941  0.00  0.00    +0.000 HD
ENDBRANCH  13  15
ENDBRANCH  12  13
ENDBRANCH  11  12
ENDBRANCH   1   2
BRANCH   1  17
ATOM     17  C   UNL     1       1.830   8.081  20.269  0.00  0.00    +0.000 C 
BRANCH  17  18
ATOM     18  C   UNL     1       1.071   8.931  21.281  0.00  0.00    +0.000 C 
BRANCH  18  24
ATOM     19  C   UNL     1      -0.664  11.649  22.359  0.00  0.00    +0.000 C 
ATOM     20  C   UNL     1      -0.682  10.865  21.120  0.00  0.00    +0.000 A 
ATOM     21  O   UNL     1      -1.551  11.282  20.148  0.00  0.00    +0.000 OA
ATOM     22  C   UNL     1      -1.382  10.390  19.118  0.00  0.00    +0.000 A 
ATOM     23  N   UNL     1      -0.456   9.476  19.360  0.00  0.00    +0.000 NA
ATOM     24  C   UNL     1       0.004   9.764  20.636  0.00  0.00    +0.000 A 
BRANCH  22  25
ATOM     25  C   UNL     1      -2.245  10.569  17.950  0.00  0.00    +0.000 A 
ATOM     26  C   UNL     1      -2.004   9.910  16.730  0.00  0.00    +0.000 A 
ATOM     27  C   UNL     1      -2.841  10.114  15.626  0.00  0.00    +0.000 A 
ATOM     28  C   UNL     1      -3.942  10.963  15.725  0.00  0.00    +0.000 A 
ATOM     29  C   UNL     1      -4.206  11.606  16.931  0.00  0.00    +0.000 A 
ATOM     30  C   UNL     1      -3.364  11.408  18.029  0.00  0.00    +0.000 A 
ENDBRANCH  22  25
ENDBRANCH  18  24
ENDBRANCH  17  18
ENDBRANCH   1  17
TORSDOF 8
ENDMDL
MODEL 5
REMARK VINA RESULT:      -8.3      6.467     10.168
REMARK  Name = 
REMARK  10 active torsions:
REMARK  status: ('A' for Active; 'I' for Inactive)
REMARK    1  A    between atoms: C_1  and  C_2
REMARK    2  A    between atoms: C_4  and  C_5
REMARK    3  A    between atoms: C_12  and  C_13
REMARK    4  A    between atoms: C_13  and  C_14
REMARK    5  A    between atoms: C_14  and  O_15
REMARK    6  A    between atoms: O_15  and  C_16
REMARK    7  A    between atoms: C_23  and  C_24
REMARK    8  A    between atoms: C_25  and  C_26
REMARK    9  A    between atoms: C_26  and  C_27
REMARK   10  A    between atoms: C_27  and  O_29
REMARK                            x       y       z     vdW  Elec       q    Type
REMARK                         _______ _______ _______ _____ _____    ______ ____
ROOT
ATOM      1  O   UNL     1       0.544   9.266  21.317  0.00  0.00    +0.000 OA
ENDROOT
BRANCH   1   2
ATOM      2  C   UNL     1       0.120   9.864  20.144  0.00  0.00    +0.000 A 
ATOM      3  C   UNL     1       0.713   9.469  18.931  0.00  0.00    +0.000 A 
ATOM      4  C   UNL     1       0.099   9.757  17.681  0.00  0.00    +0.000 A 
ATOM      5  C   UNL     1      -1.096  10.477  17.674  0.00  0.00    +0.000 A 
ATOM      6  C   UNL     1      -1.471  11.122  18.859  0.00  0.00    +0.000 A 
ATOM      7  C   UNL     1      -0.924  10.777  20.090  0.00  0.00    +0.000 A 
ATOM      8  C   UNL     1      -2.848  11.669  18.743  0.00  0.00    +0.000 C 
ATOM      9  C   UNL     1      -3.416  10.415  18.079  0.00  0.00    +0.000 C 
ATOM     10  C   UNL     1      -4.906  10.592  17.878  0.00  0.00    +0.000 C 
ATOM     11  C   UNL     1      -2.399  10.152  16.881  0.00  0.00    +0.000 C 
BRANCH  11  12
ATOM     12  C   UNL     1      -2.884  10.938  15.656  0.00  0.00    +0.000 C 
BRANCH  12  13
ATOM     13  C   UNL     1      -3.273  10.206  14.404  0.00  0.00    +0.000 C 
ATOM     14  O   UNL     1      -2.457   9.793  13.585  0.00  0.00    +0.000 OA
BRANCH  13  15
ATOM     15  O   UNL     1      -4.579   9.890  14.334  0.00  0.00    +0.000 OA
ATOM     16  H   UNL     1      -4.852   9.207  14.974  0.00  0.00    +0.000 HD
ENDBRANCH  13  15
ENDBRANCH  12  13
ENDBRANCH  11  12
ENDBRANCH   1   2
BRANCH   1  17
ATOM     17  C   UNL     1       1.606   8.292  21.143  0.00  0.00    +0.000 C 
BRANCH  17  18
ATOM     18  C   UNL     1       1.118   6.852  21.240  0.00  0.00    +0.000 C 
BRANCH  18  24
ATOM     19  C   UNL     1       1.493   3.472  21.218  0.00  0.00    +0.000 C 
ATOM     20  C   UNL     1       2.013   4.553  20.372  0.00  0.00    +0.000 A 
ATOM     21  O   UNL     1       2.810   4.176  19.325  0.00  0.00    +0.000 OA
ATOM     22  C   UNL     1       3.166   5.353  18.713  0.00  0.00    +0.000 A 
ATOM     23  N   UNL     1       2.626   6.423  19.275  0.00  0.00    +0.000 NA
ATOM     24  C   UNL     1       1.884   5.931  20.338  0.00  0.00    +0.000 A 
BRANCH  22  25
ATOM     25  C   UNL     1       4.080   5.247  17.575  0.00  0.00    +0.000 A 
ATOM     26  C   UNL     1       4.246   4.050  16.855  0.00  0.00    +0.000 A 
ATOM     27  C   UNL     1       5.140   3.978  15.779  0.00  0.00    +0.000 A 
ATOM     28  C   UNL     1       5.869   5.101  15.393  0.00  0.00    +0.000 A 
ATOM     29  C   UNL     1       5.701   6.298  16.083  0.00  0.00    +0.000 A 
ATOM     30  C   UNL     1       4.814   6.366  17.161  0.00  0.00    +0.000 A 
ENDBRANCH  22  25
ENDBRANCH  18  24
ENDBRANCH  17  18
ENDBRANCH   1  17
TORSDOF 8
ENDMDL
MODEL 6
REMARK VINA RESULT:      -8.2      5.626      8.858
REMARK  Name = 
REMARK  10 active torsions:
REMARK  status: ('A' for Active; 'I' for Inactive)
REMARK    1  A    between atoms: C_1  and  C_2
REMARK    2  A    between atoms: C_4  and  C_5
REMARK    3  A    between atoms: C_12  and  C_13
REMARK    4  A    between atoms: C_13  and  C_14
REMARK    5  A    between atoms: C_14  and  O_15
REMARK    6  A    between atoms: O_15  and  C_16
REMARK    7  A    between atoms: C_23  and  C_24
REMARK    8  A    between atoms: C_25  and  C_26
REMARK    9  A    between atoms: C_26  and  C_27
REMARK   10  A    between atoms: C_27  and  O_29
REMARK                            x       y       z     vdW  Elec       q    Type
REMARK                         _______ _______ _______ _____ _____    ______ ____
ROOT
ATOM      1  O   UNL     1       1.543   6.235  20.065  0.00  0.00    +0.000 OA
ENDROOT
BRANCH   1   2
ATOM      2  C   UNL     1       2.527   5.551  19.374  0.00  0.00    +0.000 A 
ATOM      3  C   UNL     1       2.173   4.859  18.202  0.00  0.00    +0.000 A 
ATOM      4  C   UNL     1       3.157   4.449  17.260  0.00  0.00    +0.000 A 
ATOM      5  C   UNL     1       4.498   4.717  17.536  0.00  0.00    +0.000 A 
ATOM      6  C   UNL     1       4.826   5.106  18.841  0.00  0.00    +0.000 A 
ATOM      7  C   UNL     1       3.868   5.582  19.730  0.00  0.00    +0.000 A 
ATOM      8  C   UNL     1       6.244   5.542  18.916  0.00  0.00    +0.000 C 
ATOM      9  C   UNL     1       6.183   6.361  17.628  0.00  0.00    +0.000 C 
ATOM     10  C   UNL     1       7.510   7.059  17.419  0.00  0.00    +0.000 C 
ATOM     11  C   UNL     1       5.563   5.334  16.578  0.00  0.00    +0.000 C 
BRANCH  11  12
ATOM     12  C   UNL     1       6.713   4.544  15.941  0.00  0.00    +0.000 C 
BRANCH  12  13
ATOM     13  C   UNL     1       6.901   4.568  14.451  0.00  0.00    +0.000 C 
ATOM     14  O   UNL     1       6.173   3.962  13.671  0.00  0.00    +0.000 OA
BRANCH  13  15
ATOM     15  O   UNL     1       7.830   5.446  14.028  0.00  0.00    +0.000 OA
ATOM     16  H   UNL     1       8.095   5.318  13.098  0.00  0.00    +0.000 HD
ENDBRANCH  13  15
ENDBRANCH  12  13
ENDBRANCH  11  12
ENDBRANCH   1   2
BRANCH   1  17
ATOM     17  C   UNL     1       1.855   7.629  20.326  0.00  0.00    +0.000 C 
BRANCH  17  18
ATOM     18  C   UNL     1       1.966   8.464  19.056  0.00  0.00    +0.000 C 
BRANCH  18  24
ATOM     19  C   UNL     1       1.323  11.346  20.743  0.00  0.00    +0.000 C 
ATOM     20  C   UNL     1       0.636  10.634  19.660  0.00  0.00    +0.000 A 
ATOM     21  O   UNL     1      -0.502  11.218  19.173  0.00  0.00    +0.000 OA
ATOM     22  C   UNL     1      -0.947  10.362  18.196  0.00  0.00    +0.000 A 
ATOM     23  N   UNL     1      -0.158   9.315  18.015  0.00  0.00    +0.000 NA
ATOM     24  C   UNL     1       0.860   9.471  18.942  0.00  0.00    +0.000 A 
BRANCH  22  25
ATOM     25  C   UNL     1      -2.204  10.720  17.536  0.00  0.00    +0.000 A 
ATOM     26  C   UNL     1      -2.429  10.477  16.168  0.00  0.00    +0.000 A 
ATOM     27  C   UNL     1      -3.638  10.845  15.564  0.00  0.00    +0.000 A 
ATOM     28  C   UNL     1      -4.647  11.443  16.316  0.00  0.00    +0.000 A 
ATOM     29  C   UNL     1      -4.447  11.671  17.674  0.00  0.00    +0.000 A 
ATOM     30  C   UNL     1      -3.237  11.311  18.273  0.00  0.00    +0.000 A 
ENDBRANCH  22  25
ENDBRANCH  18  24
ENDBRANCH  17  18
ENDBRANCH   1  17
TORSDOF 8
ENDMDL
MODEL 7
REMARK VINA RESULT:      -8.2      5.696      8.183
REMARK  Name = 
REMARK  10 active torsions:
REMARK  status: ('A' for Active; 'I' for Inactive)
REMARK    1  A    between atoms: C_1  and  C_2
REMARK    2  A    between atoms: C_4  and  C_5
REMARK    3  A    between atoms: C_12  and  C_13
REMARK    4  A    between atoms: C_13  and  C_14
REMARK    5  A    between atoms: C_14  and  O_15
REMARK    6  A    between atoms: O_15  and  C_16
REMARK    7  A    between atoms: C_23  and  C_24
REMARK    8  A    between atoms: C_25  and  C_26
REMARK    9  A    between atoms: C_26  and  C_27
REMARK   10  A    between atoms: C_27  and  O_29
REMARK                            x       y       z     vdW  Elec       q    Type
REMARK                         _______ _______ _______ _____ _____    ______ ____
ROOT
ATOM      1  O   UNL     1       1.408   4.114  19.706  0.00  0.00    +0.000 OA
ENDROOT
BRANCH   1   2
ATOM      2  C   UNL     1       2.525   3.838  18.938  0.00  0.00    +0.000 A 
ATOM      3  C   UNL     1       2.352   3.535  17.576  0.00  0.00    +0.000 A 
ATOM      4  C   UNL     1       3.439   3.600  16.661  0.00  0.00    +0.000 A 
ATOM      5  C   UNL     1       4.702   3.936  17.147  0.00  0.00    +0.000 A 
ATOM      6  C   UNL     1       4.891   3.907  18.535  0.00  0.00    +0.000 A 
ATOM      7  C   UNL     1       3.823   3.927  19.424  0.00  0.00    +0.000 A 
ATOM      8  C   UNL     1       6.215   4.478  18.894  0.00  0.00    +0.000 C 
ATOM      9  C   UNL     1       6.094   5.665  17.938  0.00  0.00    +0.000 C 
ATOM     10  C   UNL     1       7.301   6.563  18.105  0.00  0.00    +0.000 C 
ATOM     11  C   UNL     1       5.705   4.974  16.556  0.00  0.00    +0.000 C 
BRANCH  11  12
ATOM     12  C   UNL     1       7.000   4.603  15.822  0.00  0.00    +0.000 C 
BRANCH  12  13
ATOM     13  C   UNL     1       7.060   4.686  14.324  0.00  0.00    +0.000 C 
ATOM     14  O   UNL     1       7.745   5.507  13.722  0.00  0.00    +0.000 OA
BRANCH  13  15
ATOM     15  O   UNL     1       6.433   3.677  13.691  0.00  0.00    +0.000 OA
ATOM     16  H   UNL     1       5.622   3.951  13.223  0.00  0.00    +0.000 HD
ENDBRANCH  13  15
ENDBRANCH  12  13
ENDBRANCH  11  12
ENDBRANCH   1   2
BRANCH   1  17
ATOM     17  C   UNL     1       1.588   5.197  20.656  0.00  0.00    +0.000 C 
BRANCH  17  18
ATOM     18  C   UNL     1       2.572   6.257  20.174  0.00  0.00    +0.000 C 
BRANCH  18  24
ATOM     19  C   UNL     1       2.401   8.536  17.657  0.00  0.00    +0.000 C 
ATOM     20  C   UNL     1       1.906   8.516  19.038  0.00  0.00    +0.000 A 
ATOM     21  O   UNL     1       1.203   9.616  19.448  0.00  0.00    +0.000 OA
ATOM     22  C   UNL     1       0.871   9.354  20.755  0.00  0.00    +0.000 A 
ATOM     23  N   UNL     1       1.281   8.168  21.175  0.00  0.00    +0.000 NA
ATOM     24  C   UNL     1       1.945   7.616  20.090  0.00  0.00    +0.000 A 
BRANCH  22  25
ATOM     25  C   UNL     1       0.151  10.409  21.471  0.00  0.00    +0.000 A 
ATOM     26  C   UNL     1       0.278  11.768  21.129  0.00  0.00    +0.000 A 
ATOM     27  C   UNL     1      -0.413  12.755  21.843  0.00  0.00    +0.000 A 
ATOM     28  C   UNL     1      -1.256  12.402  22.895  0.00  0.00    +0.000 A 
ATOM     29  C   UNL     1      -1.407  11.060  23.232  0.00  0.00    +0.000 A 
ATOM     30  C   UNL     1      -0.710  10.078  22.524  0.00  0.00    +0.000 A 
ENDBRANCH  22  25
ENDBRANCH  18  24
ENDBRANCH  17  18
ENDBRANCH   1  17
TORSDOF 8
ENDMDL
MODEL 8
REMARK VINA RESULT:      -8.2      5.264      7.806
REMARK  Name = 
REMARK  10 active torsions:
REMARK  status: ('A' for Active; 'I' for Inactive)
REMARK    1  A    between atoms: C_1  and  C_2
REMARK    2  A    between atoms: C_4  and  C_5
REMARK    3  A    between atoms: C_12  and  C_13
REMARK    4  A    between atoms: C_13  and  C_14
REMARK    5  A    between atoms: C_14  and  O_15
REMARK    6  A    between atoms: O_15  and  C_16
REMARK    7  A    between atoms: C_23  and  C_24
REMARK    8  A    between atoms: C_25  and  C_26
REMARK    9  A    between atoms: C_26  and  C_27
REMARK   10  A    between atoms: C_27  and  O_29
REMARK                            x       y       z     vdW  Elec       q    Type
REMARK                         _______ _______ _______ _____ _____    ______ ____
ROOT
ATOM      1  O   UNL     1       2.525   4.096  20.193  0.00  0.00    +0.000 OA
ENDROOT
BRANCH   1   2
ATOM      2  C   UNL     1       3.530   3.963  19.253  0.00  0.00    +0.000 A 
ATOM      3  C   UNL     1       3.190   3.555  17.951  0.00  0.00    +0.000 A 
ATOM      4  C   UNL     1       4.083   3.743  16.861  0.00  0.00    +0.000 A 
ATOM      5  C   UNL     1       5.331   4.313  17.110  0.00  0.00    +0.000 A 
ATOM      6  C   UNL     1       5.749   4.399  18.445  0.00  0.00    +0.000 A 
ATOM      7  C   UNL     1       4.854   4.295  19.504  0.00  0.00    +0.000 A 
ATOM      8  C   UNL     1       6.994   5.203  18.551  0.00  0.00    +0.000 C 
ATOM      9  C   UNL     1       6.513   6.293  17.595  0.00  0.00    +0.000 C 
ATOM     10  C   UNL     1       7.556   7.387  17.522  0.00  0.00    +0.000 C 
ATOM     11  C   UNL     1       6.027   5.465  16.322  0.00  0.00    +0.000 C 
BRANCH  11  12
ATOM     12  C   UNL     1       7.227   5.270  15.388  0.00  0.00    +0.000 C 
BRANCH  12  13
ATOM     13  C   UNL     1       7.008   4.810  13.975  0.00  0.00    +0.000 C 
ATOM     14  O   UNL     1       6.124   4.022  13.654  0.00  0.00    +0.000 OA
BRANCH  13  15
ATOM     15  O   UNL     1       7.751   5.461  13.062  0.00  0.00    +0.000 OA
ATOM     16  H   UNL     1       8.367   4.884  12.573  0.00  0.00    +0.000 HD
ENDBRANCH  13  15
ENDBRANCH  12  13
ENDBRANCH  11  12
ENDBRANCH   1   2
BRANCH   1  17
ATOM     17  C   UNL     1       1.644   5.229  19.972  0.00  0.00    +0.000 C 
BRANCH  17  18
ATOM     18  C   UNL     1       2.052   6.466  20.764  0.00  0.00    +0.000 C 
BRANCH  18  24
ATOM     19  C   UNL     1       3.074   7.665  17.751  0.00  0.00    +0.000 C 
ATOM     20  C   UNL     1       2.190   8.186  18.799  0.00  0.00    +0.000 A 
ATOM     21  O   UNL     1       1.612   9.403  18.558  0.00  0.00    +0.000 OA
ATOM     22  C   UNL     1       0.857   9.662  19.676  0.00  0.00    +0.000 A 
ATOM     23  N   UNL     1       0.895   8.690  20.573  0.00  0.00    +0.000 NA
ATOM     24  C   UNL     1       1.742   7.736  20.030  0.00  0.00    +0.000 A 
BRANCH  22  25
ATOM     25  C   UNL     1       0.163  10.950  19.712  0.00  0.00    +0.000 A 
ATOM     26  C   UNL     1      -0.754  11.280  20.727  0.00  0.00    +0.000 A 
ATOM     27  C   UNL     1      -1.413  12.516  20.725  0.00  0.00    +0.000 A 
ATOM     28  C   UNL     1      -1.155  13.449  19.723  0.00  0.00    +0.000 A 
ATOM     29  C   UNL     1      -0.235  13.146  18.723  0.00  0.00    +0.000 A 
ATOM     30  C   UNL     1       0.414  11.909  18.722  0.00  0.00    +0.000 A 
ENDBRANCH  22  25
ENDBRANCH  18  24
ENDBRANCH  17  18
ENDBRANCH   1  17
TORSDOF 8
ENDMDL
MODEL 9
REMARK VINA RESULT:      -8.1      5.339      9.082
REMARK  Name = 
REMARK  10 active torsions:
REMARK  status: ('A' for Active; 'I' for Inactive)
REMARK    1  A    between atoms: C_1  and  C_2
REMARK    2  A    between atoms: C_4  and  C_5
REMARK    3  A    between atoms: C_12  and  C_13
REMARK    4  A    between atoms: C_13  and  C_14
REMARK    5  A    between atoms: C_14  and  O_15
REMARK    6  A    between atoms: O_15  and  C_16
REMARK    7  A    between atoms: C_23  and  C_24
REMARK    8  A    between atoms: C_25  and  C_26
REMARK    9  A    between atoms: C_26  and  C_27
REMARK   10  A    between atoms: C_27  and  O_29
REMARK                            x       y       z     vdW  Elec       q    Type
REMARK                         _______ _______ _______ _____ _____    ______ ____
ROOT
ATOM      1  O   UNL     1       2.917   6.492  20.103  0.00  0.00    +0.000 OA
ENDROOT
BRANCH   1   2
ATOM      2  C   UNL     1       2.006   7.511  19.894  0.00  0.00    +0.000 A 
ATOM      3  C   UNL     1       1.126   7.856  20.936  0.00  0.00    +0.000 A 
ATOM      4  C   UNL     1       0.431   9.097  20.935  0.00  0.00    +0.000 A 
ATOM      5  C   UNL     1       0.609   9.961  19.855  0.00  0.00    +0.000 A 
ATOM      6  C   UNL     1       1.224   9.446  18.707  0.00  0.00    +0.000 A 
ATOM      7  C   UNL     1       1.971   8.274  18.735  0.00  0.00    +0.000 A 
ATOM      8  C   UNL     1       1.516  10.534  17.738  0.00  0.00    +0.000 C 
ATOM      9  C   UNL     1       2.052  11.495  18.798  0.00  0.00    +0.000 C 
ATOM     10  C   UNL     1       2.549  12.755  18.121  0.00  0.00    +0.000 C 
ATOM     11  C   UNL     1       0.900  11.493  19.899  0.00  0.00    +0.000 C 
BRANCH  11  12
ATOM     12  C   UNL     1      -0.121  12.577  19.530  0.00  0.00    +0.000 C 
BRANCH  12  13
ATOM     13  C   UNL     1      -1.327  12.220  18.710  0.00  0.00    +0.000 C 
ATOM     14  O   UNL     1      -2.353  11.751  19.191  0.00  0.00    +0.000 OA
BRANCH  13  15
ATOM     15  O   UNL     1      -1.254  12.613  17.425  0.00  0.00    +0.000 OA
ATOM     16  H   UNL     1      -0.394  13.006  17.183  0.00  0.00    +0.000 HD
ENDBRANCH  13  15
ENDBRANCH  12  13
ENDBRANCH  11  12
ENDBRANCH   1   2
BRANCH   1  17
ATOM     17  C   UNL     1       3.475   5.929  18.886  0.00  0.00    +0.000 C 
BRANCH  17  18
ATOM     18  C   UNL     1       4.646   4.988  19.146  0.00  0.00    +0.000 C 
BRANCH  18  24
ATOM     19  C   UNL     1       7.939   5.829  19.038  0.00  0.00    +0.000 C 
ATOM     20  C   UNL     1       6.981   5.362  18.030  0.00  0.00    +0.000 A 
ATOM     21  O   UNL     1       7.467   5.194  16.761  0.00  0.00    +0.000 OA
ATOM     22  C   UNL     1       6.388   4.772  16.024  0.00  0.00    +0.000 A 
ATOM     23  N   UNL     1       5.284   4.632  16.740  0.00  0.00    +0.000 NA
ATOM     24  C   UNL     1       5.644   5.004  18.026  0.00  0.00    +0.000 A 
BRANCH  22  25
ATOM     25  C   UNL     1       6.614   4.568  14.592  0.00  0.00    +0.000 A 
ATOM     26  C   UNL     1       5.883   3.627  13.844  0.00  0.00    +0.000 A 
ATOM     27  C   UNL     1       6.133   3.446  12.478  0.00  0.00    +0.000 A 
ATOM     28  C   UNL     1       7.103   4.210  11.833  0.00  0.00    +0.000 A 
ATOM     29  C   UNL     1       7.822   5.159  12.555  0.00  0.00    +0.000 A 
ATOM     30  C   UNL     1       7.576   5.332  13.920  0.00  0.00    +0.000 A 
ENDBRANCH  22  25
ENDBRANCH  18  24
ENDBRANCH  17  18
ENDBRANCH   1  17
TORSDOF 8
ENDMDL
