MODEL 1
REMARK VINA RESULT:      -6.4      0.000      0.000
REMARK  Name = 
REMARK  5 active torsions:
REMARK  status: ('A' for Active; 'I' for Inactive)
REMARK    1  A    between atoms: C_1  and  C_2
REMARK    2  A    between atoms: C_5  and  C_6
REMARK    3  A    between atoms: N_7  and  C_8
REMARK    4  A    between atoms: C_8  and  C_9
REMARK    5  A    between atoms: C_15  and  O_16
REMARK                            x       y       z     vdW  Elec       q    Type
REMARK                         _______ _______ _______ _____ _____    ______ ____
ROOT
ATOM      1  C   UNL     1       8.664   9.425  17.907  0.00  0.00    +0.000 C 
ATOM      2  C   UNL     1       7.960   8.104  18.016  0.00  0.00    +0.000 A 
ATOM      3  C   UNL     1       6.966   7.736  17.101  0.00  0.00    +0.000 A 
ATOM      4  C   UNL     1       6.311   6.505  17.219  0.00  0.00    +0.000 A 
ATOM      5  C   UNL     1       6.654   5.631  18.254  0.00  0.00    +0.000 A 
ATOM      6  C   UNL     1       7.652   5.994  19.166  0.00  0.00    +0.000 A 
ATOM      7  C   UNL     1       8.298   7.223  19.051  0.00  0.00    +0.000 A 
ENDROOT
BRANCH   5   8
ATOM      8  C   UNL     1       5.926   4.348  18.362  0.00  0.00    +0.000 C 
ATOM      9  N   UNL     1       5.414   3.967  19.485  0.00  0.00    +0.000 NA
BRANCH   9  10
ATOM     10  C   UNL     1       4.680   2.692  19.438  0.00  0.00    +0.000 C 
BRANCH  10  11
ATOM     11  C   UNL     1       3.185   2.881  19.547  0.00  0.00    +0.000 A 
ATOM     12  C   UNL     1       2.327   2.271  18.627  0.00  0.00    +0.000 A 
ATOM     13  C   UNL     1       0.957   2.444  18.773  0.00  0.00    +0.000 A 
ATOM     14  N   UNL     1       0.390   3.164  19.764  0.00  0.00    +0.000 NA
ATOM     15  C   UNL     1       1.233   3.730  20.653  0.00  0.00    +0.000 A 
ATOM     16  C   UNL     1       2.613   3.613  20.593  0.00  0.00    +0.000 A 
ENDBRANCH  10  11
ENDBRANCH   9  10
ENDBRANCH   5   8
BRANCH   6  17
ATOM     17  O   UNL     1       8.041   5.185  20.199  0.00  0.00    +0.000 OA
ATOM     18  H   UNL     1       7.708   4.284  19.988  0.00  0.00    +0.000 HD
ENDBRANCH   6  17
TORSDOF 4
ENDMDL
MODEL 2
REMARK VINA RESULT:      -6.2      4.047      5.970
REMARK  Name = 
REMARK  5 active torsions:
REMARK  status: ('A' for Active; 'I' for Inactive)
REMARK    1  A    between atoms: C_1  and  C_2
REMARK    2  A    between atoms: C_5  and  C_6
REMARK    3  A    between atoms: N_7  and  C_8
REMARK    4  A    between atoms: C_8  and  C_9
REMARK    5  A    between atoms: C_15  and  O_16
REMARK                            x       y       z     vdW  Elec       q    Type
REMARK                         _______ _______ _______ _____ _____    ______ ____
ROOT
ATOM      1  C   UNL     1       0.324  10.561  20.345  0.00  0.00    +0.000 C 
ATOM      2  C   UNL     1       1.073   9.379  19.803  0.00  0.00    +0.000 A 
ATOM      3  C   UNL     1       1.557   9.369  18.488  0.00  0.00    +0.000 A 
ATOM      4  C   UNL     1       2.246   8.258  17.992  0.00  0.00    +0.000 A 
ATOM      5  C   UNL     1       2.459   7.147  18.814  0.00  0.00    +0.000 A 
ATOM      6  C   UNL     1       1.981   7.157  20.129  0.00  0.00    +0.000 A 
ATOM      7  C   UNL     1       1.291   8.262  20.620  0.00  0.00    +0.000 A 
ENDROOT
BRANCH   5   8
ATOM      8  C   UNL     1       3.171   5.981  18.249  0.00  0.00    +0.000 C 
ATOM      9  N   UNL     1       3.933   5.246  18.989  0.00  0.00    +0.000 NA
BRANCH   9  10
ATOM     10  C   UNL     1       4.546   4.093  18.307  0.00  0.00    +0.000 C 
BRANCH  10  11
ATOM     11  C   UNL     1       5.493   4.510  17.206  0.00  0.00    +0.000 A 
ATOM     12  C   UNL     1       6.525   5.416  17.467  0.00  0.00    +0.000 A 
ATOM     13  C   UNL     1       7.394   5.755  16.437  0.00  0.00    +0.000 A 
ATOM     14  N   UNL     1       7.313   5.253  15.187  0.00  0.00    +0.000 NA
ATOM     15  C   UNL     1       6.322   4.366  14.959  0.00  0.00    +0.000 A 
ATOM     16  C   UNL     1       5.408   3.963  15.921  0.00  0.00    +0.000 A 
ENDBRANCH  10  11
ENDBRANCH   9  10
ENDBRANCH   5   8
BRANCH   6  17
ATOM     17  O   UNL     1       2.160   6.107  20.989  0.00  0.00    +0.000 OA
ATOM     18  H   UNL     1       2.698   6.448  21.738  0.00  0.00    +0.000 HD
ENDBRANCH   6  17
TORSDOF 4
ENDMDL
MODEL 3
REMARK VINA RESULT:      -6.2      0.563      1.266
REMARK  Name = 
REMARK  5 active torsions:
REMARK  status: ('A' for Active; 'I' for Inactive)
REMARK    1  A    between atoms: C_1  and  C_2
REMARK    2  A    between atoms: C_5  and  C_6
REMARK    3  A    between atoms: N_7  and  C_8
REMARK    4  A    between atoms: C_8  and  C_9
REMARK    5  A    between atoms: C_15  and  O_16
REMARK                            x       y       z     vdW  Elec       q    Type
REMARK                         _______ _______ _______ _____ _____    ______ ____
ROOT
ATOM      1  C   UNL     1       8.059   9.113  17.456  0.00  0.00    +0.000 C 
ATOM      2  C   UNL     1       7.379   7.802  17.723  0.00  0.00    +0.000 A 
ATOM      3  C   UNL     1       6.165   7.476  17.105  0.00  0.00    +0.000 A 
ATOM      4  C   UNL     1       5.538   6.254  17.368  0.00  0.00    +0.000 A 
ATOM      5  C   UNL     1       6.128   5.345  18.252  0.00  0.00    +0.000 A 
ATOM      6  C   UNL     1       7.344   5.665  18.866  0.00  0.00    +0.000 A 
ATOM      7  C   UNL     1       7.964   6.885  18.607  0.00  0.00    +0.000 A 
ENDROOT
BRANCH   5   8
ATOM      8  C   UNL     1       5.425   4.073  18.524  0.00  0.00    +0.000 C 
ATOM      9  N   UNL     1       5.414   3.561  19.710  0.00  0.00    +0.000 NA
BRANCH   9  10
ATOM     10  C   UNL     1       4.642   2.315  19.848  0.00  0.00    +0.000 C 
BRANCH  10  11
ATOM     11  C   UNL     1       3.150   2.553  19.812  0.00  0.00    +0.000 A 
ATOM     12  C   UNL     1       2.521   3.251  20.847  0.00  0.00    +0.000 A 
ATOM     13  C   UNL     1       1.153   3.475  20.768  0.00  0.00    +0.000 A 
ATOM     14  N   UNL     1       0.380   3.066  19.740  0.00  0.00    +0.000 NA
ATOM     15  C   UNL     1       1.008   2.410  18.741  0.00  0.00    +0.000 A 
ATOM     16  C   UNL     1       2.368   2.141  18.728  0.00  0.00    +0.000 A 
ENDBRANCH  10  11
ENDBRANCH   9  10
ENDBRANCH   5   8
BRANCH   6  17
ATOM     17  O   UNL     1       7.979   4.821  19.736  0.00  0.00    +0.000 OA
ATOM     18  H   UNL     1       7.618   3.922  19.564  0.00  0.00    +0.000 HD
ENDBRANCH   6  17
TORSDOF 4
ENDMDL
MODEL 4
REMARK VINA RESULT:      -6.2      4.155      5.816
REMARK  Name = 
REMARK  5 active torsions:
REMARK  status: ('A' for Active; 'I' for Inactive)
REMARK    1  A    between atoms: C_1  and  C_2
REMARK    2  A    between atoms: C_5  and  C_6
REMARK    3  A    between atoms: N_7  and  C_8
REMARK    4  A    between atoms: C_8  and  C_9
REMARK    5  A    between atoms: C_15  and  O_16
REMARK                            x       y       z     vdW  Elec       q    Type
REMARK                         _______ _______ _______ _____ _____    ______ ____
ROOT
ATOM      1  C   UNL     1       0.139  10.824  19.470  0.00  0.00    +0.000 C 
ATOM      2  C   UNL     1       0.998   9.625  19.191  0.00  0.00    +0.000 A 
ATOM      3  C   UNL     1       1.619   9.453  17.947  0.00  0.00    +0.000 A 
ATOM      4  C   UNL     1       2.410   8.328  17.696  0.00  0.00    +0.000 A 
ATOM      5  C   UNL     1       2.590   7.367  18.695  0.00  0.00    +0.000 A 
ATOM      6  C   UNL     1       1.977   7.540  19.942  0.00  0.00    +0.000 A 
ATOM      7  C   UNL     1       1.184   8.658  20.188  0.00  0.00    +0.000 A 
ENDROOT
BRANCH   5   8
ATOM      8  C   UNL     1       3.415   6.179  18.388  0.00  0.00    +0.000 C 
ATOM      9  N   UNL     1       2.866   5.039  18.129  0.00  0.00    +0.000 NA
BRANCH   9  10
ATOM     10  C   UNL     1       3.804   3.952  17.798  0.00  0.00    +0.000 C 
BRANCH  10  11
ATOM     11  C   UNL     1       5.075   4.461  17.159  0.00  0.00    +0.000 A 
ATOM     12  C   UNL     1       5.126   4.705  15.783  0.00  0.00    +0.000 A 
ATOM     13  C   UNL     1       6.303   5.199  15.234  0.00  0.00    +0.000 A 
ATOM     14  N   UNL     1       7.413   5.471  15.951  0.00  0.00    +0.000 NA
ATOM     15  C   UNL     1       7.339   5.247  17.280  0.00  0.00    +0.000 A 
ATOM     16  C   UNL     1       6.210   4.759  17.921  0.00  0.00    +0.000 A 
ENDBRANCH  10  11
ENDBRANCH   9  10
ENDBRANCH   5   8
BRANCH   6  17
ATOM     17  O   UNL     1       2.116   6.643  20.966  0.00  0.00    +0.000 OA
ATOM     18  H   UNL     1       3.058   6.681  21.244  0.00  0.00    +0.000 HD
ENDBRANCH   6  17
TORSDOF 4
ENDMDL
MODEL 5
REMARK VINA RESULT:      -6.2      2.982      3.952
REMARK  Name = 
REMARK  5 active torsions:
REMARK  status: ('A' for Active; 'I' for Inactive)
REMARK    1  A    between atoms: C_1  and  C_2
REMARK    2  A    between atoms: C_5  and  C_6
REMARK    3  A    between atoms: N_7  and  C_8
REMARK    4  A    between atoms: C_8  and  C_9
REMARK    5  A    between atoms: C_15  and  O_16
REMARK                            x       y       z     vdW  Elec       q    Type
REMARK                         _______ _______ _______ _____ _____    ______ ____
ROOT
ATOM      1  C   UNL     1       7.149   4.013  12.085  0.00  0.00    +0.000 C 
ATOM      2  C   UNL     1       6.599   4.328  13.445  0.00  0.00    +0.000 A 
ATOM      3  C   UNL     1       5.374   3.800  13.871  0.00  0.00    +0.000 A 
ATOM      4  C   UNL     1       4.868   4.108  15.138  0.00  0.00    +0.000 A 
ATOM      5  C   UNL     1       5.593   4.945  15.992  0.00  0.00    +0.000 A 
ATOM      6  C   UNL     1       6.821   5.468  15.572  0.00  0.00    +0.000 A 
ATOM      7  C   UNL     1       7.320   5.165  14.307  0.00  0.00    +0.000 A 
ENDROOT
BRANCH   5   8
ATOM      8  C   UNL     1       5.018   5.267  17.316  0.00  0.00    +0.000 C 
ATOM      9  N   UNL     1       3.858   5.827  17.417  0.00  0.00    +0.000 NA
BRANCH   9  10
ATOM     10  C   UNL     1       3.389   6.052  18.795  0.00  0.00    +0.000 C 
BRANCH  10  11
ATOM     11  C   UNL     1       2.548   4.908  19.312  0.00  0.00    +0.000 A 
ATOM     12  C   UNL     1       2.380   4.719  20.687  0.00  0.00    +0.000 A 
ATOM     13  C   UNL     1       1.578   3.674  21.126  0.00  0.00    +0.000 A 
ATOM     14  N   UNL     1       0.932   2.823  20.303  0.00  0.00    +0.000 NA
ATOM     15  C   UNL     1       1.090   3.032  18.978  0.00  0.00    +0.000 A 
ATOM     16  C   UNL     1       1.868   4.048  18.444  0.00  0.00    +0.000 A 
ENDBRANCH  10  11
ENDBRANCH   9  10
ENDBRANCH   5   8
BRANCH   6  17
ATOM     17  O   UNL     1       7.584   6.288  16.358  0.00  0.00    +0.000 OA
ATOM     18  H   UNL     1       8.295   6.646  15.779  0.00  0.00    +0.000 HD
ENDBRANCH   6  17
TORSDOF 4
ENDMDL
MODEL 6
REMARK VINA RESULT:      -6.1      0.936      1.288
REMARK  Name = 
REMARK  5 active torsions:
REMARK  status: ('A' for Active; 'I' for Inactive)
REMARK    1  A    between atoms: C_1  and  C_2
REMARK    2  A    between atoms: C_5  and  C_6
REMARK    3  A    between atoms: N_7  and  C_8
REMARK    4  A    between atoms: C_8  and  C_9
REMARK    5  A    between atoms: C_15  and  O_16
REMARK                            x       y       z     vdW  Elec       q    Type
REMARK                         _______ _______ _______ _____ _____    ______ ____
ROOT
ATOM      1  C   UNL     1       8.550   9.410  17.711  0.00  0.00    +0.000 C 
ATOM      2  C   UNL     1       7.807   8.121  17.908  0.00  0.00    +0.000 A 
ATOM      3  C   UNL     1       6.653   7.829  17.169  0.00  0.00    +0.000 A 
ATOM      4  C   UNL     1       5.966   6.628  17.368  0.00  0.00    +0.000 A 
ATOM      5  C   UNL     1       6.435   5.705  18.308  0.00  0.00    +0.000 A 
ATOM      6  C   UNL     1       7.591   5.991  19.042  0.00  0.00    +0.000 A 
ATOM      7  C   UNL     1       8.272   7.191  18.848  0.00  0.00    +0.000 A 
ENDROOT
BRANCH   5   8
ATOM      8  C   UNL     1       5.671   4.455  18.508  0.00  0.00    +0.000 C 
ATOM      9  N   UNL     1       4.742   4.105  17.681  0.00  0.00    +0.000 NA
BRANCH   9  10
ATOM     10  C   UNL     1       4.092   2.817  17.976  0.00  0.00    +0.000 C 
BRANCH  10  11
ATOM     11  C   UNL     1       3.086   2.922  19.100  0.00  0.00    +0.000 A 
ATOM     12  C   UNL     1       3.449   2.584  20.407  0.00  0.00    +0.000 A 
ATOM     13  C   UNL     1       2.507   2.719  21.418  0.00  0.00    +0.000 A 
ATOM     14  N   UNL     1       1.251   3.170  21.223  0.00  0.00    +0.000 NA
ATOM     15  C   UNL     1       0.924   3.509  19.958  0.00  0.00    +0.000 A 
ATOM     16  C   UNL     1       1.795   3.413  18.883  0.00  0.00    +0.000 A 
ENDBRANCH  10  11
ENDBRANCH   9  10
ENDBRANCH   5   8
BRANCH   6  17
ATOM     17  O   UNL     1       8.109   5.131  19.973  0.00  0.00    +0.000 OA
ATOM     18  H   UNL     1       7.717   5.387  20.838  0.00  0.00    +0.000 HD
ENDBRANCH   6  17
TORSDOF 4
ENDMDL
MODEL 7
REMARK VINA RESULT:      -6.1      3.485      6.735
REMARK  Name = 
REMARK  5 active torsions:
REMARK  status: ('A' for Active; 'I' for Inactive)
REMARK    1  A    between atoms: C_1  and  C_2
REMARK    2  A    between atoms: C_5  and  C_6
REMARK    3  A    between atoms: N_7  and  C_8
REMARK    4  A    between atoms: C_8  and  C_9
REMARK    5  A    between atoms: C_15  and  O_16
REMARK                            x       y       z     vdW  Elec       q    Type
REMARK                         _______ _______ _______ _____ _____    ______ ____
ROOT
ATOM      1  C   UNL     1       1.379   2.979  21.296  0.00  0.00    +0.000 C 
ATOM      2  C   UNL     1       2.325   3.609  20.316  0.00  0.00    +0.000 A 
ATOM      3  C   UNL     1       2.602   4.982  20.358  0.00  0.00    +0.000 A 
ATOM      4  C   UNL     1       3.480   5.559  19.434  0.00  0.00    +0.000 A 
ATOM      5  C   UNL     1       4.091   4.761  18.463  0.00  0.00    +0.000 A 
ATOM      6  C   UNL     1       3.821   3.388  18.424  0.00  0.00    +0.000 A 
ATOM      7  C   UNL     1       2.942   2.816  19.341  0.00  0.00    +0.000 A 
ENDROOT
BRANCH   5   8
ATOM      8  C   UNL     1       4.996   5.408  17.488  0.00  0.00    +0.000 C 
ATOM      9  N   UNL     1       6.026   4.784  17.022  0.00  0.00    +0.000 NA
BRANCH   9  10
ATOM     10  C   UNL     1       6.815   5.531  16.028  0.00  0.00    +0.000 C 
BRANCH  10  11
ATOM     11  C   UNL     1       6.725   4.926  14.646  0.00  0.00    +0.000 A 
ATOM     12  C   UNL     1       7.664   5.259  13.666  0.00  0.00    +0.000 A 
ATOM     13  C   UNL     1       7.567   4.662  12.416  0.00  0.00    +0.000 A 
ATOM     14  N   UNL     1       6.618   3.763  12.082  0.00  0.00    +0.000 NA
ATOM     15  C   UNL     1       5.731   3.439  13.046  0.00  0.00    +0.000 A 
ATOM     16  C   UNL     1       5.748   3.978  14.324  0.00  0.00    +0.000 A 
ENDBRANCH  10  11
ENDBRANCH   9  10
ENDBRANCH   5   8
BRANCH   6  17
ATOM     17  O   UNL     1       4.389   2.548  17.504  0.00  0.00    +0.000 OA
ATOM     18  H   UNL     1       4.872   1.860  18.016  0.00  0.00    +0.000 HD
ENDBRANCH   6  17
TORSDOF 4
ENDMDL
MODEL 8
REMARK VINA RESULT:      -6.1      2.899      3.766
REMARK  Name = 
REMARK  5 active torsions:
REMARK  status: ('A' for Active; 'I' for Inactive)
REMARK    1  A    between atoms: C_1  and  C_2
REMARK    2  A    between atoms: C_5  and  C_6
REMARK    3  A    between atoms: N_7  and  C_8
REMARK    4  A    between atoms: C_8  and  C_9
REMARK    5  A    between atoms: C_15  and  O_16
REMARK                            x       y       z     vdW  Elec       q    Type
REMARK                         _______ _______ _______ _____ _____    ______ ____
ROOT
ATOM      1  C   UNL     1       7.172   3.888  12.026  0.00  0.00    +0.000 C 
ATOM      2  C   UNL     1       6.575   4.241  13.358  0.00  0.00    +0.000 A 
ATOM      3  C   UNL     1       5.296   3.799  13.718  0.00  0.00    +0.000 A 
ATOM      4  C   UNL     1       4.748   4.141  14.958  0.00  0.00    +0.000 A 
ATOM      5  C   UNL     1       5.483   4.926  15.851  0.00  0.00    +0.000 A 
ATOM      6  C   UNL     1       6.765   5.363  15.496  0.00  0.00    +0.000 A 
ATOM      7  C   UNL     1       7.306   5.027  14.258  0.00  0.00    +0.000 A 
ENDROOT
BRANCH   5   8
ATOM      8  C   UNL     1       4.864   5.287  17.145  0.00  0.00    +0.000 C 
ATOM      9  N   UNL     1       5.316   4.805  18.255  0.00  0.00    +0.000 NA
BRANCH   9  10
ATOM     10  C   UNL     1       4.633   5.282  19.469  0.00  0.00    +0.000 C 
BRANCH  10  11
ATOM     11  C   UNL     1       3.373   4.502  19.767  0.00  0.00    +0.000 A 
ATOM     12  C   UNL     1       3.366   3.107  19.675  0.00  0.00    +0.000 A 
ATOM     13  C   UNL     1       2.198   2.422  19.983  0.00  0.00    +0.000 A 
ATOM     14  N   UNL     1       1.056   3.021  20.380  0.00  0.00    +0.000 NA
ATOM     15  C   UNL     1       1.087   4.367  20.482  0.00  0.00    +0.000 A 
ATOM     16  C   UNL     1       2.205   5.138  20.199  0.00  0.00    +0.000 A 
ENDBRANCH  10  11
ENDBRANCH   9  10
ENDBRANCH   5   8
BRANCH   6  17
ATOM     17  O   UNL     1       7.541   6.128  16.323  0.00  0.00    +0.000 OA
ATOM     18  H   UNL     1       8.046   6.742  15.743  0.00  0.00    +0.000 HD
ENDBRANCH   6  17
TORSDOF 4
ENDMDL
MODEL 9
REMARK VINA RESULT:      -6.1      4.361      6.156
REMARK  Name = 
REMARK  5 active torsions:
REMARK  status: ('A' for Active; 'I' for Inactive)
REMARK    1  A    between atoms: C_1  and  C_2
REMARK    2  A    between atoms: C_5  and  C_6
REMARK    3  A    between atoms: N_7  and  C_8
REMARK    4  A    between atoms: C_8  and  C_9
REMARK    5  A    between atoms: C_15  and  O_16
REMARK                            x       y       z     vdW  Elec       q    Type
REMARK                         _______ _______ _______ _____ _____    ______ ____
ROOT
ATOM      1  C   UNL     1      -0.087  11.252  19.956  0.00  0.00    +0.000 C 
ATOM      2  C   UNL     1       0.663   9.959  19.812  0.00  0.00    +0.000 A 
ATOM      3  C   UNL     1       0.698   9.023  20.854  0.00  0.00    +0.000 A 
ATOM      4  C   UNL     1       1.407   7.826  20.711  0.00  0.00    +0.000 A 
ATOM      5  C   UNL     1       2.083   7.557  19.517  0.00  0.00    +0.000 A 
ATOM      6  C   UNL     1       2.045   8.487  18.473  0.00  0.00    +0.000 A 
ATOM      7  C   UNL     1       1.343   9.682  18.619  0.00  0.00    +0.000 A 
ENDROOT
BRANCH   5   8
ATOM      8  C   UNL     1       2.841   6.291  19.409  0.00  0.00    +0.000 C 
ATOM      9  N   UNL     1       2.932   5.666  18.283  0.00  0.00    +0.000 NA
BRANCH   9  10
ATOM     10  C   UNL     1       3.752   4.443  18.309  0.00  0.00    +0.000 C 
BRANCH  10  11
ATOM     11  C   UNL     1       5.037   4.592  17.527  0.00  0.00    +0.000 A 
ATOM     12  C   UNL     1       5.006   4.740  16.138  0.00  0.00    +0.000 A 
ATOM     13  C   UNL     1       6.205   4.902  15.455  0.00  0.00    +0.000 A 
ATOM     14  N   UNL     1       7.414   4.935  16.053  0.00  0.00    +0.000 NA
ATOM     15  C   UNL     1       7.423   4.809  17.397  0.00  0.00    +0.000 A 
ATOM     16  C   UNL     1       6.280   4.646  18.166  0.00  0.00    +0.000 A 
ENDBRANCH  10  11
ENDBRANCH   9  10
ENDBRANCH   5   8
BRANCH   6  17
ATOM     17  O   UNL     1       2.679   8.285  17.277  0.00  0.00    +0.000 OA
ATOM     18  H   UNL     1       3.078   9.148  17.024  0.00  0.00    +0.000 HD
ENDBRANCH   6  17
TORSDOF 4
ENDMDL
