MODEL 1
REMARK VINA RESULT:      -8.8      0.000      0.000
REMARK  Name = 
REMARK  5 active torsions:
REMARK  status: ('A' for Active; 'I' for Inactive)
REMARK    1  A    between atoms: C_2  and  O_3
REMARK    2  A    between atoms: C_2  and  C_4
REMARK    3  A    between atoms: C_5  and  C_6
REMARK    4  A    between atoms: C_9  and  C_10
REMARK    5  A    between atoms: C_17  and  C_18
REMARK                            x       y       z     vdW  Elec       q    Type
REMARK                         _______ _______ _______ _____ _____    ______ ____
ROOT
ATOM      1  C   UNL     1       5.333   4.956  15.966  0.00  0.00    +0.000 A 
ATOM      2  C   UNL     1       5.265   3.614  16.301  0.00  0.00    +0.000 A 
ATOM      3  N   UNL     1       4.503   3.148  17.324  0.00  0.00    +0.000 NA
ATOM      4  C   UNL     1       3.780   4.070  18.030  0.00  0.00    +0.000 A 
ATOM      5  C   UNL     1       3.811   5.435  17.665  0.00  0.00    +0.000 A 
ATOM      6  N   UNL     1       4.607   5.872  16.642  0.00  0.00    +0.000 NA
ENDROOT
BRANCH   4   7
ATOM      7  C   UNL     1       2.965   3.493  19.126  0.00  0.00    +0.000 A 
ATOM      8  C   UNL     1       3.538   3.018  20.324  0.00  0.00    +0.000 A 
ATOM      9  C   UNL     1       2.746   2.705  21.432  0.00  0.00    +0.000 A 
ATOM     10  C   UNL     1       1.365   2.771  21.327  0.00  0.00    +0.000 A 
ATOM     11  F   UNL     1       0.607   2.507  22.398  0.00  0.00    +0.000 F 
ATOM     12  C   UNL     1       0.763   3.114  20.125  0.00  0.00    +0.000 A 
ATOM     13  C   UNL     1       1.559   3.473  19.032  0.00  0.00    +0.000 A 
ENDBRANCH   4   7
BRANCH   5  14
ATOM     14  C   UNL     1       3.028   6.537  18.277  0.00  0.00    +0.000 A 
ATOM     15  C   UNL     1       2.676   7.666  17.508  0.00  0.00    +0.000 A 
ATOM     16  C   UNL     1       1.985   8.745  18.068  0.00  0.00    +0.000 A 
ATOM     17  C   UNL     1       1.653   8.715  19.414  0.00  0.00    +0.000 A 
ATOM     18  F   UNL     1       1.028   9.764  19.964  0.00  0.00    +0.000 F 
ATOM     19  C   UNL     1       1.956   7.611  20.195  0.00  0.00    +0.000 A 
ATOM     20  C   UNL     1       2.601   6.513  19.619  0.00  0.00    +0.000 A 
ENDBRANCH   5  14
BRANCH   1  22
ATOM     21  C   UNL     1       6.955   4.645  14.149  0.00  0.00    +0.000 C 
ATOM     22  C   UNL     1       6.172   5.463  14.875  0.00  0.00    +0.000 C 
BRANCH  21  24
ATOM     23  O   UNL     1       8.666   6.003  13.193  0.00  0.00    +0.000 OA
ATOM     24  C   UNL     1       7.777   5.180  13.052  0.00  0.00    +0.000 C 
BRANCH  24  25
ATOM     25  O   UNL     1       7.429   4.660  11.858  0.00  0.00    +0.000 OA
ATOM     26  H   UNL     1       7.138   5.308  11.187  0.00  0.00    +0.000 HD
ENDBRANCH  24  25
ENDBRANCH  21  24
ENDBRANCH   1  22
TORSDOF 5
ENDMDL
MODEL 2
REMARK VINA RESULT:      -8.7      0.145      1.163
REMARK  Name = 
REMARK  5 active torsions:
REMARK  status: ('A' for Active; 'I' for Inactive)
REMARK    1  A    between atoms: C_2  and  O_3
REMARK    2  A    between atoms: C_2  and  C_4
REMARK    3  A    between atoms: C_5  and  C_6
REMARK    4  A    between atoms: C_9  and  C_10
REMARK    5  A    between atoms: C_17  and  C_18
REMARK                            x       y       z     vdW  Elec       q    Type
REMARK                         _______ _______ _______ _____ _____    ______ ____
ROOT
ATOM      1  C   UNL     1       5.237   4.924  15.895  0.00  0.00    +0.000 A 
ATOM      2  C   UNL     1       5.136   3.579  16.211  0.00  0.00    +0.000 A 
ATOM      3  N   UNL     1       4.395   3.121  17.253  0.00  0.00    +0.000 NA
ATOM      4  C   UNL     1       3.727   4.055  17.997  0.00  0.00    +0.000 A 
ATOM      5  C   UNL     1       3.790   5.424  17.652  0.00  0.00    +0.000 A 
ATOM      6  N   UNL     1       4.565   5.852  16.610  0.00  0.00    +0.000 NA
ENDROOT
BRANCH   4   7
ATOM      7  C   UNL     1       2.931   3.487  19.112  0.00  0.00    +0.000 A 
ATOM      8  C   UNL     1       3.524   3.021  20.303  0.00  0.00    +0.000 A 
ATOM      9  C   UNL     1       2.752   2.717  21.427  0.00  0.00    +0.000 A 
ATOM     10  C   UNL     1       1.370   2.782  21.346  0.00  0.00    +0.000 A 
ATOM     11  F   UNL     1       0.630   2.527  22.432  0.00  0.00    +0.000 F 
ATOM     12  C   UNL     1       0.746   3.117  20.152  0.00  0.00    +0.000 A 
ATOM     13  C   UNL     1       1.523   3.468  19.043  0.00  0.00    +0.000 A 
ENDBRANCH   4   7
BRANCH   5  14
ATOM     14  C   UNL     1       3.066   6.541  18.308  0.00  0.00    +0.000 A 
ATOM     15  C   UNL     1       2.712   6.451  19.671  0.00  0.00    +0.000 A 
ATOM     16  C   UNL     1       1.984   7.461  20.305  0.00  0.00    +0.000 A 
ATOM     17  C   UNL     1       1.583   8.571  19.576  0.00  0.00    +0.000 A 
ATOM     18  F   UNL     1       0.849   9.522  20.168  0.00  0.00    +0.000 F 
ATOM     19  C   UNL     1       1.936   8.709  18.243  0.00  0.00    +0.000 A 
ATOM     20  C   UNL     1       2.708   7.720  17.627  0.00  0.00    +0.000 A 
ENDBRANCH   5  14
BRANCH   1  22
ATOM     21  C   UNL     1       6.941   4.631  14.150  0.00  0.00    +0.000 C 
ATOM     22  C   UNL     1       6.055   5.421  14.783  0.00  0.00    +0.000 C 
BRANCH  21  24
ATOM     23  O   UNL     1       7.546   4.879  11.858  0.00  0.00    +0.000 OA
ATOM     24  C   UNL     1       7.739   5.154  13.030  0.00  0.00    +0.000 C 
BRANCH  24  25
ATOM     25  O   UNL     1       8.724   5.973  13.449  0.00  0.00    +0.000 OA
ATOM     26  H   UNL     1       8.428   6.791  13.895  0.00  0.00    +0.000 HD
ENDBRANCH  24  25
ENDBRANCH  21  24
ENDBRANCH   1  22
TORSDOF 5
ENDMDL
MODEL 3
REMARK VINA RESULT:      -8.6      0.493      1.433
REMARK  Name = 
REMARK  5 active torsions:
REMARK  status: ('A' for Active; 'I' for Inactive)
REMARK    1  A    between atoms: C_2  and  O_3
REMARK    2  A    between atoms: C_2  and  C_4
REMARK    3  A    between atoms: C_5  and  C_6
REMARK    4  A    between atoms: C_9  and  C_10
REMARK    5  A    between atoms: C_17  and  C_18
REMARK                            x       y       z     vdW  Elec       q    Type
REMARK                         _______ _______ _______ _____ _____    ______ ____
ROOT
ATOM      1  C   UNL     1       5.132   5.207  16.070  0.00  0.00    +0.000 A 
ATOM      2  C   UNL     1       5.018   3.899  16.511  0.00  0.00    +0.000 A 
ATOM      3  N   UNL     1       4.238   3.542  17.564  0.00  0.00    +0.000 NA
ATOM      4  C   UNL     1       3.545   4.542  18.190  0.00  0.00    +0.000 A 
ATOM      5  C   UNL     1       3.622   5.872  17.717  0.00  0.00    +0.000 A 
ATOM      6  N   UNL     1       4.436   6.198  16.667  0.00  0.00    +0.000 NA
ENDROOT
BRANCH   4   7
ATOM      7  C   UNL     1       2.707   4.082  19.324  0.00  0.00    +0.000 A 
ATOM      8  C   UNL     1       1.364   3.686  19.159  0.00  0.00    +0.000 A 
ATOM      9  C   UNL     1       0.670   3.033  20.181  0.00  0.00    +0.000 A 
ATOM     10  C   UNL     1       1.277   2.852  21.414  0.00  0.00    +0.000 A 
ATOM     11  F   UNL     1       0.628   2.195  22.382  0.00  0.00    +0.000 F 
ATOM     12  C   UNL     1       2.554   3.340  21.652  0.00  0.00    +0.000 A 
ATOM     13  C   UNL     1       3.264   3.951  20.612  0.00  0.00    +0.000 A 
ENDBRANCH   4   7
BRANCH   5  14
ATOM     14  C   UNL     1       2.876   7.045  18.235  0.00  0.00    +0.000 A 
ATOM     15  C   UNL     1       2.440   7.070  19.577  0.00  0.00    +0.000 A 
ATOM     16  C   UNL     1       1.690   8.135  20.081  0.00  0.00    +0.000 A 
ATOM     17  C   UNL     1       1.348   9.185  19.242  0.00  0.00    +0.000 A 
ATOM     18  F   UNL     1       0.594  10.188  19.709  0.00  0.00    +0.000 F 
ATOM     19  C   UNL     1       1.783   9.211  17.926  0.00  0.00    +0.000 A 
ATOM     20  C   UNL     1       2.576   8.167  17.440  0.00  0.00    +0.000 A 
ENDBRANCH   5  14
BRANCH   1  22
ATOM     21  C   UNL     1       6.886   4.745  14.414  0.00  0.00    +0.000 C 
ATOM     22  C   UNL     1       5.991   5.597  14.947  0.00  0.00    +0.000 C 
BRANCH  21  24
ATOM     23  O   UNL     1       8.660   5.938  13.360  0.00  0.00    +0.000 OA
ATOM     24  C   UNL     1       7.725   5.159  13.279  0.00  0.00    +0.000 C 
BRANCH  24  25
ATOM     25  O   UNL     1       7.337   4.582  12.125  0.00  0.00    +0.000 OA
ATOM     26  H   UNL     1       6.474   4.881  11.776  0.00  0.00    +0.000 HD
ENDBRANCH  24  25
ENDBRANCH  21  24
ENDBRANCH   1  22
TORSDOF 5
ENDMDL
MODEL 4
REMARK VINA RESULT:      -8.3      1.241      4.398
REMARK  Name = 
REMARK  5 active torsions:
REMARK  status: ('A' for Active; 'I' for Inactive)
REMARK    1  A    between atoms: C_2  and  O_3
REMARK    2  A    between atoms: C_2  and  C_4
REMARK    3  A    between atoms: C_5  and  C_6
REMARK    4  A    between atoms: C_9  and  C_10
REMARK    5  A    between atoms: C_17  and  C_18
REMARK                            x       y       z     vdW  Elec       q    Type
REMARK                         _______ _______ _______ _____ _____    ______ ____
ROOT
ATOM      1  C   UNL     1       5.278   5.079  15.469  0.00  0.00    +0.000 A 
ATOM      2  C   UNL     1       5.239   6.463  15.459  0.00  0.00    +0.000 A 
ATOM      3  N   UNL     1       4.504   7.185  16.344  0.00  0.00    +0.000 NA
ATOM      4  C   UNL     1       3.789   6.484  17.275  0.00  0.00    +0.000 A 
ATOM      5  C   UNL     1       3.859   5.073  17.318  0.00  0.00    +0.000 A 
ATOM      6  N   UNL     1       4.592   4.377  16.397  0.00  0.00    +0.000 NA
ENDROOT
BRANCH   4   7
ATOM      7  C   UNL     1       3.017   7.334  18.214  0.00  0.00    +0.000 A 
ATOM      8  C   UNL     1       2.427   8.552  17.820  0.00  0.00    +0.000 A 
ATOM      9  C   UNL     1       1.510   9.213  18.641  0.00  0.00    +0.000 A 
ATOM     10  C   UNL     1       1.243   8.716  19.908  0.00  0.00    +0.000 A 
ATOM     11  F   UNL     1       0.338   9.327  20.681  0.00  0.00    +0.000 F 
ATOM     12  C   UNL     1       1.900   7.587  20.378  0.00  0.00    +0.000 A 
ATOM     13  C   UNL     1       2.781   6.901  19.535  0.00  0.00    +0.000 A 
ENDBRANCH   4   7
BRANCH   5  14
ATOM     14  C   UNL     1       3.209   4.180  18.309  0.00  0.00    +0.000 A 
ATOM     15  C   UNL     1       1.836   3.877  18.194  0.00  0.00    +0.000 A 
ATOM     16  C   UNL     1       1.181   3.082  19.139  0.00  0.00    +0.000 A 
ATOM     17  C   UNL     1       1.890   2.593  20.225  0.00  0.00    +0.000 A 
ATOM     18  F   UNL     1       1.259   1.866  21.155  0.00  0.00    +0.000 F 
ATOM     19  C   UNL     1       3.247   2.844  20.357  0.00  0.00    +0.000 A 
ATOM     20  C   UNL     1       3.909   3.597  19.383  0.00  0.00    +0.000 A 
ENDBRANCH   5  14
BRANCH   1  22
ATOM     21  C   UNL     1       5.576   4.021  13.273  0.00  0.00    +0.000 C 
ATOM     22  C   UNL     1       6.054   4.297  14.500  0.00  0.00    +0.000 C 
BRANCH  21  24
ATOM     23  O   UNL     1       7.410   3.645  11.797  0.00  0.00    +0.000 OA
ATOM     24  C   UNL     1       6.382   3.245  12.317  0.00  0.00    +0.000 C 
BRANCH  24  25
ATOM     25  O   UNL     1       5.846   2.033  12.069  0.00  0.00    +0.000 OA
ATOM     26  H   UNL     1       6.488   1.303  11.969  0.00  0.00    +0.000 HD
ENDBRANCH  24  25
ENDBRANCH  21  24
ENDBRANCH   1  22
TORSDOF 5
ENDMDL
MODEL 5
REMARK VINA RESULT:      -8.1      1.263      4.476
REMARK  Name = 
REMARK  5 active torsions:
REMARK  status: ('A' for Active; 'I' for Inactive)
REMARK    1  A    between atoms: C_2  and  O_3
REMARK    2  A    between atoms: C_2  and  C_4
REMARK    3  A    between atoms: C_5  and  C_6
REMARK    4  A    between atoms: C_9  and  C_10
REMARK    5  A    between atoms: C_17  and  C_18
REMARK                            x       y       z     vdW  Elec       q    Type
REMARK                         _______ _______ _______ _____ _____    ______ ____
ROOT
ATOM      1  C   UNL     1       4.734   5.575  16.649  0.00  0.00    +0.000 A 
ATOM      2  C   UNL     1       4.569   6.947  16.567  0.00  0.00    +0.000 A 
ATOM      3  N   UNL     1       3.718   7.636  17.371  0.00  0.00    +0.000 NA
ATOM      4  C   UNL     1       3.015   6.912  18.295  0.00  0.00    +0.000 A 
ATOM      5  C   UNL     1       3.212   5.518  18.413  0.00  0.00    +0.000 A 
ATOM      6  N   UNL     1       4.060   4.854  17.571  0.00  0.00    +0.000 NA
ENDROOT
BRANCH   4   7
ATOM      7  C   UNL     1       2.112   7.727  19.144  0.00  0.00    +0.000 A 
ATOM      8  C   UNL     1       1.886   7.432  20.504  0.00  0.00    +0.000 A 
ATOM      9  C   UNL     1       1.233   8.338  21.344  0.00  0.00    +0.000 A 
ATOM     10  C   UNL     1       0.712   9.509  20.815  0.00  0.00    +0.000 A 
ATOM     11  F   UNL     1       0.119  10.394  21.624  0.00  0.00    +0.000 F 
ATOM     12  C   UNL     1       0.807   9.774  19.456  0.00  0.00    +0.000 A 
ATOM     13  C   UNL     1       1.504   8.888  18.627  0.00  0.00    +0.000 A 
ENDBRANCH   4   7
BRANCH   5  14
ATOM     14  C   UNL     1       2.587   4.612  19.409  0.00  0.00    +0.000 A 
ATOM     15  C   UNL     1       1.337   4.017  19.138  0.00  0.00    +0.000 A 
ATOM     16  C   UNL     1       0.698   3.202  20.075  0.00  0.00    +0.000 A 
ATOM     17  C   UNL     1       1.294   2.986  21.309  0.00  0.00    +0.000 A 
ATOM     18  F   UNL     1       0.665   2.240  22.226  0.00  0.00    +0.000 F 
ATOM     19  C   UNL     1       2.535   3.529  21.601  0.00  0.00    +0.000 A 
ATOM     20  C   UNL     1       3.194   4.302  20.641  0.00  0.00    +0.000 A 
ENDBRANCH   5  14
BRANCH   1  22
ATOM     21  C   UNL     1       5.795   5.162  14.473  0.00  0.00    +0.000 C 
ATOM     22  C   UNL     1       5.636   4.827  15.766  0.00  0.00    +0.000 C 
BRANCH  21  24
ATOM     23  O   UNL     1       7.652   4.890  13.003  0.00  0.00    +0.000 OA
ATOM     24  C   UNL     1       6.716   4.402  13.614  0.00  0.00    +0.000 C 
BRANCH  24  25
ATOM     25  O   UNL     1       6.402   3.091  13.569  0.00  0.00    +0.000 OA
ATOM     26  H   UNL     1       6.107   2.702  14.415  0.00  0.00    +0.000 HD
ENDBRANCH  24  25
ENDBRANCH  21  24
ENDBRANCH   1  22
TORSDOF 5
ENDMDL
MODEL 6
REMARK VINA RESULT:      -8.1      1.357      4.664
REMARK  Name = 
REMARK  5 active torsions:
REMARK  status: ('A' for Active; 'I' for Inactive)
REMARK    1  A    between atoms: C_2  and  O_3
REMARK    2  A    between atoms: C_2  and  C_4
REMARK    3  A    between atoms: C_5  and  C_6
REMARK    4  A    between atoms: C_9  and  C_10
REMARK    5  A    between atoms: C_17  and  C_18
REMARK                            x       y       z     vdW  Elec       q    Type
REMARK                         _______ _______ _______ _____ _____    ______ ____
ROOT
ATOM      1  C   UNL     1       4.676   5.836  16.860  0.00  0.00    +0.000 A 
ATOM      2  C   UNL     1       4.491   7.206  16.779  0.00  0.00    +0.000 A 
ATOM      3  N   UNL     1       3.590   7.873  17.546  0.00  0.00    +0.000 NA
ATOM      4  C   UNL     1       2.855   7.131  18.428  0.00  0.00    +0.000 A 
ATOM      5  C   UNL     1       3.071   5.739  18.547  0.00  0.00    +0.000 A 
ATOM      6  N   UNL     1       3.971   5.096  17.743  0.00  0.00    +0.000 NA
ENDROOT
BRANCH   4   7
ATOM      7  C   UNL     1       1.898   7.923  19.239  0.00  0.00    +0.000 A 
ATOM      8  C   UNL     1       1.684   7.675  20.610  0.00  0.00    +0.000 A 
ATOM      9  C   UNL     1       0.969   8.574  21.406  0.00  0.00    +0.000 A 
ATOM     10  C   UNL     1       0.377   9.684  20.823  0.00  0.00    +0.000 A 
ATOM     11  F   UNL     1      -0.276  10.565  21.590  0.00  0.00    +0.000 F 
ATOM     12  C   UNL     1       0.462   9.894  19.454  0.00  0.00    +0.000 A 
ATOM     13  C   UNL     1       1.218   9.018  18.668  0.00  0.00    +0.000 A 
ENDBRANCH   4   7
BRANCH   5  14
ATOM     14  C   UNL     1       2.414   4.815  19.505  0.00  0.00    +0.000 A 
ATOM     15  C   UNL     1       2.931   4.665  20.809  0.00  0.00    +0.000 A 
ATOM     16  C   UNL     1       2.369   3.765  21.718  0.00  0.00    +0.000 A 
ATOM     17  C   UNL     1       1.289   2.987  21.327  0.00  0.00    +0.000 A 
ATOM     18  F   UNL     1       0.773   2.094  22.180  0.00  0.00    +0.000 F 
ATOM     19  C   UNL     1       0.735   3.127  20.064  0.00  0.00    +0.000 A 
ATOM     20  C   UNL     1       1.269   4.065  19.176  0.00  0.00    +0.000 A 
ENDBRANCH   5  14
BRANCH   1  22
ATOM     21  C   UNL     1       5.750   5.366  14.702  0.00  0.00    +0.000 C 
ATOM     22  C   UNL     1       5.633   5.111  16.017  0.00  0.00    +0.000 C 
BRANCH  21  24
ATOM     23  O   UNL     1       6.495   3.584  13.305  0.00  0.00    +0.000 OA
ATOM     24  C   UNL     1       6.728   4.632  13.883  0.00  0.00    +0.000 C 
BRANCH  24  25
ATOM     25  O   UNL     1       7.926   5.249  13.851  0.00  0.00    +0.000 OA
ATOM     26  H   UNL     1       7.902   6.219  13.975  0.00  0.00    +0.000 HD
ENDBRANCH  24  25
ENDBRANCH  21  24
ENDBRANCH   1  22
TORSDOF 5
ENDMDL
MODEL 7
REMARK VINA RESULT:      -8.0      1.333      4.564
REMARK  Name = 
REMARK  5 active torsions:
REMARK  status: ('A' for Active; 'I' for Inactive)
REMARK    1  A    between atoms: C_2  and  O_3
REMARK    2  A    between atoms: C_2  and  C_4
REMARK    3  A    between atoms: C_5  and  C_6
REMARK    4  A    between atoms: C_9  and  C_10
REMARK    5  A    between atoms: C_17  and  C_18
REMARK                            x       y       z     vdW  Elec       q    Type
REMARK                         _______ _______ _______ _____ _____    ______ ____
ROOT
ATOM      1  C   UNL     1       4.675   5.585  16.643  0.00  0.00    +0.000 A 
ATOM      2  C   UNL     1       4.593   6.965  16.562  0.00  0.00    +0.000 A 
ATOM      3  N   UNL     1       3.782   7.702  17.365  0.00  0.00    +0.000 NA
ATOM      4  C   UNL     1       3.034   7.022  18.286  0.00  0.00    +0.000 A 
ATOM      5  C   UNL     1       3.147   5.618  18.403  0.00  0.00    +0.000 A 
ATOM      6  N   UNL     1       3.956   4.905  17.562  0.00  0.00    +0.000 NA
ENDROOT
BRANCH   4   7
ATOM      7  C   UNL     1       2.180   7.888  19.134  0.00  0.00    +0.000 A 
ATOM      8  C   UNL     1       1.531   9.034  18.631  0.00  0.00    +0.000 A 
ATOM      9  C   UNL     1       0.547   9.694  19.372  0.00  0.00    +0.000 A 
ATOM     10  C   UNL     1       0.267   9.276  20.664  0.00  0.00    +0.000 A 
ATOM     11  F   UNL     1      -0.700   9.884  21.361  0.00  0.00    +0.000 F 
ATOM     12  C   UNL     1       0.974   8.229  21.237  0.00  0.00    +0.000 A 
ATOM     13  C   UNL     1       1.924   7.539  20.476  0.00  0.00    +0.000 A 
ENDBRANCH   4   7
BRANCH   5  14
ATOM     14  C   UNL     1       2.466   4.750  19.396  0.00  0.00    +0.000 A 
ATOM     15  C   UNL     1       3.015   4.587  20.686  0.00  0.00    +0.000 A 
ATOM     16  C   UNL     1       2.428   3.737  21.627  0.00  0.00    +0.000 A 
ATOM     17  C   UNL     1       1.290   3.022  21.282  0.00  0.00    +0.000 A 
ATOM     18  F   UNL     1       0.748   2.175  22.166  0.00  0.00    +0.000 F 
ATOM     19  C   UNL     1       0.705   3.178  20.036  0.00  0.00    +0.000 A 
ATOM     20  C   UNL     1       1.267   4.069  19.115  0.00  0.00    +0.000 A 
ENDBRANCH   5  14
BRANCH   1  22
ATOM     21  C   UNL     1       5.787   5.160  14.495  0.00  0.00    +0.000 C 
ATOM     22  C   UNL     1       5.533   4.785  15.762  0.00  0.00    +0.000 C 
BRANCH  21  24
ATOM     23  O   UNL     1       7.591   4.786  12.982  0.00  0.00    +0.000 OA
ATOM     24  C   UNL     1       6.662   4.345  13.638  0.00  0.00    +0.000 C 
BRANCH  24  25
ATOM     25  O   UNL     1       6.313   3.043  13.651  0.00  0.00    +0.000 OA
ATOM     26  H   UNL     1       5.486   2.835  14.129  0.00  0.00    +0.000 HD
ENDBRANCH  24  25
ENDBRANCH  21  24
ENDBRANCH   1  22
TORSDOF 5
ENDMDL
MODEL 8
REMARK VINA RESULT:      -8.0      1.241      4.422
REMARK  Name = 
REMARK  5 active torsions:
REMARK  status: ('A' for Active; 'I' for Inactive)
REMARK    1  A    between atoms: C_2  and  O_3
REMARK    2  A    between atoms: C_2  and  C_4
REMARK    3  A    between atoms: C_5  and  C_6
REMARK    4  A    between atoms: C_9  and  C_10
REMARK    5  A    between atoms: C_17  and  C_18
REMARK                            x       y       z     vdW  Elec       q    Type
REMARK                         _______ _______ _______ _____ _____    ______ ____
ROOT
ATOM      1  C   UNL     1       4.875   5.537  16.399  0.00  0.00    +0.000 A 
ATOM      2  C   UNL     1       4.770   6.916  16.335  0.00  0.00    +0.000 A 
ATOM      3  N   UNL     1       3.957   7.632  17.155  0.00  0.00    +0.000 NA
ATOM      4  C   UNL     1       3.230   6.929  18.076  0.00  0.00    +0.000 A 
ATOM      5  C   UNL     1       3.367   5.526  18.176  0.00  0.00    +0.000 A 
ATOM      6  N   UNL     1       4.178   4.835  17.318  0.00  0.00    +0.000 NA
ENDROOT
BRANCH   4   7
ATOM      7  C   UNL     1       2.372   7.771  18.943  0.00  0.00    +0.000 A 
ATOM      8  C   UNL     1       1.725   8.930  18.468  0.00  0.00    +0.000 A 
ATOM      9  C   UNL     1       0.737   9.571  19.222  0.00  0.00    +0.000 A 
ATOM     10  C   UNL     1       0.452   9.118  20.501  0.00  0.00    +0.000 A 
ATOM     11  F   UNL     1      -0.519   9.706  21.210  0.00  0.00    +0.000 F 
ATOM     12  C   UNL     1       1.157   8.056  21.049  0.00  0.00    +0.000 A 
ATOM     13  C   UNL     1       2.110   7.387  20.274  0.00  0.00    +0.000 A 
ENDBRANCH   4   7
BRANCH   5  14
ATOM     14  C   UNL     1       2.711   4.636  19.167  0.00  0.00    +0.000 A 
ATOM     15  C   UNL     1       1.443   4.082  18.890  0.00  0.00    +0.000 A 
ATOM     16  C   UNL     1       0.776   3.285  19.823  0.00  0.00    +0.000 A 
ATOM     17  C   UNL     1       1.362   3.044  21.057  0.00  0.00    +0.000 A 
ATOM     18  F   UNL     1       0.708   2.315  21.970  0.00  0.00    +0.000 F 
ATOM     19  C   UNL     1       2.619   3.546  21.354  0.00  0.00    +0.000 A 
ATOM     20  C   UNL     1       3.305   4.302  20.399  0.00  0.00    +0.000 A 
ENDBRANCH   5  14
BRANCH   1  22
ATOM     21  C   UNL     1       5.614   4.843  14.162  0.00  0.00    +0.000 C 
ATOM     22  C   UNL     1       5.736   4.761  15.499  0.00  0.00    +0.000 C 
BRANCH  21  24
ATOM     23  O   UNL     1       7.504   4.502  12.750  0.00  0.00    +0.000 OA
ATOM     24  C   UNL     1       6.499   4.063  13.284  0.00  0.00    +0.000 C 
BRANCH  24  25
ATOM     25  O   UNL     1       6.067   2.796  13.125  0.00  0.00    +0.000 OA
ATOM     26  H   UNL     1       5.486   2.645  12.353  0.00  0.00    +0.000 HD
ENDBRANCH  24  25
ENDBRANCH  21  24
ENDBRANCH   1  22
TORSDOF 5
ENDMDL
MODEL 9
REMARK VINA RESULT:      -7.8      3.499      5.427
REMARK  Name = 
REMARK  5 active torsions:
REMARK  status: ('A' for Active; 'I' for Inactive)
REMARK    1  A    between atoms: C_2  and  O_3
REMARK    2  A    between atoms: C_2  and  C_4
REMARK    3  A    between atoms: C_5  and  C_6
REMARK    4  A    between atoms: C_9  and  C_10
REMARK    5  A    between atoms: C_17  and  C_18
REMARK                            x       y       z     vdW  Elec       q    Type
REMARK                         _______ _______ _______ _____ _____    ______ ____
ROOT
ATOM      1  C   UNL     1       5.857   4.368  14.670  0.00  0.00    +0.000 A 
ATOM      2  C   UNL     1       7.127   4.913  14.585  0.00  0.00    +0.000 A 
ATOM      3  N   UNL     1       7.597   5.828  15.472  0.00  0.00    +0.000 NA
ATOM      4  C   UNL     1       6.755   6.200  16.485  0.00  0.00    +0.000 A 
ATOM      5  C   UNL     1       5.474   5.615  16.603  0.00  0.00    +0.000 A 
ATOM      6  N   UNL     1       5.026   4.713  15.677  0.00  0.00    +0.000 NA
ENDROOT
BRANCH   4   7
ATOM      7  C   UNL     1       7.334   7.194  17.421  0.00  0.00    +0.000 A 
ATOM      8  C   UNL     1       7.990   6.818  18.611  0.00  0.00    +0.000 A 
ATOM      9  C   UNL     1       8.734   7.740  19.352  0.00  0.00    +0.000 A 
ATOM     10  C   UNL     1       8.753   9.071  18.967  0.00  0.00    +0.000 A 
ATOM     11  F   UNL     1       9.494   9.948  19.654  0.00  0.00    +0.000 F 
ATOM     12  C   UNL     1       8.017   9.501  17.871  0.00  0.00    +0.000 A 
ATOM     13  C   UNL     1       7.313   8.567  17.104  0.00  0.00    +0.000 A 
ENDBRANCH   4   7
BRANCH   5  14
ATOM     14  C   UNL     1       4.483   5.853  17.681  0.00  0.00    +0.000 A 
ATOM     15  C   UNL     1       4.341   4.921  18.730  0.00  0.00    +0.000 A 
ATOM     16  C   UNL     1       3.382   5.088  19.732  0.00  0.00    +0.000 A 
ATOM     17  C   UNL     1       2.536   6.186  19.687  0.00  0.00    +0.000 A 
ATOM     18  F   UNL     1       1.587   6.330  20.621  0.00  0.00    +0.000 F 
ATOM     19  C   UNL     1       2.663   7.140  18.689  0.00  0.00    +0.000 A 
ATOM     20  C   UNL     1       3.658   6.994  17.717  0.00  0.00    +0.000 A 
ENDBRANCH   5  14
BRANCH   1  22
ATOM     21  C   UNL     1       5.540   3.546  12.378  0.00  0.00    +0.000 C 
ATOM     22  C   UNL     1       5.340   3.397  13.700  0.00  0.00    +0.000 C 
BRANCH  21  24
ATOM     23  O   UNL     1       4.036   2.710  10.728  0.00  0.00    +0.000 OA
ATOM     24  C   UNL     1       5.021   2.549  11.429  0.00  0.00    +0.000 C 
BRANCH  24  25
ATOM     25  O   UNL     1       5.759   1.421  11.426  0.00  0.00    +0.000 OA
ATOM     26  H   UNL     1       5.776   0.929  12.270  0.00  0.00    +0.000 HD
ENDBRANCH  24  25
ENDBRANCH  21  24
ENDBRANCH   1  22
TORSDOF 5
ENDMDL
