MODEL 1
REMARK VINA RESULT:      -8.3      0.000      0.000
REMARK  Name = 
REMARK  5 active torsions:
REMARK  status: ('A' for Active; 'I' for Inactive)
REMARK    1  A    between atoms: C_1  and  C_2
REMARK    2  A    between atoms: C_3  and  C_4
REMARK    3  A    between atoms: C_4  and  C_5
REMARK    4  A    between atoms: N_17  and  C_18
REMARK    5  A    between atoms: C_18  and  C_19
REMARK                            x       y       z     vdW  Elec       q    Type
REMARK                         _______ _______ _______ _____ _____    ______ ____
ROOT
ATOM      1  C   UNL     1       3.778   4.659  16.869  0.00  0.00    +0.000 C 
ATOM      2  C   UNL     1       5.118   5.190  17.365  0.00  0.00    +0.000 A 
ATOM      3  C   UNL     1       5.520   4.929  18.646  0.00  0.00    +0.000 A 
ATOM      4  C   UNL     1       6.804   5.530  19.120  0.00  0.00    +0.000 A 
ATOM      5  O   UNL     1       7.328   5.208  20.180  0.00  0.00    +0.000 OA
ATOM      6  C   UNL     1       7.431   6.556  18.275  0.00  0.00    +0.000 A 
ATOM      7  C   UNL     1       6.944   6.733  17.049  0.00  0.00    +0.000 A 
ATOM      8  N   UNL     1       5.889   6.005  16.498  0.00  0.00    +0.000 N 
ENDROOT
BRANCH   3   9
ATOM      9  C   UNL     1       4.881   3.982  19.638  0.00  0.00    +0.000 C 
BRANCH   9  10
ATOM     10  C   UNL     1       3.396   3.628  19.537  0.00  0.00    +0.000 A 
ATOM     11  C   UNL     1       2.911   2.346  19.209  0.00  0.00    +0.000 A 
ATOM     12 CL   UNL     1       3.888   1.075  18.569  0.00  0.00    +0.000 Cl
ATOM     13  C   UNL     1       1.559   2.004  19.390  0.00  0.00    +0.000 A 
ATOM     14  C   UNL     1       0.647   2.927  19.880  0.00  0.00    +0.000 A 
ATOM     15  C   UNL     1       1.078   4.218  20.149  0.00  0.00    +0.000 A 
ATOM     16  C   UNL     1       2.428   4.566  19.980  0.00  0.00    +0.000 A 
ATOM     17 CL   UNL     1       2.819   6.208  20.381  0.00  0.00    +0.000 Cl
ENDBRANCH   9  10
ENDBRANCH   3   9
BRANCH   8  18
ATOM     18  C   UNL     1       5.833   5.927  15.003  0.00  0.00    +0.000 C 
BRANCH  18  19
ATOM     19  C   UNL     1       6.709   4.762  14.457  0.00  0.00    +0.000 C 
ATOM     20  C   UNL     1       5.890   3.550  13.971  0.00  0.00    +0.000 C 
ATOM     21  C   UNL     1       5.751   3.340  12.468  0.00  0.00    +0.000 C 
ATOM     22  C   UNL     1       6.980   3.701  11.655  0.00  0.00    +0.000 C 
ATOM     23  C   UNL     1       7.545   5.064  12.011  0.00  0.00    +0.000 C 
ATOM     24  C   UNL     1       7.801   5.252  13.499  0.00  0.00    +0.000 C 
ENDBRANCH  18  19
ENDBRANCH   8  18
TORSDOF 4
ENDMDL
MODEL 2
REMARK VINA RESULT:      -8.1      0.288      1.898
REMARK  Name = 
REMARK  5 active torsions:
REMARK  status: ('A' for Active; 'I' for Inactive)
REMARK    1  A    between atoms: C_1  and  C_2
REMARK    2  A    between atoms: C_3  and  C_4
REMARK    3  A    between atoms: C_4  and  C_5
REMARK    4  A    between atoms: N_17  and  C_18
REMARK    5  A    between atoms: C_18  and  C_19
REMARK                            x       y       z     vdW  Elec       q    Type
REMARK                         _______ _______ _______ _____ _____    ______ ____
ROOT
ATOM      1  C   UNL     1       3.809   4.243  16.688  0.00  0.00    +0.000 C 
ATOM      2  C   UNL     1       5.037   4.960  17.237  0.00  0.00    +0.000 A 
ATOM      3  C   UNL     1       5.437   4.733  18.526  0.00  0.00    +0.000 A 
ATOM      4  C   UNL     1       6.600   5.510  19.053  0.00  0.00    +0.000 A 
ATOM      5  O   UNL     1       7.135   5.247  20.124  0.00  0.00    +0.000 OA
ATOM      6  C   UNL     1       7.088   6.638  18.248  0.00  0.00    +0.000 A 
ATOM      7  C   UNL     1       6.616   6.768  17.011  0.00  0.00    +0.000 A 
ATOM      8  N   UNL     1       5.701   5.901  16.411  0.00  0.00    +0.000 N 
ENDROOT
BRANCH   3   9
ATOM      9  C   UNL     1       4.920   3.676  19.478  0.00  0.00    +0.000 C 
BRANCH   9  10
ATOM     10  C   UNL     1       3.422   3.393  19.594  0.00  0.00    +0.000 A 
ATOM     11  C   UNL     1       2.461   4.361  19.950  0.00  0.00    +0.000 A 
ATOM     12 CL   UNL     1       2.844   5.909  20.611  0.00  0.00    +0.000 Cl
ATOM     13  C   UNL     1       1.085   4.125  19.784  0.00  0.00    +0.000 A 
ATOM     14  C   UNL     1       0.621   2.918  19.281  0.00  0.00    +0.000 A 
ATOM     15  C   UNL     1       1.536   1.920  18.984  0.00  0.00    +0.000 A 
ATOM     16  C   UNL     1       2.913   2.148  19.138  0.00  0.00    +0.000 A 
ATOM     17 CL   UNL     1       3.934   0.815  18.702  0.00  0.00    +0.000 Cl
ENDBRANCH   9  10
ENDBRANCH   3   9
BRANCH   8  18
ATOM     18  C   UNL     1       5.703   5.851  14.914  0.00  0.00    +0.000 C 
BRANCH  18  19
ATOM     19  C   UNL     1       6.631   4.721  14.380  0.00  0.00    +0.000 C 
ATOM     20  C   UNL     1       5.864   3.496  13.842  0.00  0.00    +0.000 C 
ATOM     21  C   UNL     1       5.787   3.312  12.332  0.00  0.00    +0.000 C 
ATOM     22  C   UNL     1       7.033   3.721  11.571  0.00  0.00    +0.000 C 
ATOM     23  C   UNL     1       7.546   5.093  11.972  0.00  0.00    +0.000 C 
ATOM     24  C   UNL     1       7.742   5.260  13.472  0.00  0.00    +0.000 C 
ENDBRANCH  18  19
ENDBRANCH   8  18
TORSDOF 4
ENDMDL
MODEL 3
REMARK VINA RESULT:      -7.7      1.128      1.569
REMARK  Name = 
REMARK  5 active torsions:
REMARK  status: ('A' for Active; 'I' for Inactive)
REMARK    1  A    between atoms: C_1  and  C_2
REMARK    2  A    between atoms: C_3  and  C_4
REMARK    3  A    between atoms: C_4  and  C_5
REMARK    4  A    between atoms: N_17  and  C_18
REMARK    5  A    between atoms: C_18  and  C_19
REMARK                            x       y       z     vdW  Elec       q    Type
REMARK                         _______ _______ _______ _____ _____    ______ ____
ROOT
ATOM      1  C   UNL     1       3.730   4.706  16.947  0.00  0.00    +0.000 C 
ATOM      2  C   UNL     1       5.178   4.693  17.423  0.00  0.00    +0.000 A 
ATOM      3  C   UNL     1       5.476   5.078  18.702  0.00  0.00    +0.000 A 
ATOM      4  C   UNL     1       6.913   5.124  19.108  0.00  0.00    +0.000 A 
ATOM      5  O   UNL     1       7.262   5.282  20.273  0.00  0.00    +0.000 OA
ATOM      6  C   UNL     1       7.927   4.994  18.053  0.00  0.00    +0.000 A 
ATOM      7  C   UNL     1       7.517   4.629  16.840  0.00  0.00    +0.000 A 
ATOM      8  N   UNL     1       6.194   4.342  16.499  0.00  0.00    +0.000 N 
ENDROOT
BRANCH   3   9
ATOM      9  C   UNL     1       4.507   5.351  19.831  0.00  0.00    +0.000 C 
BRANCH   9  10
ATOM     10  C   UNL     1       3.237   4.513  19.993  0.00  0.00    +0.000 A 
ATOM     11  C   UNL     1       3.233   3.117  20.192  0.00  0.00    +0.000 A 
ATOM     12 CL   UNL     1       4.612   2.103  19.971  0.00  0.00    +0.000 Cl
ATOM     13  C   UNL     1       2.071   2.438  20.599  0.00  0.00    +0.000 A 
ATOM     14  C   UNL     1       0.878   3.117  20.800  0.00  0.00    +0.000 A 
ATOM     15  C   UNL     1       0.832   4.480  20.548  0.00  0.00    +0.000 A 
ATOM     16  C   UNL     1       1.988   5.169  20.149  0.00  0.00    +0.000 A 
ATOM     17 CL   UNL     1       1.779   6.872  19.896  0.00  0.00    +0.000 Cl
ENDBRANCH   9  10
ENDBRANCH   3   9
BRANCH   8  18
ATOM     18  C   UNL     1       5.983   3.444  15.319  0.00  0.00    +0.000 C 
BRANCH  18  19
ATOM     19  C   UNL     1       5.753   4.259  14.013  0.00  0.00    +0.000 C 
ATOM     20  C   UNL     1       6.815   5.349  13.770  0.00  0.00    +0.000 C 
ATOM     21  C   UNL     1       7.869   5.091  12.701  0.00  0.00    +0.000 C 
ATOM     22  C   UNL     1       7.372   4.342  11.479  0.00  0.00    +0.000 C 
ATOM     23  C   UNL     1       6.573   3.100  11.832  0.00  0.00    +0.000 C 
ATOM     24  C   UNL     1       5.438   3.359  12.812  0.00  0.00    +0.000 C 
ENDBRANCH  18  19
ENDBRANCH   8  18
TORSDOF 4
ENDMDL
MODEL 4
REMARK VINA RESULT:      -7.5      3.961      7.970
REMARK  Name = 
REMARK  5 active torsions:
REMARK  status: ('A' for Active; 'I' for Inactive)
REMARK    1  A    between atoms: C_1  and  C_2
REMARK    2  A    between atoms: C_3  and  C_4
REMARK    3  A    between atoms: C_4  and  C_5
REMARK    4  A    between atoms: N_17  and  C_18
REMARK    5  A    between atoms: C_18  and  C_19
REMARK                            x       y       z     vdW  Elec       q    Type
REMARK                         _______ _______ _______ _____ _____    ______ ____
ROOT
ATOM      1  C   UNL     1       2.902   7.776  18.264  0.00  0.00    +0.000 C 
ATOM      2  C   UNL     1       2.451   6.543  19.038  0.00  0.00    +0.000 A 
ATOM      3  C   UNL     1       2.793   5.296  18.588  0.00  0.00    +0.000 A 
ATOM      4  C   UNL     1       2.270   4.110  19.332  0.00  0.00    +0.000 A 
ATOM      5  O   UNL     1       2.666   2.971  19.112  0.00  0.00    +0.000 OA
ATOM      6  C   UNL     1       1.230   4.341  20.344  0.00  0.00    +0.000 A 
ATOM      7  C   UNL     1       0.971   5.600  20.691  0.00  0.00    +0.000 A 
ATOM      8  N   UNL     1       1.627   6.719  20.178  0.00  0.00    +0.000 N 
ENDROOT
BRANCH   3   9
ATOM      9  C   UNL     1       3.762   4.950  17.479  0.00  0.00    +0.000 C 
BRANCH   9  10
ATOM     10  C   UNL     1       5.215   5.424  17.533  0.00  0.00    +0.000 A 
ATOM     11  C   UNL     1       5.748   6.430  16.702  0.00  0.00    +0.000 A 
ATOM     12 CL   UNL     1       4.952   7.054  15.303  0.00  0.00    +0.000 Cl
ATOM     13  C   UNL     1       7.000   7.013  16.966  0.00  0.00    +0.000 A 
ATOM     14  C   UNL     1       7.767   6.603  18.046  0.00  0.00    +0.000 A 
ATOM     15  C   UNL     1       7.302   5.568  18.844  0.00  0.00    +0.000 A 
ATOM     16  C   UNL     1       6.050   4.985  18.594  0.00  0.00    +0.000 A 
ATOM     17 CL   UNL     1       5.593   3.722  19.692  0.00  0.00    +0.000 Cl
ENDBRANCH   9  10
ENDBRANCH   3   9
BRANCH   8  18
ATOM     18  C   UNL     1       1.628   7.950  21.032  0.00  0.00    +0.000 C 
BRANCH  18  19
ATOM     19  C   UNL     1       0.255   8.681  20.984  0.00  0.00    +0.000 C 
ATOM     20  C   UNL     1      -0.482   8.699  22.338  0.00  0.00    +0.000 C 
ATOM     21  C   UNL     1      -0.501  10.006  23.121  0.00  0.00    +0.000 C 
ATOM     22  C   UNL     1      -0.605  11.259  22.273  0.00  0.00    +0.000 C 
ATOM     23  C   UNL     1       0.382  11.277  21.120  0.00  0.00    +0.000 C 
ATOM     24  C   UNL     1       0.335  10.027  20.254  0.00  0.00    +0.000 C 
ENDBRANCH  18  19
ENDBRANCH   8  18
TORSDOF 4
ENDMDL
MODEL 5
REMARK VINA RESULT:      -7.4      1.112      2.359
REMARK  Name = 
REMARK  5 active torsions:
REMARK  status: ('A' for Active; 'I' for Inactive)
REMARK    1  A    between atoms: C_1  and  C_2
REMARK    2  A    between atoms: C_3  and  C_4
REMARK    3  A    between atoms: C_4  and  C_5
REMARK    4  A    between atoms: N_17  and  C_18
REMARK    5  A    between atoms: C_18  and  C_19
REMARK                            x       y       z     vdW  Elec       q    Type
REMARK                         _______ _______ _______ _____ _____    ______ ____
ROOT
ATOM      1  C   UNL     1       3.541   4.763  17.103  0.00  0.00    +0.000 C 
ATOM      2  C   UNL     1       5.006   4.728  17.521  0.00  0.00    +0.000 A 
ATOM      3  C   UNL     1       5.361   5.099  18.789  0.00  0.00    +0.000 A 
ATOM      4  C   UNL     1       6.813   5.124  19.138  0.00  0.00    +0.000 A 
ATOM      5  O   UNL     1       7.211   5.268  20.288  0.00  0.00    +0.000 OA
ATOM      6  C   UNL     1       7.782   4.988  18.041  0.00  0.00    +0.000 A 
ATOM      7  C   UNL     1       7.319   4.637  16.844  0.00  0.00    +0.000 A 
ATOM      8  N   UNL     1       5.980   4.370  16.554  0.00  0.00    +0.000 N 
ENDROOT
BRANCH   3   9
ATOM      9  C   UNL     1       4.442   5.376  19.958  0.00  0.00    +0.000 C 
BRANCH   9  10
ATOM     10  C   UNL     1       3.182   4.537  20.180  0.00  0.00    +0.000 A 
ATOM     11  C   UNL     1       1.881   5.074  20.260  0.00  0.00    +0.000 A 
ATOM     12 CL   UNL     1       1.536   6.756  20.438  0.00  0.00    +0.000 Cl
ATOM     13  C   UNL     1       0.742   4.252  20.195  0.00  0.00    +0.000 A 
ATOM     14  C   UNL     1       0.860   2.875  20.071  0.00  0.00    +0.000 A 
ATOM     15  C   UNL     1       2.125   2.309  20.057  0.00  0.00    +0.000 A 
ATOM     16  C   UNL     1       3.269   3.122  20.112  0.00  0.00    +0.000 A 
ATOM     17 CL   UNL     1       4.780   2.272  20.060  0.00  0.00    +0.000 Cl
ENDBRANCH   9  10
ENDBRANCH   3   9
BRANCH   8  18
ATOM     18  C   UNL     1       5.709   3.484  15.378  0.00  0.00    +0.000 C 
BRANCH  18  19
ATOM     19  C   UNL     1       5.599   4.301  14.057  0.00  0.00    +0.000 C 
ATOM     20  C   UNL     1       6.865   5.117  13.729  0.00  0.00    +0.000 C 
ATOM     21  C   UNL     1       7.775   4.605  12.621  0.00  0.00    +0.000 C 
ATOM     22  C   UNL     1       7.059   3.962  11.449  0.00  0.00    +0.000 C 
ATOM     23  C   UNL     1       6.021   2.941  11.880  0.00  0.00    +0.000 C 
ATOM     24  C   UNL     1       5.028   3.470  12.903  0.00  0.00    +0.000 C 
ENDBRANCH  18  19
ENDBRANCH   8  18
TORSDOF 4
ENDMDL
MODEL 6
REMARK VINA RESULT:      -7.2      6.243      8.593
REMARK  Name = 
REMARK  5 active torsions:
REMARK  status: ('A' for Active; 'I' for Inactive)
REMARK    1  A    between atoms: C_1  and  C_2
REMARK    2  A    between atoms: C_3  and  C_4
REMARK    3  A    between atoms: C_4  and  C_5
REMARK    4  A    between atoms: N_17  and  C_18
REMARK    5  A    between atoms: C_18  and  C_19
REMARK                            x       y       z     vdW  Elec       q    Type
REMARK                         _______ _______ _______ _____ _____    ______ ____
ROOT
ATOM      1  C   UNL     1       2.176   8.680  17.654  0.00  0.00    +0.000 C 
ATOM      2  C   UNL     1       1.580   8.663  19.057  0.00  0.00    +0.000 A 
ATOM      3  C   UNL     1       0.639   9.593  19.407  0.00  0.00    +0.000 A 
ATOM      4  C   UNL     1       0.133   9.590  20.813  0.00  0.00    +0.000 A 
ATOM      5  O   UNL     1      -0.829  10.262  21.166  0.00  0.00    +0.000 OA
ATOM      6  C   UNL     1       0.845   8.759  21.794  0.00  0.00    +0.000 A 
ATOM      7  C   UNL     1       1.752   7.899  21.337  0.00  0.00    +0.000 A 
ATOM      8  N   UNL     1       2.067   7.714  19.991  0.00  0.00    +0.000 N 
ENDROOT
BRANCH   3   9
ATOM      9  C   UNL     1      -0.070  10.573  18.499  0.00  0.00    +0.000 C 
BRANCH   9  10
ATOM     10  C   UNL     1      -0.004  12.078  18.769  0.00  0.00    +0.000 A 
ATOM     11  C   UNL     1      -1.072  12.832  19.295  0.00  0.00    +0.000 A 
ATOM     12 CL   UNL     1      -2.695  12.258  19.419  0.00  0.00    +0.000 Cl
ATOM     13  C   UNL     1      -0.881  14.141  19.772  0.00  0.00    +0.000 A 
ATOM     14  C   UNL     1       0.366  14.747  19.721  0.00  0.00    +0.000 A 
ATOM     15  C   UNL     1       1.423  14.057  19.148  0.00  0.00    +0.000 A 
ATOM     16  C   UNL     1       1.245  12.746  18.677  0.00  0.00    +0.000 A 
ATOM     17 CL   UNL     1       2.664  12.004  18.010  0.00  0.00    +0.000 Cl
ENDBRANCH   9  10
ENDBRANCH   3   9
BRANCH   8  18
ATOM     18  C   UNL     1       2.655   6.389  19.613  0.00  0.00    +0.000 C 
BRANCH  18  19
ATOM     19  C   UNL     1       1.551   5.362  19.223  0.00  0.00    +0.000 C 
ATOM     20  C   UNL     1       1.795   4.681  17.862  0.00  0.00    +0.000 C 
ATOM     21  C   UNL     1       2.281   3.238  17.866  0.00  0.00    +0.000 C 
ATOM     22  C   UNL     1       1.703   2.369  18.967  0.00  0.00    +0.000 C 
ATOM     23  C   UNL     1       1.782   3.021  20.335  0.00  0.00    +0.000 C 
ATOM     24  C   UNL     1       1.193   4.424  20.381  0.00  0.00    +0.000 C 
ENDBRANCH  18  19
ENDBRANCH   8  18
TORSDOF 4
ENDMDL
MODEL 7
REMARK VINA RESULT:      -7.2      6.147      8.080
REMARK  Name = 
REMARK  5 active torsions:
REMARK  status: ('A' for Active; 'I' for Inactive)
REMARK    1  A    between atoms: C_1  and  C_2
REMARK    2  A    between atoms: C_3  and  C_4
REMARK    3  A    between atoms: C_4  and  C_5
REMARK    4  A    between atoms: N_17  and  C_18
REMARK    5  A    between atoms: C_18  and  C_19
REMARK                            x       y       z     vdW  Elec       q    Type
REMARK                         _______ _______ _______ _____ _____    ______ ____
ROOT
ATOM      1  C   UNL     1       2.029  10.064  17.763  0.00  0.00    +0.000 C 
ATOM      2  C   UNL     1       1.506   9.387  19.024  0.00  0.00    +0.000 A 
ATOM      3  C   UNL     1       0.678  10.073  19.870  0.00  0.00    +0.000 A 
ATOM      4  C   UNL     1       0.246   9.402  21.134  0.00  0.00    +0.000 A 
ATOM      5  O   UNL     1      -0.628   9.865  21.858  0.00  0.00    +0.000 OA
ATOM      6  C   UNL     1       0.923   8.154  21.511  0.00  0.00    +0.000 A 
ATOM      7  C   UNL     1       1.719   7.583  20.610  0.00  0.00    +0.000 A 
ATOM      8  N   UNL     1       1.947   8.073  19.323  0.00  0.00    +0.000 N 
ENDROOT
BRANCH   3   9
ATOM      9  C   UNL     1       0.022  11.414  19.630  0.00  0.00    +0.000 C 
BRANCH   9  10
ATOM     10  C   UNL     1      -1.501  11.537  19.545  0.00  0.00    +0.000 A 
ATOM     11  C   UNL     1      -2.276  12.348  20.400  0.00  0.00    +0.000 A 
ATOM     12 CL   UNL     1      -1.682  13.069  21.851  0.00  0.00    +0.000 Cl
ATOM     13  C   UNL     1      -3.622  12.635  20.118  0.00  0.00    +0.000 A 
ATOM     14  C   UNL     1      -4.246  12.111  18.994  0.00  0.00    +0.000 A 
ATOM     15  C   UNL     1      -3.531  11.256  18.169  0.00  0.00    +0.000 A 
ATOM     16  C   UNL     1      -2.183  10.970  18.437  0.00  0.00    +0.000 A 
ATOM     17 CL   UNL     1      -1.416   9.905  17.303  0.00  0.00    +0.000 Cl
ENDBRANCH   9  10
ENDBRANCH   3   9
BRANCH   8  18
ATOM     18  C   UNL     1       2.385   7.079  18.292  0.00  0.00    +0.000 C 
BRANCH  18  19
ATOM     19  C   UNL     1       2.672   5.686  18.924  0.00  0.00    +0.000 C 
ATOM     20  C   UNL     1       1.837   4.545  18.309  0.00  0.00    +0.000 C 
ATOM     21  C   UNL     1       2.537   3.582  17.360  0.00  0.00    +0.000 C 
ATOM     22  C   UNL     1       3.972   3.253  17.724  0.00  0.00    +0.000 C 
ATOM     23  C   UNL     1       4.802   4.487  18.029  0.00  0.00    +0.000 C 
ATOM     24  C   UNL     1       4.173   5.408  19.065  0.00  0.00    +0.000 C 
ENDBRANCH  18  19
ENDBRANCH   8  18
TORSDOF 4
ENDMDL
MODEL 8
REMARK VINA RESULT:      -7.1      4.931      7.357
REMARK  Name = 
REMARK  5 active torsions:
REMARK  status: ('A' for Active; 'I' for Inactive)
REMARK    1  A    between atoms: C_1  and  C_2
REMARK    2  A    between atoms: C_3  and  C_4
REMARK    3  A    between atoms: C_4  and  C_5
REMARK    4  A    between atoms: N_17  and  C_18
REMARK    5  A    between atoms: C_18  and  C_19
REMARK                            x       y       z     vdW  Elec       q    Type
REMARK                         _______ _______ _______ _____ _____    ______ ____
ROOT
ATOM      1  C   UNL     1       1.426   7.695  21.406  0.00  0.00    +0.000 C 
ATOM      2  C   UNL     1       1.802   7.941  19.950  0.00  0.00    +0.000 A 
ATOM      3  C   UNL     1       2.756   7.162  19.352  0.00  0.00    +0.000 A 
ATOM      4  C   UNL     1       3.151   7.483  17.948  0.00  0.00    +0.000 A 
ATOM      5  O   UNL     1       3.858   6.738  17.278  0.00  0.00    +0.000 OA
ATOM      6  C   UNL     1       2.680   8.752  17.377  0.00  0.00    +0.000 A 
ATOM      7  C   UNL     1       1.760   9.434  18.056  0.00  0.00    +0.000 A 
ATOM      8  N   UNL     1       1.196   9.025  19.265  0.00  0.00    +0.000 N 
ENDROOT
BRANCH   3   9
ATOM      9  C   UNL     1       3.392   5.903  19.900  0.00  0.00    +0.000 C 
BRANCH   9  10
ATOM     10  C   UNL     1       3.060   4.535  19.301  0.00  0.00    +0.000 A 
ATOM     11  C   UNL     1       1.779   3.946  19.340  0.00  0.00    +0.000 A 
ATOM     12 CL   UNL     1       0.481   4.515  20.326  0.00  0.00    +0.000 Cl
ATOM     13  C   UNL     1       1.463   2.825  18.553  0.00  0.00    +0.000 A 
ATOM     14  C   UNL     1       2.409   2.243  17.723  0.00  0.00    +0.000 A 
ATOM     15  C   UNL     1       3.698   2.756  17.712  0.00  0.00    +0.000 A 
ATOM     16  C   UNL     1       4.022   3.881  18.487  0.00  0.00    +0.000 A 
ATOM     17 CL   UNL     1       5.664   4.422  18.350  0.00  0.00    +0.000 Cl
ENDBRANCH   9  10
ENDBRANCH   3   9
BRANCH   8  18
ATOM     18  C   UNL     1      -0.156   9.576  19.597  0.00  0.00    +0.000 C 
BRANCH  18  19
ATOM     19  C   UNL     1      -0.695  10.497  18.464  0.00  0.00    +0.000 C 
ATOM     20  C   UNL     1      -1.624   9.773  17.470  0.00  0.00    +0.000 C 
ATOM     21  C   UNL     1      -3.120  10.044  17.567  0.00  0.00    +0.000 C 
ATOM     22  C   UNL     1      -3.491  11.469  17.930  0.00  0.00    +0.000 C 
ATOM     23  C   UNL     1      -2.717  11.994  19.126  0.00  0.00    +0.000 C 
ATOM     24  C   UNL     1      -1.209  11.839  18.997  0.00  0.00    +0.000 C 
ENDBRANCH  18  19
ENDBRANCH   8  18
TORSDOF 4
ENDMDL
MODEL 9
REMARK VINA RESULT:      -7.1      6.271      8.563
REMARK  Name = 
REMARK  5 active torsions:
REMARK  status: ('A' for Active; 'I' for Inactive)
REMARK    1  A    between atoms: C_1  and  C_2
REMARK    2  A    between atoms: C_3  and  C_4
REMARK    3  A    between atoms: C_4  and  C_5
REMARK    4  A    between atoms: N_17  and  C_18
REMARK    5  A    between atoms: C_18  and  C_19
REMARK                            x       y       z     vdW  Elec       q    Type
REMARK                         _______ _______ _______ _____ _____    ______ ____
ROOT
ATOM      1  C   UNL     1       2.146   8.755  17.658  0.00  0.00    +0.000 C 
ATOM      2  C   UNL     1       1.593   8.684  19.077  0.00  0.00    +0.000 A 
ATOM      3  C   UNL     1       0.681   9.613  19.499  0.00  0.00    +0.000 A 
ATOM      4  C   UNL     1       0.219   9.556  20.919  0.00  0.00    +0.000 A 
ATOM      5  O   UNL     1      -0.720  10.226  21.332  0.00  0.00    +0.000 OA
ATOM      6  C   UNL     1       0.946   8.670  21.839  0.00  0.00    +0.000 A 
ATOM      7  C   UNL     1       1.824   7.817  21.315  0.00  0.00    +0.000 A 
ATOM      8  N   UNL     1       2.093   7.687  19.952  0.00  0.00    +0.000 N 
ENDROOT
BRANCH   3   9
ATOM      9  C   UNL     1      -0.038  10.644  18.658  0.00  0.00    +0.000 C 
BRANCH   9  10
ATOM     10  C   UNL     1       0.166  12.139  18.908  0.00  0.00    +0.000 A 
ATOM     11  C   UNL     1       1.334  12.846  18.555  0.00  0.00    +0.000 A 
ATOM     12 CL   UNL     1       2.815  12.095  18.083  0.00  0.00    +0.000 Cl
ATOM     13  C   UNL     1       1.371  14.251  18.559  0.00  0.00    +0.000 A 
ATOM     14  C   UNL     1       0.262  14.996  18.933  0.00  0.00    +0.000 A 
ATOM     15  C   UNL     1      -0.881  14.331  19.351  0.00  0.00    +0.000 A 
ATOM     16  C   UNL     1      -0.932  12.928  19.342  0.00  0.00    +0.000 A 
ATOM     17 CL   UNL     1      -2.435  12.242  19.868  0.00  0.00    +0.000 Cl
ENDBRANCH   9  10
ENDBRANCH   3   9
BRANCH   8  18
ATOM     18  C   UNL     1       2.645   6.371  19.498  0.00  0.00    +0.000 C 
BRANCH  18  19
ATOM     19  C   UNL     1       1.512   5.350  19.187  0.00  0.00    +0.000 C 
ATOM     20  C   UNL     1       1.682   4.632  17.833  0.00  0.00    +0.000 C 
ATOM     21  C   UNL     1       2.150   3.183  17.850  0.00  0.00    +0.000 C 
ATOM     22  C   UNL     1       1.614   2.350  18.999  0.00  0.00    +0.000 C 
ATOM     23  C   UNL     1       1.765   3.034  20.345  0.00  0.00    +0.000 C 
ATOM     24  C   UNL     1       1.197   4.445  20.383  0.00  0.00    +0.000 C 
ENDBRANCH  18  19
ENDBRANCH   8  18
TORSDOF 4
ENDMDL
